TITL C-38185-7677-292 2.95245182393325e-06 125000 -370.887491291729 0 0 60 (C2h) n - 1
REM
REM in /home/bkarasulu/CARBON/AIRSS/Generating-Clusters/EDIP-Nigel-Params/Higher-Symm/Box-15A/Only-C60/SD-CG/FIRE-HFTN
REM
REM
REM
REM
REM
REM ./C.cell (414f73aa93bd7a1190c7fd0f31ff2f98)
REM
REM compiler GCC version 9.2.1 20190827 (Red Hat 9.2.1-1)
REM options -cpp -mtune=generic -march=x86-64 -g -O0 -fpre-include=/usr/include/finclude/math-vector-fortran.h
REM seed -919498961 1808978010 -1516502864 1206249580 -864078340 -1880784395 -324788969 485299333 -420376098 -799661922 -441851723 153849521 794246437 1529539989 -1680437826 -2028335096 -953664890 1166852800 -1474999563 -595764410 -21556868 684673443 257452270 -1559452570 1165662265 1201568084 -1669816098 1818255111 1737943020 -26590022 -1303119133 1829269803 -495891320
REM
CELL 1.54180   50.00000   50.00000   50.00000   90.00000   90.00000   90.00000
LATT -1
SFAC C  
C      1  0.4921900000000  0.5248920000000  0.5611710000000 1.0
C      1  0.5320360000000  0.5000000000000  0.5599120000000 1.0
C      1  0.4921900000000  0.4751080000000  0.5611710000000 1.0
C      1  0.4789770000000  0.5277260000000  0.4429730000000 1.0
C      1  0.5130140000000  0.5000000000000  0.4265350000000 1.0
C      1  0.4789770000000  0.4722740000000  0.4429730000000 1.0
C      1  0.5210230000000  0.5277260000000  0.5570270000000 1.0
C      1  0.4869860000000  0.5000000000000  0.5734650000000 1.0
C      1  0.5210230000000  0.4722740000000  0.5570270000000 1.0
C      1  0.5078100000000  0.5248920000000  0.4388290000000 1.0
C      1  0.4679640000000  0.5000000000000  0.4400880000000 1.0
C      1  0.5078100000000  0.4751080000000  0.4388290000000 1.0
C      1  0.5189120000000  0.4744500000000  0.4667070000000 1.0
C      1  0.4780370000000  0.5000000000000  0.4775120000000 1.0
C      1  0.5189120000000  0.5255500000000  0.4667070000000 1.0
C      1  0.5057450000000  0.4749910000000  0.5151530000000 1.0
C      1  0.4658940000000  0.5000000000000  0.5282730000000 1.0
C      1  0.5057450000000  0.5250090000000  0.5151530000000 1.0
C      1  0.4942550000000  0.4749910000000  0.4848470000000 1.0
C      1  0.5341060000000  0.5000000000000  0.4717270000000 1.0
C      1  0.4942550000000  0.5250090000000  0.4848470000000 1.0
C      1  0.4810880000000  0.4744500000000  0.5332930000000 1.0
C      1  0.5219630000000  0.5000000000000  0.5224880000000 1.0
C      1  0.4810880000000  0.5255500000000  0.5332930000000 1.0
C      1  0.5172340000000  0.4254530000000  0.4861320000000 1.0
C      1  0.4309260000000  0.5237870000000  0.4767270000000 1.0
C      1  0.5591460000000  0.5493440000000  0.4885300000000 1.0
C      1  0.5130910000000  0.4267090000000  0.5178750000000 1.0
C      1  0.4257630000000  0.5243660000000  0.5154390000000 1.0
C      1  0.5541360000000  0.5476110000000  0.5180160000000 1.0
C      1  0.4869090000000  0.4267090000000  0.4821250000000 1.0
C      1  0.5742370000000  0.5243660000000  0.4845610000000 1.0
C      1  0.4458640000000  0.5476110000000  0.4819840000000 1.0
C      1  0.4827660000000  0.4254530000000  0.5138680000000 1.0
C      1  0.5690740000000  0.5237870000000  0.5232730000000 1.0
C      1  0.4408540000000  0.5493440000000  0.5114700000000 1.0
C      1  0.5742370000000  0.4756340000000  0.4845610000000 1.0
C      1  0.4458640000000  0.4523890000000  0.4819840000000 1.0
C      1  0.4869090000000  0.5732910000000  0.4821250000000 1.0
C      1  0.5690740000000  0.4762130000000  0.5232730000000 1.0
C      1  0.4408540000000  0.4506560000000  0.5114700000000 1.0
C      1  0.4827660000000  0.5745470000000  0.5138680000000 1.0
C      1  0.4309260000000  0.4762130000000  0.4767270000000 1.0
C      1  0.5591460000000  0.4506560000000  0.4885300000000 1.0
C      1  0.5172340000000  0.5745470000000  0.4861320000000 1.0
C      1  0.4257630000000  0.4756340000000  0.5154390000000 1.0
C      1  0.5541360000000  0.4523890000000  0.5180160000000 1.0
C      1  0.5130910000000  0.5732910000000  0.5178750000000 1.0
C      1  0.4372160000000  0.5000000000000  0.5258460000000 1.0
C      1  0.5249090000000  0.5470070000000  0.5274780000000 1.0
C      1  0.5249090000000  0.4529930000000  0.5274780000000 1.0
C      1  0.4464410000000  0.5000000000000  0.4785810000000 1.0
C      1  0.5333340000000  0.5518130000000  0.4738810000000 1.0
C      1  0.5333340000000  0.4481870000000  0.4738810000000 1.0
C      1  0.5535590000000  0.5000000000000  0.5214190000000 1.0
C      1  0.4666660000000  0.5518130000000  0.5261190000000 1.0
C      1  0.4666660000000  0.4481870000000  0.5261190000000 1.0
C      1  0.5627840000000  0.5000000000000  0.4741540000000 1.0
C      1  0.4750910000000  0.5470070000000  0.4725220000000 1.0
C      1  0.4750910000000  0.4529930000000  0.4725220000000 1.0
END
