TITL C-38199-1586-123 1.60727727627743e-06 125000 -354.70250301726 0 0 60 (C2) n - 1
REM
REM in /home/bkarasulu/CARBON/AIRSS/Generating-Clusters/EDIP-Nigel-Params/Higher-Symm/Box-15A/Only-C60/SD-CG/FIRE-HFTN
REM
REM
REM
REM
REM
REM ./C.cell (414f73aa93bd7a1190c7fd0f31ff2f98)
REM
REM compiler GCC version 9.2.1 20190827 (Red Hat 9.2.1-1)
REM options -cpp -mtune=generic -march=x86-64 -g -O0 -fpre-include=/usr/include/finclude/math-vector-fortran.h
REM seed -351179277 1199031761 500595829 2075370068 1682428429 -11787247 75710511 -1999166859 -1300634834 2016070826 1134265819 328893943 1409874930 -734246640 771173565 -1294346758 1634108026 1485124432 -239290383 -1933507524 1303330152 -5605024 -1015293316 297429528 -413478867 -1575617639 447377738 1098524657 -294300591 1766946715 739184916 -1370940906 -606507593
REM
CELL 1.54180   50.00000   50.00000   50.00000   90.00000   90.00000   90.00000
LATT -1
SFAC C  
C      1  0.5598560000000  0.5351450000000  0.5105780000000 1.0
C      1  0.4401440000000  0.5351450000000  0.4894220000000 1.0
C      1  0.5700780000000  0.4662210000000  0.4803770000000 1.0
C      1  0.4299220000000  0.4662210000000  0.5196230000000 1.0
C      1  0.5290110000000  0.5598900000000  0.4663740000000 1.0
C      1  0.4709890000000  0.5598900000000  0.5336260000000 1.0
C      1  0.5258570000000  0.4321300000000  0.5334360000000 1.0
C      1  0.4741430000000  0.4321300000000  0.4665640000000 1.0
C      1  0.5315960000000  0.5588410000000  0.5425660000000 1.0
C      1  0.4684040000000  0.5588410000000  0.4574340000000 1.0
C      1  0.5288370000000  0.4534520000000  0.4645780000000 1.0
C      1  0.4711630000000  0.4534520000000  0.5354220000000 1.0
C      1  0.5176120000000  0.5097570000000  0.4435810000000 1.0
C      1  0.4823880000000  0.5097570000000  0.5564190000000 1.0
C      1  0.5064570000000  0.4897510000000  0.5612230000000 1.0
C      1  0.4935430000000  0.4897510000000  0.4387770000000 1.0
C      1  0.5143910000000  0.5741300000000  0.4878470000000 1.0
C      1  0.4856090000000  0.5741300000000  0.5121530000000 1.0
C      1  0.5173480000000  0.4214190000000  0.5076900000000 1.0
C      1  0.4826520000000  0.4214190000000  0.4923100000000 1.0
C      1  0.5112800000000  0.5415160000000  0.5342790000000 1.0
C      1  0.4887200000000  0.5415160000000  0.4657210000000 1.0
C      1  0.5055570000000  0.4654110000000  0.4736750000000 1.0
C      1  0.4944430000000  0.4654110000000  0.5263250000000 1.0
C      1  0.5349830000000  0.4993190000000  0.4906360000000 1.0
C      1  0.4650170000000  0.4993190000000  0.5093640000000 1.0
C      1  0.5435260000000  0.5106590000000  0.5164320000000 1.0
C      1  0.4564740000000  0.5106590000000  0.4835680000000 1.0
C      1  0.4645620000000  0.4927920000000  0.4406630000000 1.0
C      1  0.5354380000000  0.4927920000000  0.5593370000000 1.0
C      1  0.4549270000000  0.4994170000000  0.5556700000000 1.0
C      1  0.5450730000000  0.4994170000000  0.4443300000000 1.0
C      1  0.4940590000000  0.4928670000000  0.5141090000000 1.0
C      1  0.5059410000000  0.4928670000000  0.4858910000000 1.0
C      1  0.4836140000000  0.5135440000000  0.4714590000000 1.0
C      1  0.5163860000000  0.5135440000000  0.5285410000000 1.0
C      1  0.5810950000000  0.4668380000000  0.5061260000000 1.0
C      1  0.4189050000000  0.4668380000000  0.4938740000000 1.0
C      1  0.5726230000000  0.5346180000000  0.4857180000000 1.0
C      1  0.4273770000000  0.5346180000000  0.5142820000000 1.0
C      1  0.4487210000000  0.4439190000000  0.5226110000000 1.0
C      1  0.5512790000000  0.4439190000000  0.4773890000000 1.0
C      1  0.4509940000000  0.5605650000000  0.4796620000000 1.0
C      1  0.5490060000000  0.5605650000000  0.5203380000000 1.0
C      1  0.5727500000000  0.5151510000000  0.4662170000000 1.0
C      1  0.4272500000000  0.5151510000000  0.5337830000000 1.0
C      1  0.5729520000000  0.4741430000000  0.5306470000000 1.0
C      1  0.4270480000000  0.4741430000000  0.4693530000000 1.0
C      1  0.4444250000000  0.4922840000000  0.5289520000000 1.0
C      1  0.5555750000000  0.4922840000000  0.4710480000000 1.0
C      1  0.4451210000000  0.4938450000000  0.4619080000000 1.0
C      1  0.5548790000000  0.4938450000000  0.5380920000000 1.0
C      1  0.5138240000000  0.5395300000000  0.4519440000000 1.0
C      1  0.4861760000000  0.5395300000000  0.5480560000000 1.0
C      1  0.5165980000000  0.4576470000000  0.5417240000000 1.0
C      1  0.4834020000000  0.4576470000000  0.4582760000000 1.0
C      1  0.5450060000000  0.4274080000000  0.5003700000000 1.0
C      1  0.4549940000000  0.4274080000000  0.4996300000000 1.0
C      1  0.5407160000000  0.5777910000000  0.4985950000000 1.0
C      1  0.4592840000000  0.5777910000000  0.5014050000000 1.0
END
