TITL C-38186-4112-56 6.37871698760209e-05 125000 -345.446829284467 0 0 60 (S4) n - 1
REM
REM in /home/bkarasulu/CARBON/AIRSS/Generating-Clusters/EDIP-Nigel-Params/Higher-Symm/Box-15A/Only-C60/SD-CG/FIRE-HFTN
REM
REM
REM
REM
REM
REM ./C.cell (414f73aa93bd7a1190c7fd0f31ff2f98)
REM
REM compiler GCC version 9.2.1 20190827 (Red Hat 9.2.1-1)
REM options -cpp -mtune=generic -march=x86-64 -g -O0 -fpre-include=/usr/include/finclude/math-vector-fortran.h
REM seed -1218486979 -1767931451 344013211 -1669405560 305193467 109322514 1501413291 1826921913 -6276139 90825534 1623958601 1669667947 -466540744 598040267 1703885761 162666062 -620860726 -170038530 -613624281 340170617 1253967250 1677557712 -410997683 1164940186 1089913536 -1411441077 -2120395796 695567997 1803397743 1610526250 1188812863 1789074462 -1819253354
REM
CELL 1.54180   50.00000   50.00000   50.00000   90.00000   90.00000   90.00000
LATT -1
SFAC C  
C      1  0.5067900000000  0.4652550000000  0.5572050000000 1.0
C      1  0.4970270000000  0.4958170000000  0.5617420000000 1.0
C      1  0.5037530000000  0.5334180000000  0.5520290000000 1.0
C      1  0.4932100000000  0.5572050000000  0.5347450000000 1.0
C      1  0.5029730000000  0.5617420000000  0.5041830000000 1.0
C      1  0.4962470000000  0.5520290000000  0.4665820000000 1.0
C      1  0.5067900000000  0.5347450000000  0.4427950000000 1.0
C      1  0.4970270000000  0.5041830000000  0.4382580000000 1.0
C      1  0.5037530000000  0.4665820000000  0.4479710000000 1.0
C      1  0.4932100000000  0.4427950000000  0.4652550000000 1.0
C      1  0.5029730000000  0.4382580000000  0.4958170000000 1.0
C      1  0.4962470000000  0.4479710000000  0.5334180000000 1.0
C      1  0.5294260000000  0.4612440000000  0.4341280000000 1.0
C      1  0.4649530000000  0.4385310000000  0.4586570000000 1.0
C      1  0.5295060000000  0.4247670000000  0.4972980000000 1.0
C      1  0.4705740000000  0.4341280000000  0.5387560000000 1.0
C      1  0.5350470000000  0.4586570000000  0.5614690000000 1.0
C      1  0.4704940000000  0.4972980000000  0.5752330000000 1.0
C      1  0.5294260000000  0.5387560000000  0.5658720000000 1.0
C      1  0.4649530000000  0.5614690000000  0.5413430000000 1.0
C      1  0.5295060000000  0.5752330000000  0.5027020000000 1.0
C      1  0.4705740000000  0.5658720000000  0.4612440000000 1.0
C      1  0.5350470000000  0.5413430000000  0.4385310000000 1.0
C      1  0.4704940000000  0.5027020000000  0.4247670000000 1.0
C      1  0.4775360000000  0.4868740000000  0.5234470000000 1.0
C      1  0.5193120000000  0.4993240000000  0.5297610000000 1.0
C      1  0.4791890000000  0.5160640000000  0.5272800000000 1.0
C      1  0.5224640000000  0.5234470000000  0.5131260000000 1.0
C      1  0.4806880000000  0.5297610000000  0.5006760000000 1.0
C      1  0.5208110000000  0.5272800000000  0.4839360000000 1.0
C      1  0.4775360000000  0.5131260000000  0.4765530000000 1.0
C      1  0.5193120000000  0.5006760000000  0.4702390000000 1.0
C      1  0.4791890000000  0.4839360000000  0.4727200000000 1.0
C      1  0.5224640000000  0.4765530000000  0.4868740000000 1.0
C      1  0.4806880000000  0.4702390000000  0.4993240000000 1.0
C      1  0.5208110000000  0.4727200000000  0.5160640000000 1.0
C      1  0.5554230000000  0.4778340000000  0.5529830000000 1.0
C      1  0.4466000000000  0.5022850000000  0.5587710000000 1.0
C      1  0.5526100000000  0.5319920000000  0.5492100000000 1.0
C      1  0.4445770000000  0.5529830000000  0.5221660000000 1.0
C      1  0.5534000000000  0.5587710000000  0.4977150000000 1.0
C      1  0.4473900000000  0.5492100000000  0.4680080000000 1.0
C      1  0.5554230000000  0.5221660000000  0.4470170000000 1.0
C      1  0.4466000000000  0.4977150000000  0.4412290000000 1.0
C      1  0.5526100000000  0.4680080000000  0.4507900000000 1.0
C      1  0.4445770000000  0.4470170000000  0.4778340000000 1.0
C      1  0.5534000000000  0.4412290000000  0.5022850000000 1.0
C      1  0.4473900000000  0.4507900000000  0.5319920000000 1.0
C      1  0.4608990000000  0.4759090000000  0.5446040000000 1.0
C      1  0.5390200000000  0.5032380000000  0.5530420000000 1.0
C      1  0.4525090000000  0.5249680000000  0.5385210000000 1.0
C      1  0.5391010000000  0.5446040000000  0.5240910000000 1.0
C      1  0.4609800000000  0.5530420000000  0.4967620000000 1.0
C      1  0.5474910000000  0.5385210000000  0.4750320000000 1.0
C      1  0.4608990000000  0.5240910000000  0.4553960000000 1.0
C      1  0.5390200000000  0.4967620000000  0.4469580000000 1.0
C      1  0.4525090000000  0.4750320000000  0.4614790000000 1.0
C      1  0.5391010000000  0.4553960000000  0.4759090000000 1.0
C      1  0.4609800000000  0.4469580000000  0.5032380000000 1.0
C      1  0.5474910000000  0.4614790000000  0.5249680000000 1.0
END
