TITL C-38186-4112-404 6.7506659402524e-07 125000 -368.167584991413 0 0 60 (Cs) n - 1
REM
REM in /home/bkarasulu/CARBON/AIRSS/Generating-Clusters/EDIP-Nigel-Params/Higher-Symm/Box-15A/Only-C60/SD-CG/FIRE-HFTN
REM
REM
REM
REM
REM
REM ./C.cell (414f73aa93bd7a1190c7fd0f31ff2f98)
REM
REM compiler GCC version 9.2.1 20190827 (Red Hat 9.2.1-1)
REM options -cpp -mtune=generic -march=x86-64 -g -O0 -fpre-include=/usr/include/finclude/math-vector-fortran.h
REM seed -1667318066 -498515798 -1505189403 -786993499 -806426461 390109662 755518492 -1861905991 368208693 -257817382 1005236292 1499537471 -1272051641 -398470211 -1264762159 270346134 -1974928921 -465115797 1781742368 -456684823 2100203908 -642028953 1599930120 2023310448 1237547684 1443335169 -944162448 -52097021 -1950514943 1064889661 -111287210 -373682046 399268569
REM
CELL 1.54180   50.00000   50.00000   50.00000   90.00000   90.00000   90.00000
LATT -1
SFAC C  
C      1  0.4433070000000  0.4996130000000  0.5460660000000 1.0
C      1  0.4378560000000  0.5018590000000  0.4599380000000 1.0
C      1  0.5190580000000  0.5013510000000  0.4296190000000 1.0
C      1  0.5736100000000  0.4991500000000  0.4957270000000 1.0
C      1  0.5262990000000  0.4981160000000  0.5687440000000 1.0
C      1  0.5570750000000  0.4991540000000  0.5466810000000 1.0
C      1  0.5616530000000  0.4981090000000  0.4597970000000 1.0
C      1  0.4811580000000  0.4996050000000  0.4294230000000 1.0
C      1  0.4261740000000  0.5018620000000  0.4959380000000 1.0
C      1  0.4741010000000  0.5013610000000  0.5681610000000 1.0
C      1  0.5648740000000  0.5220640000000  0.4780030000000 1.0
C      1  0.5395970000000  0.5220690000000  0.5558960000000 1.0
C      1  0.4580010000000  0.5240290000000  0.5562280000000 1.0
C      1  0.4310650000000  0.5255990000000  0.4776280000000 1.0
C      1  0.4990200000000  0.5240200000000  0.4298220000000 1.0
C      1  0.4350570000000  0.4784530000000  0.4789270000000 1.0
C      1  0.4605890000000  0.4770600000000  0.5563370000000 1.0
C      1  0.5425190000000  0.4749440000000  0.5577570000000 1.0
C      1  0.5683300000000  0.4749390000000  0.4782180000000 1.0
C      1  0.5011780000000  0.4770520000000  0.4312600000000 1.0
C      1  0.5179770000000  0.4799130000000  0.5214150000000 1.0
C      1  0.4883270000000  0.4808900000000  0.5215420000000 1.0
C      1  0.4792290000000  0.4823640000000  0.4932610000000 1.0
C      1  0.5032000000000  0.4808870000000  0.4757110000000 1.0
C      1  0.5271250000000  0.4799110000000  0.4932240000000 1.0
C      1  0.4819200000000  0.5194730000000  0.5192210000000 1.0
C      1  0.5116790000000  0.5183740000000  0.5193160000000 1.0
C      1  0.5207960000000  0.5183720000000  0.4912200000000 1.0
C      1  0.4966520000000  0.5194700000000  0.4738220000000 1.0
C      1  0.4727070000000  0.5203670000000  0.4911420000000 1.0
C      1  0.5445050000000  0.4568350000000  0.4865090000000 1.0
C      1  0.5281010000000  0.4568390000000  0.5370580000000 1.0
C      1  0.4754750000000  0.4592250000000  0.5364760000000 1.0
C      1  0.4594880000000  0.4613700000000  0.4868560000000 1.0
C      1  0.5015650000000  0.4592190000000  0.4560780000000 1.0
C      1  0.4551860000000  0.5437810000000  0.4854550000000 1.0
C      1  0.4721480000000  0.5419400000000  0.5356360000000 1.0
C      1  0.5244940000000  0.5393660000000  0.5353870000000 1.0
C      1  0.5406070000000  0.5393630000000  0.4857330000000 1.0
C      1  0.4983820000000  0.5419350000000  0.4547950000000 1.0
C      1  0.4754060000000  0.5809280000000  0.5080000000000 1.0
C      1  0.4847930000000  0.5809260000000  0.4790730000000 1.0
C      1  0.5151880000000  0.5795940000000  0.4790760000000 1.0
C      1  0.5245920000000  0.5788030000000  0.5079750000000 1.0
C      1  0.5000110000000  0.5795980000000  0.5258460000000 1.0
C      1  0.5246160000000  0.4188490000000  0.5079940000000 1.0
C      1  0.5151800000000  0.4195940000000  0.4790950000000 1.0
C      1  0.4847610000000  0.4209650000000  0.4791050000000 1.0
C      1  0.4753920000000  0.4209670000000  0.5079750000000 1.0
C      1  0.5000100000000  0.4195980000000  0.5258450000000 1.0
C      1  0.4990960000000  0.5555460000000  0.5435560000000 1.0
C      1  0.4568700000000  0.5580630000000  0.5133920000000 1.0
C      1  0.4729540000000  0.5580600000000  0.4638280000000 1.0
C      1  0.5248460000000  0.5555410000000  0.4642060000000 1.0
C      1  0.5406360000000  0.5541120000000  0.5131830000000 1.0
C      1  0.5010010000000  0.4429600000000  0.5444500000000 1.0
C      1  0.5431770000000  0.4415880000000  0.5140150000000 1.0
C      1  0.5269080000000  0.4429540000000  0.4646150000000 1.0
C      1  0.4751410000000  0.4455240000000  0.4650260000000 1.0
C      1  0.4593390000000  0.4455280000000  0.5137200000000 1.0
END
