TITL C-38185-7677-115 3.64881821354863e-06 125000 -346.981786837277 0 0 60 (C5) n - 1
REM
REM in /home/bkarasulu/CARBON/AIRSS/Generating-Clusters/EDIP-Nigel-Params/Higher-Symm/Box-15A/Only-C60/SD-CG/FIRE-HFTN
REM
REM
REM
REM
REM
REM ./C.cell (414f73aa93bd7a1190c7fd0f31ff2f98)
REM
REM compiler GCC version 9.2.1 20190827 (Red Hat 9.2.1-1)
REM options -cpp -mtune=generic -march=x86-64 -g -O0 -fpre-include=/usr/include/finclude/math-vector-fortran.h
REM seed 135974975 553941955 266345973 1701953611 -1364561598 -1185955866 -1386515073 302934091 -1660189062 1208824077 -1921456855 -651250294 -1653184301 -1802601766 -1223866679 1676463597 1202692746 945038362 -103836807 2067797670 -639543129 1958455190 1104002684 739706526 -1769755426 35318450 255900135 227917547 1869953261 -522977020 -488984919 -651246292 -1249568709
REM
CELL 1.54180   50.00000   50.00000   50.00000   90.00000   90.00000   90.00000
LATT -1
SFAC C  
C      1  0.5111590000000  0.5445310000000  0.4436340000000 1.0
C      1  0.5570560000000  0.5445310000000  0.4931940000000 1.0
C      1  0.5241040000000  0.5445310000000  0.5521600000000 1.0
C      1  0.4578410000000  0.5445310000000  0.5390420000000 1.0
C      1  0.4498410000000  0.5445310000000  0.4719690000000 1.0
C      1  0.4556650000000  0.4777540000000  0.4416410000000 1.0
C      1  0.5418030000000  0.4777540000000  0.4398010000000 1.0
C      1  0.5701700000000  0.4777540000000  0.5211540000000 1.0
C      1  0.5015650000000  0.4777540000000  0.5732730000000 1.0
C      1  0.4307970000000  0.4777540000000  0.5241310000000 1.0
C      1  0.5758740000000  0.5062640000000  0.4710860000000 1.0
C      1  0.5509460000000  0.5062640000000  0.5632260000000 1.0
C      1  0.4556120000000  0.5062640000000  0.5679900000000 1.0
C      1  0.4216210000000  0.5062640000000  0.4787940000000 1.0
C      1  0.4959470000000  0.5062640000000  0.4189040000000 1.0
C      1  0.4666790000000  0.5006610000000  0.5124650000000 1.0
C      1  0.4778480000000  0.5006610000000  0.4721610000000 1.0
C      1  0.5196310000000  0.5006610000000  0.4703300000000 1.0
C      1  0.5342840000000  0.5006610000000  0.5095020000000 1.0
C      1  0.5015580000000  0.5006610000000  0.5355420000000 1.0
C      1  0.4191720000000  0.4837770000000  0.4972630000000 1.0
C      1  0.4776260000000  0.4837770000000  0.4222820000000 1.0
C      1  0.5670000000000  0.4837770000000  0.4547050000000 1.0
C      1  0.5637820000000  0.4837770000000  0.5497240000000 1.0
C      1  0.4724200000000  0.4837770000000  0.5760260000000 1.0
C      1  0.5772340000000  0.5018850000000  0.5020500000000 1.0
C      1  0.5219170000000  0.5018850000000  0.5740870000000 1.0
C      1  0.4363120000000  0.5018850000000  0.5437380000000 1.0
C      1  0.4387210000000  0.5018850000000  0.4529450000000 1.0
C      1  0.5258160000000  0.5018850000000  0.4271800000000 1.0
C      1  0.4495520000000  0.5290340000000  0.4446960000000 1.0
C      1  0.5370080000000  0.5290340000000  0.4349310000000 1.0
C      1  0.5733200000000  0.5290340000000  0.5150890000000 1.0
C      1  0.5083060000000  0.5290340000000  0.5743950000000 1.0
C      1  0.4318130000000  0.5290340000000  0.5308890000000 1.0
C      1  0.5327120000000  0.4550360000000  0.4816160000000 1.0
C      1  0.5275920000000  0.4550360000000  0.5254300000000 1.0
C      1  0.4843410000000  0.4550360000000  0.5341000000000 1.0
C      1  0.4627300000000  0.4550360000000  0.4956450000000 1.0
C      1  0.4926250000000  0.4550360000000  0.4632080000000 1.0
C      1  0.4634600000000  0.4537270000000  0.4580350000000 1.0
C      1  0.5286200000000  0.4537270000000  0.4522800000000 1.0
C      1  0.5542280000000  0.4537270000000  0.5124730000000 1.0
C      1  0.5048950000000  0.4537270000000  0.5554280000000 1.0
C      1  0.4487970000000  0.4537270000000  0.5217840000000 1.0
C      1  0.5409590000000  0.4840280000000  0.4837380000000 1.0
C      1  0.5281240000000  0.4840280000000  0.5339290000000 1.0
C      1  0.4764220000000  0.4840280000000  0.5372320000000 1.0
C      1  0.4573050000000  0.4840280000000  0.4890810000000 1.0
C      1  0.4971910000000  0.4840280000000  0.4560200000000 1.0
C      1  0.4649770000000  0.5317530000000  0.5109600000000 1.0
C      1  0.4787540000000  0.5317530000000  0.4700780000000 1.0
C      1  0.5218930000000  0.5317530000000  0.4705470000000 1.0
C      1  0.5347760000000  0.5317530000000  0.5117200000000 1.0
C      1  0.4996000000000  0.5317530000000  0.5366960000000 1.0
C      1  0.5602880000000  0.5315490000000  0.4657280000000 1.0
C      1  0.5512240000000  0.5315490000000  0.5467470000000 1.0
C      1  0.4713700000000  0.5315490000000  0.5631630000000 1.0
C      1  0.4310820000000  0.5315490000000  0.4922900000000 1.0
C      1  0.4860360000000  0.5315490000000  0.4320720000000 1.0
END
