TITL C-38196-2854-660 2.1491522803077e-05 125000 -360.581331129027 0 0 60 (C1) n - 1
REM
REM in /home/bkarasulu/CARBON/AIRSS/Generating-Clusters/EDIP-Nigel-Params/Higher-Symm/Box-15A/Only-C60/SD-CG/FIRE-HFTN
REM
REM
REM
REM
REM
REM ./C.cell (414f73aa93bd7a1190c7fd0f31ff2f98)
REM
REM compiler GCC version 9.2.1 20190827 (Red Hat 9.2.1-1)
REM options -cpp -mtune=generic -march=x86-64 -g -O0 -fpre-include=/usr/include/finclude/math-vector-fortran.h
REM seed 550235478 -2039994415 -683195979 -1196979656 1979146721 -524382235 -1896128717 -252326642 -1869672665 -495111718 -191716643 1617931662 -133861693 916350759 -1781778922 975444973 635057520 1537704866 1237468017 1565876113 91568072 947616194 1708419149 2091934113 1878053672 1231267965 -1801469868 309381324 -540772014 1672571119 1896757961 -256849490 1192066326
REM
CELL 1.54180   50.00000   50.00000   50.00000   90.00000   90.00000   90.00000
LATT -1
SFAC C  
C      1  0.4521830000000  0.4758270000000  0.5606920000000 1.0
C      1  0.4593260000000  0.5276570000000  0.5592060000000 1.0
C      1  0.4959210000000  0.5576200000000  0.5630650000000 1.0
C      1  0.5415120000000  0.5447000000000  0.5578950000000 1.0
C      1  0.5505450000000  0.4995230000000  0.5561240000000 1.0
C      1  0.5279870000000  0.4544270000000  0.5572960000000 1.0
C      1  0.4835190000000  0.4403350000000  0.5611780000000 1.0
C      1  0.4973310000000  0.5287450000000  0.4957960000000 1.0
C      1  0.5216060000000  0.5250230000000  0.4843620000000 1.0
C      1  0.5319710000000  0.4982250000000  0.4833070000000 1.0
C      1  0.5167210000000  0.4713900000000  0.4835840000000 1.0
C      1  0.4880380000000  0.4670760000000  0.4856450000000 1.0
C      1  0.4717940000000  0.4867690000000  0.4984790000000 1.0
C      1  0.4748330000000  0.5140730000000  0.4898040000000 1.0
C      1  0.5542760000000  0.4984760000000  0.5055340000000 1.0
C      1  0.5292220000000  0.4512640000000  0.5055060000000 1.0
C      1  0.4819180000000  0.4408600000000  0.5012830000000 1.0
C      1  0.4432170000000  0.4773360000000  0.4981520000000 1.0
C      1  0.4530230000000  0.5297750000000  0.5008870000000 1.0
C      1  0.4927170000000  0.5578940000000  0.4998790000000 1.0
C      1  0.5399090000000  0.5442810000000  0.5007380000000 1.0
C      1  0.5364650000000  0.5057350000000  0.5309650000000 1.0
C      1  0.5149380000000  0.4613630000000  0.5315200000000 1.0
C      1  0.4854300000000  0.4511030000000  0.5327320000000 1.0
C      1  0.4672910000000  0.4760590000000  0.5351930000000 1.0
C      1  0.4739450000000  0.5253940000000  0.5329970000000 1.0
C      1  0.4979250000000  0.5466560000000  0.5357710000000 1.0
C      1  0.5294240000000  0.5363740000000  0.5313330000000 1.0
C      1  0.4582450000000  0.4498010000000  0.4579070000000 1.0
C      1  0.4444270000000  0.5003100000000  0.4546360000000 1.0
C      1  0.4653920000000  0.5564710000000  0.4600270000000 1.0
C      1  0.5185480000000  0.5587760000000  0.4561010000000 1.0
C      1  0.5612860000000  0.5236200000000  0.4620150000000 1.0
C      1  0.5568550000000  0.4662720000000  0.4658530000000 1.0
C      1  0.5106420000000  0.4324490000000  0.4631740000000 1.0
C      1  0.5096080000000  0.4288290000000  0.4927790000000 1.0
C      1  0.4476040000000  0.4499620000000  0.4853320000000 1.0
C      1  0.4335480000000  0.5014980000000  0.4820770000000 1.0
C      1  0.4636670000000  0.5570850000000  0.4892820000000 1.0
C      1  0.5163870000000  0.5689030000000  0.4838070000000 1.0
C      1  0.5649820000000  0.5265320000000  0.4920690000000 1.0
C      1  0.5578990000000  0.4660600000000  0.4968760000000 1.0
C      1  0.4739440000000  0.5453940000000  0.5754670000000 1.0
C      1  0.5218270000000  0.5572260000000  0.5734960000000 1.0
C      1  0.5546360000000  0.5231810000000  0.5702520000000 1.0
C      1  0.5435850000000  0.4751120000000  0.5676350000000 1.0
C      1  0.5090700000000  0.4408920000000  0.5728220000000 1.0
C      1  0.4633050000000  0.4543360000000  0.5749620000000 1.0
C      1  0.4514530000000  0.5025710000000  0.5695930000000 1.0
C      1  0.4553320000000  0.5244570000000  0.4419380000000 1.0
C      1  0.4905800000000  0.5515320000000  0.4449180000000 1.0
C      1  0.5428850000000  0.5433970000000  0.4508000000000 1.0
C      1  0.5571450000000  0.4946480000000  0.4546090000000 1.0
C      1  0.5325600000000  0.4513520000000  0.4550170000000 1.0
C      1  0.4837600000000  0.4371950000000  0.4537310000000 1.0
C      1  0.4539300000000  0.4751010000000  0.4462970000000 1.0
C      1  0.4860290000000  0.4986320000000  0.5382360000000 1.0
C      1  0.5118380000000  0.4902070000000  0.5291970000000 1.0
C      1  0.4864390000000  0.5238940000000  0.4044890000000 1.0
C      1  0.4818930000000  0.5277210000000  0.4302800000000 1.0
END
