TITL C-38195-9455-97 4.40396670535964e-06 125000 -366.304853702976 0 0 60 (C3) n - 1
REM
REM in /home/bkarasulu/CARBON/AIRSS/Generating-Clusters/EDIP-Nigel-Params/Higher-Symm/Box-15A/Only-C60/SD-CG/FIRE-HFTN
REM
REM
REM
REM
REM
REM ./C.cell (414f73aa93bd7a1190c7fd0f31ff2f98)
REM
REM compiler GCC version 9.2.1 20190827 (Red Hat 9.2.1-1)
REM options -cpp -mtune=generic -march=x86-64 -g -O0 -fpre-include=/usr/include/finclude/math-vector-fortran.h
REM seed 2019745374 -270585241 1697541343 269316841 -962020692 1288330376 -404710347 2066558399 808565115 1717051330 1087460815 1631724848 -1389535372 -931089651 -903688456 1389659325 -1565603286 -419145140 675590768 1660119238 -948140335 -1241169526 1144379677 -2007421380 563550926 1273398345 -1470925706 -1390595788 1735136743 -2082264120 -1868558884 164847184 1217085716
REM
CELL 1.54180   50.00000   50.00000   50.00000   90.00000   90.00000   90.00000
LATT -1
SFAC C  
C      1  0.5100220000000  0.4784250000000  0.5185570000000 1.0
C      1  0.5100220000000  0.4947170000000  0.4720380000000 1.0
C      1  0.5100220000000  0.5268580000000  0.5094060000000 1.0
C      1  0.4842690000000  0.4640170000000  0.5666840000000 1.0
C      1  0.4842690000000  0.4602410000000  0.4354960000000 1.0
C      1  0.4842690000000  0.5757410000000  0.4978200000000 1.0
C      1  0.5491740000000  0.4670290000000  0.4851200000000 1.0
C      1  0.5491740000000  0.5293720000000  0.4788860000000 1.0
C      1  0.5491740000000  0.5035990000000  0.5359940000000 1.0
C      1  0.4808300000000  0.5083830000000  0.4402540000000 1.0
C      1  0.4808300000000  0.5475500000000  0.5371330000000 1.0
C      1  0.4808300000000  0.4440670000000  0.5226130000000 1.0
C      1  0.4528760000000  0.4517140000000  0.5203330000000 1.0
C      1  0.4528760000000  0.5065340000000  0.4480170000000 1.0
C      1  0.4528760000000  0.5417520000000  0.5316500000000 1.0
C      1  0.4947910000000  0.4852890000000  0.4287820000000 1.0
C      1  0.4947910000000  0.5690320000000  0.5228680000000 1.0
C      1  0.4947910000000  0.4456790000000  0.5483500000000 1.0
C      1  0.4532310000000  0.4956970000000  0.5497280000000 1.0
C      1  0.4532310000000  0.4590860000000  0.4714090000000 1.0
C      1  0.4532310000000  0.5452170000000  0.4788630000000 1.0
C      1  0.4907140000000  0.4231040000000  0.5044240000000 1.0
C      1  0.4907140000000  0.5346170000000  0.4311940000000 1.0
C      1  0.4907140000000  0.5422800000000  0.5643820000000 1.0
C      1  0.4435680000000  0.5313270000000  0.4566660000000 1.0
C      1  0.4435680000000  0.5218640000000  0.5487970000000 1.0
C      1  0.4435680000000  0.4468080000000  0.4945370000000 1.0
C      1  0.5209520000000  0.4742120000000  0.4902760000000 1.0
C      1  0.5209520000000  0.5213150000000  0.4825290000000 1.0
C      1  0.5209520000000  0.5044730000000  0.5271950000000 1.0
C      1  0.4442120000000  0.4854080000000  0.4653910000000 1.0
C      1  0.4442120000000  0.5372690000000  0.5046680000000 1.0
C      1  0.4442120000000  0.4773230000000  0.5299420000000 1.0
C      1  0.4920750000000  0.5128140000000  0.5765680000000 1.0
C      1  0.4920750000000  0.4272830000000  0.4728140000000 1.0
C      1  0.4920750000000  0.5599030000000  0.4506190000000 1.0
C      1  0.5386780000000  0.5102270000000  0.4350270000000 1.0
C      1  0.5386780000000  0.5511550000000  0.5413430000000 1.0
C      1  0.5386780000000  0.4386180000000  0.5236290000000 1.0
C      1  0.4782050000000  0.4909090000000  0.5625960000000 1.0
C      1  0.4782050000000  0.4503360000000  0.4608290000000 1.0
C      1  0.4782050000000  0.5587550000000  0.4765760000000 1.0
C      1  0.4783400000000  0.5190420000000  0.5041650000000 1.0
C      1  0.4783400000000  0.4868710000000  0.5144090000000 1.0
C      1  0.4783400000000  0.4940860000000  0.4814260000000 1.0
C      1  0.5638050000000  0.4806300000000  0.5275460000000 1.0
C      1  0.5638050000000  0.4858300000000  0.4694520000000 1.0
C      1  0.5638050000000  0.5335400000000  0.5030020000000 1.0
C      1  0.5216210000000  0.4226820000000  0.4734380000000 1.0
C      1  0.5216210000000  0.5616620000000  0.4463210000000 1.0
C      1  0.5216210000000  0.5156560000000  0.5802400000000 1.0
C      1  0.5600430000000  0.4575210000000  0.5111940000000 1.0
C      1  0.5600430000000  0.5115450000000  0.4576150000000 1.0
C      1  0.5600430000000  0.5309340000000  0.5311910000000 1.0
C      1  0.5225800000000  0.5372650000000  0.4286730000000 1.0
C      1  0.5225800000000  0.5431380000000  0.5679360000000 1.0
C      1  0.5225800000000  0.4195970000000  0.5033910000000 1.0
C      1  0.5200130000000  0.5552090000000  0.5177370000000 1.0
C      1  0.5200130000000  0.4570350000000  0.5389440000000 1.0
C      1  0.5200130000000  0.4877560000000  0.4433190000000 1.0
END
