TITL C-38196-2854-422 7.20003288146133e-06 125000 -364.804611760248 0 0 60 (C1) n - 1
REM
REM in /home/bkarasulu/CARBON/AIRSS/Generating-Clusters/EDIP-Nigel-Params/Higher-Symm/Box-15A/Only-C60/SD-CG/FIRE-HFTN
REM
REM
REM
REM
REM
REM ./C.cell (414f73aa93bd7a1190c7fd0f31ff2f98)
REM
REM compiler GCC version 9.2.1 20190827 (Red Hat 9.2.1-1)
REM options -cpp -mtune=generic -march=x86-64 -g -O0 -fpre-include=/usr/include/finclude/math-vector-fortran.h
REM seed 254724583 2067541190 -474689001 1259685055 1283738527 1152854698 819544314 -1929964401 295395523 269009106 391791698 5790269 131921328 1524160615 -1746706399 -1630155028 -1409748675 2070697341 -2115533817 -1412813269 -1478506255 -529820511 858757073 -254448924 1532893710 1628023032 -738495417 -2074340779 2112352457 230890039 795333734 -1235064088 -750249472
REM
CELL 1.54180   50.00000   50.00000   50.00000   90.00000   90.00000   90.00000
LATT -1
SFAC C  
C      1  0.5554910000000  0.5449930000000  0.5296980000000 1.0
C      1  0.5549750000000  0.5426250000000  0.4694680000000 1.0
C      1  0.5553020000000  0.4809040000000  0.4493970000000 1.0
C      1  0.5551320000000  0.4480370000000  0.5008810000000 1.0
C      1  0.5542230000000  0.4832180000000  0.5485810000000 1.0
C      1  0.4444780000000  0.5431020000000  0.5311300000000 1.0
C      1  0.4453420000000  0.5405670000000  0.4676470000000 1.0
C      1  0.4442560000000  0.4825500000000  0.4493000000000 1.0
C      1  0.4446930000000  0.4474730000000  0.5011750000000 1.0
C      1  0.4450490000000  0.4846140000000  0.5495890000000 1.0
C      1  0.5139330000000  0.4590150000000  0.5565500000000 1.0
C      1  0.5155300000000  0.5465410000000  0.5561670000000 1.0
C      1  0.5139130000000  0.5662850000000  0.4786160000000 1.0
C      1  0.5151440000000  0.4951190000000  0.4273530000000 1.0
C      1  0.5144200000000  0.4343350000000  0.4788800000000 1.0
C      1  0.4844160000000  0.4607840000000  0.5618240000000 1.0
C      1  0.4857120000000  0.5413650000000  0.5566070000000 1.0
C      1  0.4848360000000  0.5673660000000  0.4727640000000 1.0
C      1  0.4855030000000  0.4996960000000  0.4310330000000 1.0
C      1  0.4854240000000  0.4289840000000  0.4822410000000 1.0
C      1  0.4335410000000  0.4911650000000  0.4753550000000 1.0
C      1  0.4318130000000  0.4730140000000  0.5005270000000 1.0
C      1  0.4330960000000  0.4917390000000  0.5244640000000 1.0
C      1  0.4348730000000  0.5207100000000  0.5141290000000 1.0
C      1  0.4327330000000  0.5207950000000  0.4833970000000 1.0
C      1  0.5653590000000  0.4915060000000  0.4752470000000 1.0
C      1  0.5678560000000  0.4735420000000  0.5002630000000 1.0
C      1  0.5666610000000  0.4918530000000  0.5243000000000 1.0
C      1  0.5649200000000  0.5213340000000  0.5144030000000 1.0
C      1  0.5676400000000  0.5216560000000  0.4837940000000 1.0
C      1  0.4739670000000  0.4788850000000  0.5127140000000 1.0
C      1  0.4752710000000  0.5054870000000  0.5244690000000 1.0
C      1  0.4720980000000  0.5249920000000  0.5024000000000 1.0
C      1  0.4813760000000  0.5092560000000  0.4797160000000 1.0
C      1  0.4710550000000  0.4824120000000  0.4832410000000 1.0
C      1  0.5256760000000  0.4790380000000  0.5129100000000 1.0
C      1  0.5244930000000  0.5056430000000  0.5242190000000 1.0
C      1  0.5278240000000  0.5252400000000  0.5022570000000 1.0
C      1  0.5254130000000  0.5103670000000  0.4768590000000 1.0
C      1  0.5281620000000  0.4816660000000  0.4834920000000 1.0
C      1  0.5297650000000  0.4728240000000  0.4395730000000 1.0
C      1  0.5298590000000  0.4354770000000  0.5047140000000 1.0
C      1  0.5295340000000  0.4839100000000  0.5628660000000 1.0
C      1  0.5301630000000  0.5576130000000  0.5332700000000 1.0
C      1  0.5299220000000  0.5506270000000  0.4585970000000 1.0
C      1  0.4700630000000  0.4753830000000  0.4394300000000 1.0
C      1  0.4698420000000  0.4350210000000  0.5058730000000 1.0
C      1  0.4695270000000  0.4858720000000  0.5641640000000 1.0
C      1  0.4700130000000  0.5553870000000  0.5351830000000 1.0
C      1  0.4702610000000  0.5480650000000  0.4567040000000 1.0
C      1  0.4838830000000  0.4538540000000  0.5247580000000 1.0
C      1  0.4844630000000  0.5099160000000  0.5521660000000 1.0
C      1  0.4840070000000  0.5520690000000  0.5081490000000 1.0
C      1  0.4856180000000  0.5219290000000  0.4536690000000 1.0
C      1  0.4837210000000  0.4627840000000  0.4637610000000 1.0
C      1  0.5152550000000  0.4539360000000  0.5249320000000 1.0
C      1  0.5157290000000  0.5092250000000  0.5521980000000 1.0
C      1  0.5152830000000  0.5525170000000  0.5067780000000 1.0
C      1  0.5164050000000  0.5236700000000  0.4517770000000 1.0
C      1  0.5150830000000  0.4620450000000  0.4643790000000 1.0
END
