TITL C-38187-2739-380 3.60014910230069e-05 125000 -372.575088180396 0 0 60 (C1) n - 1
REM
REM in /home/bkarasulu/CARBON/AIRSS/Generating-Clusters/EDIP-Nigel-Params/Higher-Symm/Box-15A/Only-C60/SD-CG/FIRE-HFTN
REM
REM
REM
REM
REM
REM ./C.cell (414f73aa93bd7a1190c7fd0f31ff2f98)
REM
REM compiler GCC version 9.2.1 20190827 (Red Hat 9.2.1-1)
REM options -cpp -mtune=generic -march=x86-64 -g -O0 -fpre-include=/usr/include/finclude/math-vector-fortran.h
REM seed -1462281273 1842837579 974090609 -1317943234 -1267244780 135458711 1054566774 -95239769 -812414077 1835570743 -739434196 853185544 816495290 -796401681 741580816 -1131877992 -171538927 -621986172 486062925 820255027 -2028568136 957054645 1825154538 -1680453964 270084321 1065509797 -1533918426 109159081 -546978331 -588955565 1772508380 -829566926 -1017840199
REM
CELL 1.54180   50.00000   50.00000   50.00000   90.00000   90.00000   90.00000
LATT -1
SFAC C  
C      1  0.5169090000000  0.5393810000000  0.5264320000000 1.0
C      1  0.5555580000000  0.5202080000000  0.5187280000000 1.0
C      1  0.5288750000000  0.5242270000000  0.5602940000000 1.0
C      1  0.4745160000000  0.5575290000000  0.4669560000000 1.0
C      1  0.4795720000000  0.4399730000000  0.5289970000000 1.0
C      1  0.5277140000000  0.4365810000000  0.4716300000000 1.0
C      1  0.4529340000000  0.5393100000000  0.4773600000000 1.0
C      1  0.4643540000000  0.4752770000000  0.5235050000000 1.0
C      1  0.5594270000000  0.4722680000000  0.4789350000000 1.0
C      1  0.4701720000000  0.5243170000000  0.4327990000000 1.0
C      1  0.4701300000000  0.4767220000000  0.5667610000000 1.0
C      1  0.5263840000000  0.4769460000000  0.4448580000000 1.0
C      1  0.5277940000000  0.4406340000000  0.5324630000000 1.0
C      1  0.5473720000000  0.4636090000000  0.5229760000000 1.0
C      1  0.5300370000000  0.4758930000000  0.5671750000000 1.0
C      1  0.4829080000000  0.4609820000000  0.4733720000000 1.0
C      1  0.4705720000000  0.5631190000000  0.5279890000000 1.0
C      1  0.5216980000000  0.5603430000000  0.4706400000000 1.0
C      1  0.4444990000000  0.4804690000000  0.4815310000000 1.0
C      1  0.4401360000000  0.5263820000000  0.5216120000000 1.0
C      1  0.5364540000000  0.5249050000000  0.4763590000000 1.0
C      1  0.4706340000000  0.4763110000000  0.4397070000000 1.0
C      1  0.4733670000000  0.5227190000000  0.5553190000000 1.0
C      1  0.5308370000000  0.5227340000000  0.4330950000000 1.0
C      1  0.5474120000000  0.5523530000000  0.4860750000000 1.0
C      1  0.5531300000000  0.4812580000000  0.5490380000000 1.0
C      1  0.4813460000000  0.5509180000000  0.5541250000000 1.0
C      1  0.4413040000000  0.5563390000000  0.5196900000000 1.0
C      1  0.4542990000000  0.4519710000000  0.4845650000000 1.0
C      1  0.5597070000000  0.4388210000000  0.5103600000000 1.0
C      1  0.4457530000000  0.4894810000000  0.4536130000000 1.0
C      1  0.4463690000000  0.5153930000000  0.5483500000000 1.0
C      1  0.5531020000000  0.5138940000000  0.4523340000000 1.0
C      1  0.5151120000000  0.5462640000000  0.4441300000000 1.0
C      1  0.5159200000000  0.4515220000000  0.5585450000000 1.0
C      1  0.4878500000000  0.4483890000000  0.4456600000000 1.0
C      1  0.5566550000000  0.4421790000000  0.4808650000000 1.0
C      1  0.5540570000000  0.5116080000000  0.5468060000000 1.0
C      1  0.4866140000000  0.4539700000000  0.5551620000000 1.0
C      1  0.4535160000000  0.4478430000000  0.5138260000000 1.0
C      1  0.4348530000000  0.5584480000000  0.4913770000000 1.0
C      1  0.5458530000000  0.5486540000000  0.5154000000000 1.0
C      1  0.4469100000000  0.5199770000000  0.4515460000000 1.0
C      1  0.4475930000000  0.4853330000000  0.5478580000000 1.0
C      1  0.5535430000000  0.4836700000000  0.4521530000000 1.0
C      1  0.5179150000000  0.4489350000000  0.4454350000000 1.0
C      1  0.5113920000000  0.5519350000000  0.5539040000000 1.0
C      1  0.4856220000000  0.5480290000000  0.4413040000000 1.0
C      1  0.4896540000000  0.5459340000000  0.5102730000000 1.0
C      1  0.5350100000000  0.5078490000000  0.5015060000000 1.0
C      1  0.5140120000000  0.5004390000000  0.5687650000000 1.0
C      1  0.4959760000000  0.5621250000000  0.4859400000000 1.0
C      1  0.5049740000000  0.4382120000000  0.5137010000000 1.0
C      1  0.5102580000000  0.4545980000000  0.4895650000000 1.0
C      1  0.4640230000000  0.5225860000000  0.5018790000000 1.0
C      1  0.4654370000000  0.4927490000000  0.4982700000000 1.0
C      1  0.5360010000000  0.4780710000000  0.4980740000000 1.0
C      1  0.4858290000000  0.4995580000000  0.4301840000000 1.0
C      1  0.4854220000000  0.5018510000000  0.5713650000000 1.0
C      1  0.5147200000000  0.4980070000000  0.4288670000000 1.0
END
