TITL C-38191-7580-136 -1.00801197542385e-05 125000 -357.552446668622 0 0 60 (C1) n - 1
REM
REM in /home/bkarasulu/CARBON/AIRSS/Generating-Clusters/EDIP-Nigel-Params/Higher-Symm/Box-15A/Only-C60/SD-CG/FIRE-HFTN
REM
REM
REM
REM
REM
REM ./C.cell (414f73aa93bd7a1190c7fd0f31ff2f98)
REM
REM compiler GCC version 9.2.1 20190827 (Red Hat 9.2.1-1)
REM options -cpp -mtune=generic -march=x86-64 -g -O0 -fpre-include=/usr/include/finclude/math-vector-fortran.h
REM seed 1087888300 1771864691 1985559480 277346558 1595426414 -1775065504 1909633101 318960219 896412697 2041741958 811794378 1037558322 -415289580 1535633480 -320301973 -1531029519 -206829863 -948918210 989618361 -1628726457 1103821511 -928770572 -1685934632 -1379560565 562164135 -1389085378 2089082633 1139573310 359043514 -544778796 1330829932 -1404803641 1400446766
REM
CELL 1.54180   50.00000   50.00000   50.00000   90.00000   90.00000   90.00000
LATT -1
SFAC C  
C      1  0.5087780000000  0.5753500000000  0.5313120000000 1.0
C      1  0.5650400000000  0.5267300000000  0.5195400000000 1.0
C      1  0.5423800000000  0.5058630000000  0.5687670000000 1.0
C      1  0.4828980000000  0.5735940000000  0.4917740000000 1.0
C      1  0.4702070000000  0.4317580000000  0.5156960000000 1.0
C      1  0.5003790000000  0.4243370000000  0.4814220000000 1.0
C      1  0.4293180000000  0.5175660000000  0.4776870000000 1.0
C      1  0.4216180000000  0.4775250000000  0.5098950000000 1.0
C      1  0.5767660000000  0.4981050000000  0.4881740000000 1.0
C      1  0.4822910000000  0.5044930000000  0.4239360000000 1.0
C      1  0.4983040000000  0.4872840000000  0.5721710000000 1.0
C      1  0.5200130000000  0.4814920000000  0.4240370000000 1.0
C      1  0.4890740000000  0.5143740000000  0.5702690000000 1.0
C      1  0.5094920000000  0.5756150000000  0.4819300000000 1.0
C      1  0.5792610000000  0.4903430000000  0.5179990000000 1.0
C      1  0.5205700000000  0.5111870000000  0.4235110000000 1.0
C      1  0.5272470000000  0.4818620000000  0.5659690000000 1.0
C      1  0.4909690000000  0.4764030000000  0.4221310000000 1.0
C      1  0.4822680000000  0.5702940000000  0.5218530000000 1.0
C      1  0.4756110000000  0.4381960000000  0.4867050000000 1.0
C      1  0.4997360000000  0.4220500000000  0.5202800000000 1.0
C      1  0.4324250000000  0.4885550000000  0.4858980000000 1.0
C      1  0.4269340000000  0.5357400000000  0.5011150000000 1.0
C      1  0.5632200000000  0.5251890000000  0.4890940000000 1.0
C      1  0.4794110000000  0.4585960000000  0.4412250000000 1.0
C      1  0.4636610000000  0.4529230000000  0.4638430000000 1.0
C      1  0.4416770000000  0.4693840000000  0.4678350000000 1.0
C      1  0.5343210000000  0.4645180000000  0.5425040000000 1.0
C      1  0.5393430000000  0.5241650000000  0.4424260000000 1.0
C      1  0.4762590000000  0.5355350000000  0.5586440000000 1.0
C      1  0.5205550000000  0.4376910000000  0.5383610000000 1.0
C      1  0.5306120000000  0.5599100000000  0.4750070000000 1.0
C      1  0.4660830000000  0.5484730000000  0.5355330000000 1.0
C      1  0.5606880000000  0.4701970000000  0.5300930000000 1.0
C      1  0.5431420000000  0.5354860000000  0.4692930000000 1.0
C      1  0.4391490000000  0.5415250000000  0.5267050000000 1.0
C      1  0.5057900000000  0.5307160000000  0.5118690000000 1.0
C      1  0.5388790000000  0.4981360000000  0.5143800000000 1.0
C      1  0.5143640000000  0.5081810000000  0.5286340000000 1.0
C      1  0.4829520000000  0.5277740000000  0.4917350000000 1.0
C      1  0.5037560000000  0.4597660000000  0.5124500000000 1.0
C      1  0.5202750000000  0.4631200000000  0.4890700000000 1.0
C      1  0.4602630000000  0.5161670000000  0.5067040000000 1.0
C      1  0.4663100000000  0.4902830000000  0.5173550000000 1.0
C      1  0.5336400000000  0.4876540000000  0.4864130000000 1.0
C      1  0.4903100000000  0.5089060000000  0.4705410000000 1.0
C      1  0.4919870000000  0.4829210000000  0.5285040000000 1.0
C      1  0.5178950000000  0.5000270000000  0.4638690000000 1.0
C      1  0.5281480000000  0.5235020000000  0.5516080000000 1.0
C      1  0.5234260000000  0.5543960000000  0.5181920000000 1.0
C      1  0.5449700000000  0.5427290000000  0.5357020000000 1.0
C      1  0.4708160000000  0.5102110000000  0.4497760000000 1.0
C      1  0.4835530000000  0.4701720000000  0.5543910000000 1.0
C      1  0.5332420000000  0.4679070000000  0.4470040000000 1.0
C      1  0.4702910000000  0.5514310000000  0.4787940000000 1.0
C      1  0.4569540000000  0.4494020000000  0.5350910000000 1.0
C      1  0.5199780000000  0.4419280000000  0.4694200000000 1.0
C      1  0.4486490000000  0.5276630000000  0.4573460000000 1.0
C      1  0.4447930000000  0.4742030000000  0.5259670000000 1.0
C      1  0.5590580000000  0.4804960000000  0.4725540000000 1.0
END
