TITL C-38189-4514-535 -4.17565865538947e-06 125000 -361.426754796869 0 0 60 (C1) n - 1
REM
REM in /home/bkarasulu/CARBON/AIRSS/Generating-Clusters/EDIP-Nigel-Params/Higher-Symm/Box-15A/Only-C60/SD-CG/FIRE-HFTN
REM
REM
REM
REM
REM
REM ./C.cell (414f73aa93bd7a1190c7fd0f31ff2f98)
REM
REM compiler GCC version 9.2.1 20190827 (Red Hat 9.2.1-1)
REM options -cpp -mtune=generic -march=x86-64 -g -O0 -fpre-include=/usr/include/finclude/math-vector-fortran.h
REM seed 397913263 1825722760 1676748888 931229269 851461214 1933832420 2133567979 -1455771044 -460713063 2144945045 612624994 1079547261 1610940545 -1004662443 -657204458 -1062482474 1584539806 801230408 1103500360 -669725736 -145353089 1137927229 930261880 490021905 1520013324 -2050208255 1778123888 1867019994 -2010214709 -1102180494 22820933 490683567 222315496
REM
CELL 1.54180   50.00000   50.00000   50.00000   90.00000   90.00000   90.00000
LATT -1
SFAC C  
C      1  0.5056680000000  0.5553160000000  0.4479550000000 1.0
C      1  0.5473140000000  0.5327710000000  0.4474220000000 1.0
C      1  0.5496970000000  0.4847210000000  0.4447050000000 1.0
C      1  0.5170990000000  0.4481940000000  0.4468260000000 1.0
C      1  0.4691240000000  0.4510620000000  0.4481240000000 1.0
C      1  0.4432420000000  0.4918870000000  0.4512860000000 1.0
C      1  0.4606030000000  0.5368120000000  0.4467380000000 1.0
C      1  0.5339250000000  0.4990620000000  0.5040130000000 1.0
C      1  0.5201700000000  0.4805790000000  0.4845640000000 1.0
C      1  0.5017470000000  0.4647760000000  0.5020410000000 1.0
C      1  0.4762130000000  0.4801180000000  0.5030570000000 1.0
C      1  0.4800130000000  0.5042020000000  0.4862880000000 1.0
C      1  0.4869260000000  0.5275030000000  0.5027110000000 1.0
C      1  0.5166100000000  0.5252060000000  0.5089770000000 1.0
C      1  0.4319870000000  0.5530360000000  0.5126340000000 1.0
C      1  0.4971430000000  0.5798150000000  0.5230720000000 1.0
C      1  0.5605550000000  0.5457560000000  0.5278920000000 1.0
C      1  0.5852000000000  0.4775600000000  0.5153360000000 1.0
C      1  0.5389370000000  0.4220820000000  0.5143640000000 1.0
C      1  0.4693210000000  0.4358650000000  0.5287990000000 1.0
C      1  0.4155660000000  0.4831570000000  0.5164860000000 1.0
C      1  0.5652000000000  0.5092730000000  0.4835660000000 1.0
C      1  0.5492430000000  0.4552240000000  0.4806440000000 1.0
C      1  0.4931220000000  0.4308910000000  0.4856670000000 1.0
C      1  0.4474120000000  0.4598500000000  0.4876330000000 1.0
C      1  0.4222830000000  0.5283440000000  0.4734130000000 1.0
C      1  0.4778200000000  0.5599260000000  0.4842770000000 1.0
C      1  0.5328960000000  0.5537600000000  0.4884360000000 1.0
C      1  0.4479670000000  0.4654510000000  0.4594770000000 1.0
C      1  0.4394280000000  0.5196000000000  0.4531930000000 1.0
C      1  0.4790500000000  0.5557030000000  0.4560870000000 1.0
C      1  0.5308380000000  0.5516810000000  0.4594940000000 1.0
C      1  0.5590480000000  0.5089090000000  0.4554880000000 1.0
C      1  0.5420600000000  0.4591620000000  0.4534200000000 1.0
C      1  0.4927770000000  0.4392430000000  0.4576370000000 1.0
C      1  0.4312830000000  0.5062130000000  0.5148150000000 1.0
C      1  0.4561610000000  0.5582310000000  0.5254180000000 1.0
C      1  0.5162030000000  0.5621500000000  0.5336690000000 1.0
C      1  0.5649430000000  0.5184930000000  0.5318360000000 1.0
C      1  0.5658740000000  0.4595780000000  0.5244770000000 1.0
C      1  0.5161550000000  0.4298960000000  0.5286970000000 1.0
C      1  0.4539040000000  0.4586760000000  0.5346540000000 1.0
C      1  0.4334910000000  0.4617530000000  0.5131870000000 1.0
C      1  0.4214090000000  0.5299960000000  0.5013050000000 1.0
C      1  0.4736430000000  0.5749610000000  0.5088910000000 1.0
C      1  0.5403870000000  0.5610440000000  0.5162260000000 1.0
C      1  0.5775010000000  0.5039160000000  0.5093420000000 1.0
C      1  0.5576880000000  0.4401100000000  0.5038920000000 1.0
C      1  0.4906850000000  0.4240040000000  0.5146260000000 1.0
C      1  0.5137160000000  0.4601970000000  0.5304320000000 1.0
C      1  0.4702310000000  0.4858330000000  0.5331690000000 1.0
C      1  0.4531450000000  0.5096930000000  0.5338590000000 1.0
C      1  0.4720320000000  0.5326520000000  0.5294530000000 1.0
C      1  0.5042060000000  0.5376870000000  0.5474390000000 1.0
C      1  0.5447680000000  0.5024840000000  0.5465680000000 1.0
C      1  0.5412160000000  0.4746900000000  0.5332370000000 1.0
C      1  0.5020980000000  0.4982930000000  0.4679070000000 1.0
C      1  0.4957340000000  0.4915840000000  0.4429410000000 1.0
C      1  0.5033300000000  0.4976940000000  0.5323270000000 1.0
C      1  0.5219180000000  0.5167480000000  0.5593200000000 1.0
END
