TITL C-38197-8510-611 3.57540718566361e-06 125000 -360.459392592741 0 0 60 (Cs) n - 1
REM
REM in /home/bkarasulu/CARBON/AIRSS/Generating-Clusters/EDIP-Nigel-Params/Higher-Symm/Box-15A/Only-C60/SD-CG/FIRE-HFTN
REM
REM
REM
REM
REM
REM ./C.cell (414f73aa93bd7a1190c7fd0f31ff2f98)
REM
REM compiler GCC version 9.2.1 20190827 (Red Hat 9.2.1-1)
REM options -cpp -mtune=generic -march=x86-64 -g -O0 -fpre-include=/usr/include/finclude/math-vector-fortran.h
REM seed -1266245311 357756532 -1675893210 -365517705 1924717471 -240533360 472541166 745079562 60440178 -788992385 1406322450 121615557 1753568782 -523601217 -1336026517 -1749156557 -1487165076 695015421 -763457657 1348030493 -1467101863 -1142032655 -1564913863 -1275795255 -1586000288 1842040626 2040428634 107940108 1315629341 -123488986 1863517150 1124544263 -1835011705
REM
CELL 1.54180   50.00000   50.00000   50.00000   90.00000   90.00000   90.00000
LATT -1
SFAC C  
C      1  0.4586030000000  0.5367420000000  0.5461780000000 1.0
C      1  0.4586030000000  0.5367420000000  0.4538220000000 1.0
C      1  0.4457420000000  0.4418770000000  0.4845770000000 1.0
C      1  0.4457420000000  0.4418770000000  0.5154230000000 1.0
C      1  0.4856620000000  0.4757710000000  0.4859760000000 1.0
C      1  0.4856620000000  0.4757710000000  0.5140240000000 1.0
C      1  0.5275350000000  0.5217130000000  0.5156900000000 1.0
C      1  0.5275350000000  0.5217130000000  0.4843100000000 1.0
C      1  0.5186400000000  0.5617360000000  0.5283830000000 1.0
C      1  0.5186400000000  0.5617360000000  0.4716170000000 1.0
C      1  0.4282030000000  0.4907530000000  0.4858410000000 1.0
C      1  0.4282030000000  0.4907530000000  0.5141590000000 1.0
C      1  0.5555100000000  0.5301810000000  0.5409820000000 1.0
C      1  0.5555100000000  0.5301810000000  0.4590180000000 1.0
C      1  0.5222590000000  0.4448220000000  0.4855840000000 1.0
C      1  0.5222590000000  0.4448220000000  0.5144160000000 1.0
C      1  0.5119610000000  0.4951130000000  0.4427160000000 1.0
C      1  0.5119610000000  0.4951130000000  0.5572840000000 1.0
C      1  0.4745570000000  0.4695260000000  0.5698100000000 1.0
C      1  0.4745570000000  0.4695260000000  0.4301900000000 1.0
C      1  0.5433090000000  0.5142210000000  0.5629800000000 1.0
C      1  0.5433090000000  0.5142210000000  0.4370200000000 1.0
C      1  0.4822340000000  0.4884030000000  0.4111320000000 1.0
C      1  0.4822340000000  0.4884030000000  0.5888680000000 1.0
C      1  0.5460650000000  0.5574870000000  0.4672950000000 1.0
C      1  0.5460650000000  0.5574870000000  0.5327050000000 1.0
C      1  0.5485890000000  0.4861550000000  0.5599830000000 1.0
C      1  0.5485890000000  0.4861550000000  0.4400170000000 1.0
C      1  0.5459930000000  0.4539040000000  0.5254300000000 1.0
C      1  0.5459930000000  0.4539040000000  0.4745700000000 1.0
C      1  0.5056560000000  0.5110110000000  0.5323350000000 1.0
C      1  0.5056560000000  0.5110110000000  0.4676650000000 1.0
C      1  0.5619770000000  0.5694680000000  0.5134020000000 1.0
C      1  0.5619770000000  0.5694680000000  0.4865980000000 1.0
C      1  0.4942750000000  0.5606670000000  0.4855060000000 1.0
C      1  0.4942750000000  0.5606670000000  0.5144940000000 1.0
C      1  0.4712950000000  0.5338000000000  0.4293120000000 1.0
C      1  0.4712950000000  0.5338000000000  0.5706880000000 1.0
C      1  0.4956230000000  0.4514620000000  0.4729790000000 1.0
C      1  0.4956230000000  0.4514620000000  0.5270210000000 1.0
C      1  0.4744570000000  0.4302900000000  0.5163430000000 1.0
C      1  0.4744570000000  0.4302900000000  0.4836570000000 1.0
C      1  0.4810460000000  0.5054060000000  0.5183040000000 1.0
C      1  0.4810460000000  0.5054060000000  0.4816960000000 1.0
C      1  0.4850650000000  0.5147660000000  0.4160540000000 1.0
C      1  0.4850650000000  0.5147660000000  0.5839460000000 1.0
C      1  0.4711200000000  0.5547380000000  0.5288260000000 1.0
C      1  0.4711200000000  0.5547380000000  0.4711740000000 1.0
C      1  0.5599410000000  0.5007750000000  0.4843650000000 1.0
C      1  0.5599410000000  0.5007750000000  0.5156350000000 1.0
C      1  0.4552270000000  0.5101330000000  0.4667140000000 1.0
C      1  0.4552270000000  0.5101330000000  0.5332860000000 1.0
C      1  0.4410510000000  0.4688600000000  0.5284490000000 1.0
C      1  0.4410510000000  0.4688600000000  0.4715510000000 1.0
C      1  0.5575200000000  0.4775520000000  0.5340130000000 1.0
C      1  0.5575200000000  0.4775520000000  0.4659870000000 1.0
C      1  0.4992110000000  0.4649300000000  0.5548880000000 1.0
C      1  0.4992110000000  0.4649300000000  0.4451120000000 1.0
C      1  0.4516730000000  0.4777400000000  0.5541630000000 1.0
C      1  0.4516730000000  0.4777400000000  0.4458370000000 1.0
END
