TITL C-38194-9318-245 0.000317050782727935 125000 -362.690653963169 0 0 60 (C1) n - 1
REM
REM in /home/bkarasulu/CARBON/AIRSS/Generating-Clusters/EDIP-Nigel-Params/Higher-Symm/Box-15A/Only-C60/SD-CG/FIRE-HFTN
REM
REM
REM
REM
REM
REM ./C.cell (414f73aa93bd7a1190c7fd0f31ff2f98)
REM
REM compiler GCC version 9.2.1 20190827 (Red Hat 9.2.1-1)
REM options -cpp -mtune=generic -march=x86-64 -g -O0 -fpre-include=/usr/include/finclude/math-vector-fortran.h
REM seed -123151006 -480978458 -914815226 -1657385484 2005546049 -989907372 -733563338 -1601116872 39653731 648521565 -390807461 273337813 -2020169124 1984875138 -1977089965 1248563236 630741483 769213098 -1515281173 -1470202076 794323321 -714826292 1764420162 -1708909551 1533523878 -191387085 -761167840 1255877269 212883867 1303536088 -437469894 789677752 -589821227
REM
CELL 1.54180   50.00000   50.00000   50.00000   90.00000   90.00000   90.00000
LATT -1
SFAC C  
C      1  0.4512250000000  0.4989960000000  0.4601140000000 1.0
C      1  0.4549250000000  0.4361090000000  0.5098250000000 1.0
C      1  0.4971870000000  0.4715690000000  0.4372830000000 1.0
C      1  0.5650220000000  0.4940560000000  0.4539790000000 1.0
C      1  0.5641420000000  0.5054110000000  0.5430480000000 1.0
C      1  0.4435810000000  0.4939410000000  0.5430100000000 1.0
C      1  0.5451020000000  0.5631500000000  0.5054820000000 1.0
C      1  0.5358750000000  0.4443960000000  0.4939410000000 1.0
C      1  0.4602010000000  0.5513720000000  0.4925520000000 1.0
C      1  0.4974100000000  0.5405100000000  0.4442280000000 1.0
C      1  0.4927620000000  0.4564950000000  0.5678010000000 1.0
C      1  0.5072200000000  0.5426780000000  0.5635330000000 1.0
C      1  0.4978630000000  0.4548720000000  0.4620460000000 1.0
C      1  0.4387420000000  0.4594990000000  0.5073380000000 1.0
C      1  0.4694420000000  0.4992190000000  0.4366500000000 1.0
C      1  0.4940570000000  0.5661910000000  0.4569970000000 1.0
C      1  0.5065550000000  0.5608150000000  0.5415700000000 1.0
C      1  0.4914190000000  0.4363640000000  0.5476220000000 1.0
C      1  0.5652690000000  0.5429880000000  0.5056010000000 1.0
C      1  0.4354980000000  0.5366700000000  0.4897290000000 1.0
C      1  0.5617610000000  0.4563220000000  0.4917970000000 1.0
C      1  0.5391210000000  0.4990110000000  0.4428470000000 1.0
C      1  0.4548000000000  0.4930110000000  0.5693380000000 1.0
C      1  0.5447630000000  0.5058790000000  0.5639960000000 1.0
C      1  0.5144760000000  0.5364510000000  0.4217170000000 1.0
C      1  0.4221040000000  0.5103340000000  0.5344940000000 1.0
C      1  0.5302280000000  0.4285830000000  0.5157530000000 1.0
C      1  0.4795410000000  0.4617600000000  0.4161300000000 1.0
C      1  0.4838640000000  0.5351620000000  0.5759580000000 1.0
C      1  0.5172080000000  0.4643340000000  0.5777190000000 1.0
C      1  0.5750260000000  0.4815460000000  0.5347140000000 1.0
C      1  0.5782550000000  0.5162770000000  0.4635880000000 1.0
C      1  0.4289660000000  0.4816220000000  0.4621450000000 1.0
C      1  0.4639270000000  0.5714450000000  0.5121670000000 1.0
C      1  0.4665820000000  0.4263250000000  0.4868490000000 1.0
C      1  0.5376910000000  0.5759680000000  0.4822750000000 1.0
C      1  0.5342640000000  0.5165270000000  0.4209690000000 1.0
C      1  0.5146430000000  0.4260190000000  0.5371590000000 1.0
C      1  0.4235800000000  0.5267890000000  0.5127470000000 1.0
C      1  0.4609980000000  0.4818510000000  0.4146740000000 1.0
C      1  0.5366820000000  0.4824090000000  0.5758680000000 1.0
C      1  0.4647570000000  0.5168490000000  0.5789440000000 1.0
C      1  0.4826450000000  0.5704160000000  0.5320040000000 1.0
C      1  0.5172940000000  0.5788660000000  0.4653330000000 1.0
C      1  0.4834960000000  0.4306540000000  0.4657680000000 1.0
C      1  0.5745770000000  0.4634690000000  0.5151180000000 1.0
C      1  0.4258700000000  0.4650180000000  0.4835720000000 1.0
C      1  0.5776700000000  0.5352950000000  0.4822690000000 1.0
C      1  0.4700790000000  0.4706080000000  0.5746920000000 1.0
C      1  0.5237560000000  0.4800640000000  0.4281610000000 1.0
C      1  0.4333920000000  0.5201720000000  0.4664390000000 1.0
C      1  0.4679520000000  0.4320170000000  0.5338070000000 1.0
C      1  0.4779800000000  0.5262250000000  0.4289440000000 1.0
C      1  0.5672020000000  0.4711730000000  0.4692330000000 1.0
C      1  0.5693210000000  0.5282840000000  0.5285650000000 1.0
C      1  0.4296820000000  0.4723880000000  0.5309530000000 1.0
C      1  0.5297990000000  0.5667320000000  0.5280690000000 1.0
C      1  0.5209110000000  0.4402540000000  0.4701100000000 1.0
C      1  0.4711000000000  0.5696060000000  0.4737610000000 1.0
C      1  0.5305380000000  0.5289870000000  0.5690070000000 1.0
END
