TITL C-38193-7935-106 1.55201619180632e-05 125000 -347.737656089645 0 0 60 (D2) n - 1
REM
REM in /home/bkarasulu/CARBON/AIRSS/Generating-Clusters/EDIP-Nigel-Params/Higher-Symm/Box-15A/Only-C60/SD-CG/FIRE-HFTN
REM
REM
REM
REM
REM
REM ./C.cell (414f73aa93bd7a1190c7fd0f31ff2f98)
REM
REM compiler GCC version 9.2.1 20190827 (Red Hat 9.2.1-1)
REM options -cpp -mtune=generic -march=x86-64 -g -O0 -fpre-include=/usr/include/finclude/math-vector-fortran.h
REM seed -1179548037 -298003690 -24305341 -140419022 788717184 296669707 -55112754 2093458921 817125580 1479465153 1448967094 145745594 2113803041 -484481301 901758243 -1691388264 1666322488 1888659359 1132743767 1636584835 499749396 -322519169 2095845596 -1142715191 544660625 409113100 230288465 -2002771706 -17374094 -1342775988 -313980675 -2113203193 815541818
REM
CELL 1.54180   50.00000   50.00000   50.00000   90.00000   90.00000   90.00000
LATT -1
SFAC C  
C      1  0.4813940000000  0.5489020000000  0.5229800000000 1.0
C      1  0.4813890000000  0.4510990000000  0.4770200000000 1.0
C      1  0.5186110000000  0.5489010000000  0.4770200000000 1.0
C      1  0.5186060000000  0.4510980000000  0.5229800000000 1.0
C      1  0.4392140000000  0.4849390000000  0.4662620000000 1.0
C      1  0.4392150000000  0.5150660000000  0.5337380000000 1.0
C      1  0.5607850000000  0.4849340000000  0.5337380000000 1.0
C      1  0.5607860000000  0.5150610000000  0.4662620000000 1.0
C      1  0.5454250000000  0.5027600000000  0.5154290000000 1.0
C      1  0.5454250000000  0.4972360000000  0.4845710000000 1.0
C      1  0.4545750000000  0.5027640000000  0.4845710000000 1.0
C      1  0.4545750000000  0.4972400000000  0.5154290000000 1.0
C      1  0.5190610000000  0.4653280000000  0.4316890000000 1.0
C      1  0.5190640000000  0.5346710000000  0.5683110000000 1.0
C      1  0.4809360000000  0.4653300000000  0.5683110000000 1.0
C      1  0.4809390000000  0.5346720000000  0.4316890000000 1.0
C      1  0.5223620000000  0.4826690000000  0.5885600000000 1.0
C      1  0.5223630000000  0.5173290000000  0.4114400000000 1.0
C      1  0.4776370000000  0.4826710000000  0.4114400000000 1.0
C      1  0.4776380000000  0.5173310000000  0.5885600000000 1.0
C      1  0.4586170000000  0.5510560000000  0.4768050000000 1.0
C      1  0.4586130000000  0.4489480000000  0.5231950000000 1.0
C      1  0.5413870000000  0.5510520000000  0.5231950000000 1.0
C      1  0.5413830000000  0.4489440000000  0.4768050000000 1.0
C      1  0.4901620000000  0.4638330000000  0.4290310000000 1.0
C      1  0.4901660000000  0.5361680000000  0.5709690000000 1.0
C      1  0.5098340000000  0.4638320000000  0.5709690000000 1.0
C      1  0.5098380000000  0.5361670000000  0.4290310000000 1.0
C      1  0.5336350000000  0.4802640000000  0.4119320000000 1.0
C      1  0.5336370000000  0.5197330000000  0.5880680000000 1.0
C      1  0.4663630000000  0.4802680000000  0.5880680000000 1.0
C      1  0.4663650000000  0.5197350000000  0.4119320000000 1.0
C      1  0.5354630000000  0.5592990000000  0.4969190000000 1.0
C      1  0.5354570000000  0.4406980000000  0.5030810000000 1.0
C      1  0.4645430000000  0.5593020000000  0.5030810000000 1.0
C      1  0.4645370000000  0.4407010000000  0.4969190000000 1.0
C      1  0.4736900000000  0.4752480000000  0.5269790000000 1.0
C      1  0.4736930000000  0.5247540000000  0.4730210000000 1.0
C      1  0.5263070000000  0.4752460000000  0.4730210000000 1.0
C      1  0.5263100000000  0.5247520000000  0.5269790000000 1.0
C      1  0.4672470000000  0.4457350000000  0.5514560000000 1.0
C      1  0.4672520000000  0.5542680000000  0.4485440000000 1.0
C      1  0.5327480000000  0.4457320000000  0.4485440000000 1.0
C      1  0.5327530000000  0.5542650000000  0.5514560000000 1.0
C      1  0.4268000000000  0.5072120000000  0.4750440000000 1.0
C      1  0.4267990000000  0.4927940000000  0.5249560000000 1.0
C      1  0.5732010000000  0.5072060000000  0.5249560000000 1.0
C      1  0.5732000000000  0.4927880000000  0.4750440000000 1.0
C      1  0.4532740000000  0.5046300000000  0.5856160000000 1.0
C      1  0.4532730000000  0.4953740000000  0.4143840000000 1.0
C      1  0.5467270000000  0.5046260000000  0.4143840000000 1.0
C      1  0.5467260000000  0.4953700000000  0.5856160000000 1.0
C      1  0.5011450000000  0.4729680000000  0.5144590000000 1.0
C      1  0.5011480000000  0.5270320000000  0.4855410000000 1.0
C      1  0.4988520000000  0.4729680000000  0.4855410000000 1.0
C      1  0.4988550000000  0.5270320000000  0.5144590000000 1.0
C      1  0.4759230000000  0.5486340000000  0.5503450000000 1.0
C      1  0.4759190000000  0.4513680000000  0.4496550000000 1.0
C      1  0.5240810000000  0.5486320000000  0.4496550000000 1.0
C      1  0.5240770000000  0.4513660000000  0.5503450000000 1.0
END
