TITL C-38191-7580-201 -1.80609727271667e-06 125000 -354.851077032749 0 0 60 (Ci) n - 1
REM
REM in /home/bkarasulu/CARBON/AIRSS/Generating-Clusters/EDIP-Nigel-Params/Higher-Symm/Box-15A/Only-C60/SD-CG/FIRE-HFTN
REM
REM
REM
REM
REM
REM ./C.cell (414f73aa93bd7a1190c7fd0f31ff2f98)
REM
REM compiler GCC version 9.2.1 20190827 (Red Hat 9.2.1-1)
REM options -cpp -mtune=generic -march=x86-64 -g -O0 -fpre-include=/usr/include/finclude/math-vector-fortran.h
REM seed 21578477 2113480661 -531229751 1924235704 -803390723 2049847794 1249144401 -1990485745 -1747238529 668828481 1593746727 1540871385 96355928 1370612857 110578005 2043003013 -132781219 2061639233 916785146 1884801416 272558545 63209855 1872820503 922519481 2092394896 -135830103 740543031 2122190055 -1830343301 -306819672 -1743480290 -106791001 -877101109
REM
CELL 1.54180   50.00000   50.00000   50.00000   90.00000   90.00000   90.00000
LATT -1
SFAC C  
C      1  0.4351720000000  0.4851650000000  0.4586100000000 1.0
C      1  0.5648280000000  0.5148350000000  0.5413900000000 1.0
C      1  0.5341670000000  0.4911830000000  0.4926310000000 1.0
C      1  0.4658330000000  0.5088170000000  0.5073690000000 1.0
C      1  0.5358400000000  0.5133750000000  0.5679340000000 1.0
C      1  0.4641600000000  0.4866250000000  0.4320660000000 1.0
C      1  0.5059130000000  0.4527230000000  0.4374540000000 1.0
C      1  0.4940870000000  0.5472770000000  0.5625460000000 1.0
C      1  0.4742640000000  0.4698970000000  0.5522930000000 1.0
C      1  0.5257360000000  0.5301030000000  0.4477070000000 1.0
C      1  0.4375210000000  0.4460750000000  0.4870200000000 1.0
C      1  0.5624790000000  0.5539250000000  0.5129800000000 1.0
C      1  0.5720610000000  0.4973630000000  0.4668550000000 1.0
C      1  0.4279390000000  0.5026370000000  0.5331450000000 1.0
C      1  0.5273340000000  0.4337320000000  0.4839100000000 1.0
C      1  0.4726660000000  0.5662680000000  0.5160900000000 1.0
C      1  0.5373340000000  0.5453260000000  0.5029840000000 1.0
C      1  0.4626660000000  0.4546740000000  0.4970160000000 1.0
C      1  0.5230780000000  0.4678330000000  0.4538080000000 1.0
C      1  0.4769220000000  0.5321670000000  0.5461920000000 1.0
C      1  0.5360960000000  0.4560210000000  0.5288210000000 1.0
C      1  0.4639040000000  0.5439790000000  0.4711790000000 1.0
C      1  0.4430310000000  0.5260840000000  0.5179330000000 1.0
C      1  0.5569690000000  0.4739160000000  0.4820670000000 1.0
C      1  0.4937090000000  0.5051280000000  0.4649130000000 1.0
C      1  0.5062910000000  0.4948720000000  0.5350870000000 1.0
C      1  0.4434810000000  0.5125090000000  0.4629480000000 1.0
C      1  0.5565190000000  0.4874910000000  0.5370520000000 1.0
C      1  0.4243280000000  0.4715890000000  0.4836990000000 1.0
C      1  0.5756720000000  0.5284110000000  0.5163010000000 1.0
C      1  0.5404940000000  0.5396820000000  0.5581690000000 1.0
C      1  0.4595060000000  0.4603180000000  0.4418310000000 1.0
C      1  0.4922480000000  0.4528500000000  0.5340560000000 1.0
C      1  0.5077520000000  0.5471500000000  0.4659440000000 1.0
C      1  0.5156080000000  0.5760350000000  0.5349630000000 1.0
C      1  0.4843920000000  0.4239650000000  0.4650370000000 1.0
C      1  0.4837880000000  0.4401140000000  0.5089810000000 1.0
C      1  0.5162120000000  0.5598860000000  0.4910190000000 1.0
C      1  0.5108170000000  0.4837750000000  0.4753910000000 1.0
C      1  0.4891830000000  0.5162250000000  0.5246090000000 1.0
C      1  0.4998280000000  0.5738530000000  0.5115120000000 1.0
C      1  0.5001720000000  0.4261470000000  0.4884880000000 1.0
C      1  0.4812420000000  0.4412920000000  0.4431150000000 1.0
C      1  0.5187580000000  0.5587080000000  0.5568850000000 1.0
C      1  0.5423960000000  0.5210270000000  0.4877380000000 1.0
C      1  0.4576040000000  0.4789730000000  0.5122620000000 1.0
C      1  0.4568590000000  0.5486720000000  0.5324550000000 1.0
C      1  0.5431410000000  0.4513280000000  0.4675450000000 1.0
C      1  0.5525680000000  0.5163910000000  0.4508340000000 1.0
C      1  0.4474320000000  0.4836090000000  0.5491660000000 1.0
C      1  0.5095660000000  0.5197850000000  0.4261100000000 1.0
C      1  0.4904340000000  0.4802150000000  0.5738900000000 1.0
C      1  0.4684950000000  0.5157740000000  0.4778310000000 1.0
C      1  0.5315050000000  0.4842260000000  0.5221690000000 1.0
C      1  0.4832780000000  0.5567450000000  0.4561220000000 1.0
C      1  0.5167220000000  0.4432550000000  0.5438780000000 1.0
C      1  0.4896520000000  0.5012540000000  0.4359830000000 1.0
C      1  0.5103480000000  0.4987460000000  0.5640170000000 1.0
C      1  0.4192660000000  0.4856580000000  0.5095230000000 1.0
C      1  0.5807340000000  0.5143420000000  0.4904770000000 1.0
END
