TITL C-38197-8510-155 -9.77747422520609e-05 125000 -357.875415414001 0 0 60 (C1) n - 1
REM
REM in /home/bkarasulu/CARBON/AIRSS/Generating-Clusters/EDIP-Nigel-Params/Higher-Symm/Box-15A/Only-C60/SD-CG/FIRE-HFTN
REM
REM
REM
REM
REM
REM ./C.cell (414f73aa93bd7a1190c7fd0f31ff2f98)
REM
REM compiler GCC version 9.2.1 20190827 (Red Hat 9.2.1-1)
REM options -cpp -mtune=generic -march=x86-64 -g -O0 -fpre-include=/usr/include/finclude/math-vector-fortran.h
REM seed -1225104174 -179283466 -2057070499 -1591875758 1722985602 -2020390050 227169057 881929674 697199276 1605448179 1671204921 254645880 -1950073051 -1328843417 1158165382 1052037718 -1182186869 745203033 254574126 1538349111 -1198773792 -1632924454 -1186886541 -1608182998 -1286997255 -46208086 1909218845 -68606483 -1767949925 596825193 -712309913 119088478 -763286135
REM
CELL 1.54180   50.00000   50.00000   50.00000   90.00000   90.00000   90.00000
LATT -1
SFAC C  
C      1  0.4905540000000  0.4699250000000  0.5038430000000 1.0
C      1  0.4237690000000  0.4781670000000  0.5120680000000 1.0
C      1  0.5462340000000  0.4498050000000  0.5170620000000 1.0
C      1  0.4881850000000  0.5625780000000  0.5285820000000 1.0
C      1  0.4311950000000  0.5306700000000  0.4628800000000 1.0
C      1  0.5249460000000  0.5398770000000  0.4465500000000 1.0
C      1  0.5565880000000  0.5241060000000  0.5254390000000 1.0
C      1  0.4621940000000  0.4854470000000  0.5951660000000 1.0
C      1  0.5045630000000  0.4319980000000  0.5356840000000 1.0
C      1  0.5357540000000  0.5378850000000  0.5402370000000 1.0
C      1  0.5722400000000  0.5117880000000  0.4788520000000 1.0
C      1  0.5461540000000  0.4726270000000  0.4218330000000 1.0
C      1  0.5724760000000  0.5052870000000  0.5376980000000 1.0
C      1  0.5016400000000  0.4890290000000  0.4148400000000 1.0
C      1  0.4659870000000  0.4585470000000  0.5889150000000 1.0
C      1  0.4958130000000  0.4642860000000  0.4239310000000 1.0
C      1  0.4735150000000  0.4886020000000  0.5468500000000 1.0
C      1  0.5596190000000  0.4756050000000  0.4470070000000 1.0
C      1  0.4295560000000  0.5243280000000  0.5165640000000 1.0
C      1  0.4649300000000  0.5502540000000  0.5401350000000 1.0
C      1  0.4584680000000  0.5547110000000  0.4937640000000 1.0
C      1  0.5074440000000  0.4477050000000  0.4415220000000 1.0
C      1  0.4742540000000  0.5483550000000  0.4482050000000 1.0
C      1  0.4239290000000  0.5056250000000  0.4724560000000 1.0
C      1  0.5828810000000  0.4594330000000  0.5521460000000 1.0
C      1  0.4146310000000  0.4775120000000  0.4312120000000 1.0
C      1  0.5608150000000  0.5292960000000  0.4972680000000 1.0
C      1  0.4067440000000  0.4899090000000  0.4554880000000 1.0
C      1  0.4083950000000  0.4617710000000  0.4522100000000 1.0
C      1  0.5454830000000  0.5496980000000  0.4846210000000 1.0
C      1  0.4826030000000  0.5056330000000  0.5935130000000 1.0
C      1  0.5221520000000  0.4457950000000  0.4648930000000 1.0
C      1  0.5055870000000  0.4976650000000  0.5009570000000 1.0
C      1  0.4733320000000  0.4410850000000  0.5701890000000 1.0
C      1  0.5282130000000  0.4945260000000  0.4217680000000 1.0
C      1  0.4989320000000  0.5434870000000  0.4633160000000 1.0
C      1  0.4801380000000  0.4418980000000  0.5435780000000 1.0
C      1  0.5578290000000  0.4522550000000  0.5429660000000 1.0
C      1  0.4523400000000  0.5483310000000  0.4661030000000 1.0
C      1  0.4445300000000  0.4637260000000  0.5205920000000 1.0
C      1  0.5461280000000  0.4615080000000  0.4693040000000 1.0
C      1  0.4473600000000  0.5453390000000  0.5184000000000 1.0
C      1  0.4806850000000  0.5714520000000  0.5010150000000 1.0
C      1  0.5029570000000  0.5683200000000  0.4820470000000 1.0
C      1  0.4952810000000  0.5167720000000  0.4797280000000 1.0
C      1  0.5622190000000  0.5049440000000  0.4532020000000 1.0
C      1  0.5252020000000  0.5627520000000  0.4996150000000 1.0
C      1  0.5200260000000  0.4388590000000  0.5139290000000 1.0
C      1  0.5075650000000  0.4393020000000  0.4883710000000 1.0
C      1  0.5585960000000  0.4591630000000  0.4941240000000 1.0
C      1  0.5829550000000  0.4802390000000  0.5341570000000 1.0
C      1  0.4668650000000  0.5036070000000  0.5695550000000 1.0
C      1  0.4716880000000  0.4663090000000  0.5289180000000 1.0
C      1  0.4202900000000  0.5032580000000  0.5010850000000 1.0
C      1  0.5461840000000  0.5553950000000  0.4570260000000 1.0
C      1  0.4800790000000  0.4906870000000  0.4823230000000 1.0
C      1  0.5304630000000  0.5309750000000  0.5662540000000 1.0
C      1  0.5301080000000  0.5274430000000  0.5916200000000 1.0
C      1  0.5158970000000  0.5521700000000  0.5247430000000 1.0
C      1  0.5348390000000  0.5122760000000  0.4436800000000 1.0
END
