TITL C-38195-9455-337 1.20098711658295e-05 125000 -365.656016397997 0 0 60 (C3) n - 1
REM
REM in /home/bkarasulu/CARBON/AIRSS/Generating-Clusters/EDIP-Nigel-Params/Higher-Symm/Box-15A/Only-C60/SD-CG/FIRE-HFTN
REM
REM
REM
REM
REM
REM ./C.cell (414f73aa93bd7a1190c7fd0f31ff2f98)
REM
REM compiler GCC version 9.2.1 20190827 (Red Hat 9.2.1-1)
REM options -cpp -mtune=generic -march=x86-64 -g -O0 -fpre-include=/usr/include/finclude/math-vector-fortran.h
REM seed -2017495685 -914187884 1293553062 1563123816 821688585 -1760623647 -194523456 1971877537 -2006941226 -1392830413 -42800063 893901134 581942172 334826695 -1775067645 196530734 -1214355373 494020934 1866556077 812333968 380666575 -1427016885 1307560853 -335829170 -1396057645 -774103726 -1936473609 -1460815712 1156632717 1025462347 -1118310703 -1581231976 -1919460131
REM
CELL 1.54180   50.00000   50.00000   50.00000   90.00000   90.00000   90.00000
LATT -1
SFAC C  
C      1  0.5309330000000  0.4852360000000  0.5574750000000 1.0
C      1  0.5309330000000  0.5571570000000  0.4840490000000 1.0
C      1  0.5309330000000  0.4576070000000  0.4584770000000 1.0
C      1  0.4746960000000  0.4667800000000  0.4760570000000 1.0
C      1  0.4746960000000  0.4958750000000  0.5407400000000 1.0
C      1  0.4746960000000  0.5373450000000  0.4832020000000 1.0
C      1  0.4714230000000  0.5279630000000  0.5622300000000 1.0
C      1  0.4714230000000  0.5399110000000  0.4446680000000 1.0
C      1  0.4714230000000  0.4321260000000  0.4931020000000 1.0
C      1  0.4995400000000  0.5443830000000  0.4475420000000 1.0
C      1  0.4995400000000  0.4323790000000  0.4877920000000 1.0
C      1  0.4995400000000  0.5232380000000  0.5646660000000 1.0
C      1  0.5466340000000  0.4644030000000  0.4813320000000 1.0
C      1  0.5466340000000  0.5016320000000  0.5401620000000 1.0
C      1  0.5466340000000  0.5339650000000  0.4785060000000 1.0
C      1  0.4388450000000  0.4929920000000  0.5275190000000 1.0
C      1  0.4388450000000  0.5273360000000  0.4923100000000 1.0
C      1  0.4388450000000  0.4796720000000  0.4801710000000 1.0
C      1  0.4673940000000  0.4659370000000  0.4461070000000 1.0
C      1  0.4673940000000  0.4703590000000  0.5564460000000 1.0
C      1  0.4673940000000  0.5637040000000  0.4974470000000 1.0
C      1  0.5346090000000  0.4787420000000  0.4382670000000 1.0
C      1  0.5346090000000  0.4571670000000  0.5492760000000 1.0
C      1  0.5346090000000  0.5640910000000  0.5124560000000 1.0
C      1  0.5171250000000  0.4395130000000  0.5100790000000 1.0
C      1  0.5171250000000  0.5389720000000  0.5473440000000 1.0
C      1  0.5171250000000  0.5215150000000  0.4425770000000 1.0
C      1  0.4742010000000  0.5613020000000  0.5252990000000 1.0
C      1  0.4742010000000  0.4912590000000  0.4342620000000 1.0
C      1  0.4742010000000  0.4474400000000  0.5404390000000 1.0
C      1  0.5111320000000  0.4960060000000  0.4302510000000 1.0
C      1  0.5111320000000  0.4415930000000  0.5383330000000 1.0
C      1  0.5111320000000  0.5624010000000  0.5314150000000 1.0
C      1  0.4956190000000  0.4821470000000  0.5925540000000 1.0
C      1  0.4956190000000  0.5890810000000  0.4691840000000 1.0
C      1  0.4956190000000  0.4287720000000  0.4382610000000 1.0
C      1  0.5562350000000  0.5437310000000  0.5207570000000 1.0
C      1  0.5562350000000  0.4961100000000  0.4517500000000 1.0
C      1  0.5562350000000  0.4601590000000  0.5274940000000 1.0
C      1  0.5072490000000  0.5635210000000  0.4682220000000 1.0
C      1  0.5072490000000  0.4407190000000  0.4608780000000 1.0
C      1  0.5072490000000  0.4957600000000  0.5709000000000 1.0
C      1  0.4866360000000  0.4973390000000  0.4809100000000 1.0
C      1  0.4866360000000  0.4847980000000  0.5118500000000 1.0
C      1  0.4866360000000  0.5178630000000  0.5072400000000 1.0
C      1  0.4441990000000  0.4723230000000  0.5076890000000 1.0
C      1  0.4441990000000  0.5204980000000  0.5201240000000 1.0
C      1  0.4441990000000  0.5071790000000  0.4721860000000 1.0
C      1  0.4613180000000  0.4487970000000  0.5142580000000 1.0
C      1  0.4613180000000  0.5379490000000  0.5372140000000 1.0
C      1  0.4613180000000  0.5132540000000  0.4485280000000 1.0
C      1  0.4742120000000  0.5877120000000  0.4852330000000 1.0
C      1  0.4742120000000  0.4433550000000  0.4314230000000 1.0
C      1  0.4742130000000  0.4689330000000  0.5833450000000 1.0
C      1  0.5439810000000  0.5297180000000  0.5430170000000 1.0
C      1  0.5439800000000  0.5223950000000  0.4527550000000 1.0
C      1  0.5439810000000  0.4478870000000  0.5042280000000 1.0
C      1  0.5640180000000  0.4891670000000  0.5199240000000 1.0
C      1  0.5640180000000  0.5226710000000  0.4994190000000 1.0
C      1  0.5640180000000  0.4881620000000  0.4806560000000 1.0
END
