TITL C-38189-4514-314 -3.8856608956554e-05 125000 -368.369096983671 0 0 60 (C1) n - 1
REM
REM in /home/bkarasulu/CARBON/AIRSS/Generating-Clusters/EDIP-Nigel-Params/Higher-Symm/Box-15A/Only-C60/SD-CG/FIRE-HFTN
REM
REM
REM
REM
REM
REM ./C.cell (414f73aa93bd7a1190c7fd0f31ff2f98)
REM
REM compiler GCC version 9.2.1 20190827 (Red Hat 9.2.1-1)
REM options -cpp -mtune=generic -march=x86-64 -g -O0 -fpre-include=/usr/include/finclude/math-vector-fortran.h
REM seed -540084745 1803390903 -1213008035 -1949236347 937165123 867210602 -699077213 1381299658 1998248770 -1667742596 -207287834 1561610737 -175230041 -801491702 -1712541859 -1628177955 201414660 -1568399304 -5539824 143862385 -416222591 -714574699 1870964760 753580524 624909739 -1933435334 -1438458763 789288668 -37987628 1157296820 -1398960192 -360387980 1521736638
REM
CELL 1.54180   50.00000   50.00000   50.00000   90.00000   90.00000   90.00000
LATT -1
SFAC C  
C      1  0.5174880000000  0.4888170000000  0.5753490000000 1.0
C      1  0.4825340000000  0.5206630000000  0.5798690000000 1.0
C      1  0.4903160000000  0.4944220000000  0.5747550000000 1.0
C      1  0.5496890000000  0.5062330000000  0.5425620000000 1.0
C      1  0.4607130000000  0.5435600000000  0.5440960000000 1.0
C      1  0.4858880000000  0.4550230000000  0.5439020000000 1.0
C      1  0.4385830000000  0.5428030000000  0.4773750000000 1.0
C      1  0.4968670000000  0.4242020000000  0.4803030000000 1.0
C      1  0.5628900000000  0.5344090000000  0.4792970000000 1.0
C      1  0.4341940000000  0.4816100000000  0.5263060000000 1.0
C      1  0.5550430000000  0.4486480000000  0.5256410000000 1.0
C      1  0.5138230000000  0.5650270000000  0.5292970000000 1.0
C      1  0.5122020000000  0.4794990000000  0.5114660000000 1.0
C      1  0.5105140000000  0.5085330000000  0.5117980000000 1.0
C      1  0.4813670000000  0.5115920000000  0.5116300000000 1.0
C      1  0.4838830000000  0.4613870000000  0.4505290000000 1.0
C      1  0.5402760000000  0.5040760000000  0.4472170000000 1.0
C      1  0.4782430000000  0.5406610000000  0.4453720000000 1.0
C      1  0.5203700000000  0.4394850000000  0.4878660000000 1.0
C      1  0.5367800000000  0.5430160000000  0.4887970000000 1.0
C      1  0.4414380000000  0.5149350000000  0.4860840000000 1.0
C      1  0.4907900000000  0.5648870000000  0.5104180000000 1.0
C      1  0.4518090000000  0.4640260000000  0.5102950000000 1.0
C      1  0.5629860000000  0.4724900000000  0.5082340000000 1.0
C      1  0.5107650000000  0.4684300000000  0.4843660000000 1.0
C      1  0.5202000000000  0.5177860000000  0.4837090000000 1.0
C      1  0.4714410000000  0.5085540000000  0.4839190000000 1.0
C      1  0.5590630000000  0.4735230000000  0.4803430000000 1.0
C      1  0.4940480000000  0.5545650000000  0.4845120000000 1.0
C      1  0.4499400000000  0.4631790000000  0.4826080000000 1.0
C      1  0.4881560000000  0.4339080000000  0.4553030000000 1.0
C      1  0.5597470000000  0.5232850000000  0.4536580000000 1.0
C      1  0.4516300000000  0.5466060000000  0.4526160000000 1.0
C      1  0.5144430000000  0.4593420000000  0.5334320000000 1.0
C      1  0.5269960000000  0.5239030000000  0.5334520000000 1.0
C      1  0.4601830000000  0.5151260000000  0.5325810000000 1.0
C      1  0.4747870000000  0.4800600000000  0.5551040000000 1.0
C      1  0.5398650000000  0.4841830000000  0.5592370000000 1.0
C      1  0.4824600000000  0.5441990000000  0.5645170000000 1.0
C      1  0.4333260000000  0.5108820000000  0.5150040000000 1.0
C      1  0.5278690000000  0.4349910000000  0.5164940000000 1.0
C      1  0.5376500000000  0.5493020000000  0.5179540000000 1.0
C      1  0.4684800000000  0.4435920000000  0.5225560000000 1.0
C      1  0.5682130000000  0.4988430000000  0.5202360000000 1.0
C      1  0.4632190000000  0.5634860000000  0.5211540000000 1.0
C      1  0.4467440000000  0.4848540000000  0.5526780000000 1.0
C      1  0.5483060000000  0.4577030000000  0.5528300000000 1.0
C      1  0.5084440000000  0.5505590000000  0.5541390000000 1.0
C      1  0.4922930000000  0.5294270000000  0.4701150000000 1.0
C      1  0.4746880000000  0.4770650000000  0.4748670000000 1.0
C      1  0.5343840000000  0.4844080000000  0.4697950000000 1.0
C      1  0.4835870000000  0.5250890000000  0.4210880000000 1.0
C      1  0.4871330000000  0.4749560000000  0.4250830000000 1.0
C      1  0.5267590000000  0.5023140000000  0.4212570000000 1.0
C      1  0.4452250000000  0.5590610000000  0.4995380000000 1.0
C      1  0.4805470000000  0.4267160000000  0.5032380000000 1.0
C      1  0.5729090000000  0.5186510000000  0.5004600000000 1.0
C      1  0.4731140000000  0.4991380000000  0.4233900000000 1.0
C      1  0.5136680000000  0.4777540000000  0.4164120000000 1.0
C      1  0.5110290000000  0.5245540000000  0.4138980000000 1.0
END
