TITL C-38192-7909-161 3.63712706977724e-06 125000 -356.053482813441 0 0 60 (C1) n - 1
REM
REM in /home/bkarasulu/CARBON/AIRSS/Generating-Clusters/EDIP-Nigel-Params/Higher-Symm/Box-15A/Only-C60/SD-CG/FIRE-HFTN
REM
REM
REM
REM
REM
REM ./C.cell (414f73aa93bd7a1190c7fd0f31ff2f98)
REM
REM compiler GCC version 9.2.1 20190827 (Red Hat 9.2.1-1)
REM options -cpp -mtune=generic -march=x86-64 -g -O0 -fpre-include=/usr/include/finclude/math-vector-fortran.h
REM seed -139478708 1648543480 560735581 1096034439 -543140217 626190595 477154759 1032737552 -1161846518 -1620782874 1026266655 359684442 736171293 353865062 -742108093 -2024515503 9676087 -1356346339 312365021 1838809250 714754560 1710397011 -1982804240 -232702882 975081704 1145076612 -244426718 1354746815 1582618000 192227834 1770651957 -987868447 1996866356
REM
CELL 1.54180   50.00000   50.00000   50.00000   90.00000   90.00000   90.00000
LATT -1
SFAC C  
C      1  0.5313970000000  0.5344080000000  0.5005890000000 1.0
C      1  0.4769260000000  0.5217140000000  0.5797250000000 1.0
C      1  0.5309090000000  0.5468740000000  0.4540160000000 1.0
C      1  0.4365020000000  0.5676340000000  0.5240180000000 1.0
C      1  0.4880420000000  0.5177860000000  0.5090770000000 1.0
C      1  0.4449800000000  0.5411820000000  0.5234430000000 1.0
C      1  0.5785000000000  0.5134840000000  0.4898360000000 1.0
C      1  0.4280030000000  0.5210010000000  0.5315170000000 1.0
C      1  0.5291530000000  0.5413330000000  0.5618850000000 1.0
C      1  0.5039690000000  0.4889500000000  0.5605070000000 1.0
C      1  0.4715360000000  0.5231710000000  0.4558880000000 1.0
C      1  0.4302090000000  0.4756550000000  0.4760500000000 1.0
C      1  0.5337310000000  0.5641820000000  0.5316440000000 1.0
C      1  0.4558910000000  0.4633740000000  0.4836050000000 1.0
C      1  0.5272180000000  0.4731500000000  0.4691920000000 1.0
C      1  0.4251220000000  0.4946790000000  0.5236630000000 1.0
C      1  0.5495430000000  0.4422160000000  0.5358700000000 1.0
C      1  0.5526240000000  0.4370060000000  0.4512570000000 1.0
C      1  0.4865030000000  0.5618870000000  0.5267690000000 1.0
C      1  0.4630240000000  0.5873400000000  0.4875820000000 1.0
C      1  0.4837880000000  0.5728040000000  0.4759430000000 1.0
C      1  0.5220160000000  0.4438100000000  0.5379370000000 1.0
C      1  0.5094140000000  0.4518170000000  0.4645570000000 1.0
C      1  0.4418400000000  0.4733220000000  0.4299530000000 1.0
C      1  0.5310230000000  0.5552060000000  0.4811120000000 1.0
C      1  0.5133270000000  0.4173980000000  0.4962400000000 1.0
C      1  0.4779420000000  0.4952800000000  0.5705940000000 1.0
C      1  0.4922070000000  0.5032240000000  0.4520950000000 1.0
C      1  0.4780270000000  0.5497420000000  0.4611600000000 1.0
C      1  0.4736210000000  0.5374940000000  0.5231210000000 1.0
C      1  0.5566050000000  0.5773510000000  0.5299460000000 1.0
C      1  0.5639510000000  0.5168910000000  0.4673580000000 1.0
C      1  0.4769630000000  0.4396580000000  0.5175610000000 1.0
C      1  0.5119130000000  0.4632020000000  0.5546350000000 1.0
C      1  0.4614500000000  0.4355320000000  0.4925600000000 1.0
C      1  0.4314070000000  0.4899430000000  0.4499480000000 1.0
C      1  0.4555590000000  0.4832980000000  0.5593820000000 1.0
C      1  0.5387250000000  0.5197370000000  0.4556830000000 1.0
C      1  0.4196450000000  0.4908080000000  0.4968180000000 1.0
C      1  0.5098240000000  0.5749750000000  0.5191790000000 1.0
C      1  0.4670200000000  0.4670690000000  0.4227950000000 1.0
C      1  0.5731790000000  0.4510810000000  0.5242860000000 1.0
C      1  0.5054610000000  0.4357470000000  0.5157650000000 1.0
C      1  0.4853080000000  0.4807080000000  0.4371730000000 1.0
C      1  0.5024810000000  0.5322580000000  0.5730510000000 1.0
C      1  0.5789030000000  0.4789800000000  0.5262000000000 1.0
C      1  0.5363770000000  0.4153960000000  0.4545230000000 1.0
C      1  0.4654470000000  0.4681500000000  0.5138580000000 1.0
C      1  0.5106240000000  0.5749360000000  0.4893560000000 1.0
C      1  0.5175300000000  0.5021580000000  0.4685440000000 1.0
C      1  0.4452310000000  0.4764760000000  0.5343250000000 1.0
C      1  0.5141890000000  0.4244110000000  0.4691930000000 1.0
C      1  0.5778840000000  0.4414800000000  0.4979860000000 1.0
C      1  0.5540830000000  0.4633480000000  0.4613680000000 1.0
C      1  0.5747250000000  0.4651860000000  0.4823410000000 1.0
C      1  0.5131070000000  0.5130640000000  0.4971000000000 1.0
C      1  0.4444700000000  0.5867510000000  0.5069030000000 1.0
C      1  0.4452880000000  0.5145320000000  0.4516660000000 1.0
C      1  0.5735880000000  0.4880800000000  0.4999600000000 1.0
C      1  0.5220740000000  0.5116690000000  0.5616920000000 1.0
END
