TITL C-38189-4514-300 7.53507979641282e-06 125000 -359.753746492826 0 0 60 (C1) n - 1
REM
REM in /home/bkarasulu/CARBON/AIRSS/Generating-Clusters/EDIP-Nigel-Params/Higher-Symm/Box-15A/Only-C60/SD-CG/FIRE-HFTN
REM
REM
REM
REM
REM
REM ./C.cell (414f73aa93bd7a1190c7fd0f31ff2f98)
REM
REM compiler GCC version 9.2.1 20190827 (Red Hat 9.2.1-1)
REM options -cpp -mtune=generic -march=x86-64 -g -O0 -fpre-include=/usr/include/finclude/math-vector-fortran.h
REM seed -503624653 -1337520800 1646318436 -781383943 -1623516811 -815025329 832557108 1565667605 1660846025 -1025686009 830051340 -1241087473 452981074 -1063810573 1687902384 1215000702 2028398699 -940775536 1201423632 -774648607 1841971924 1279632215 770231082 163984769 -1939029422 2102964791 2039187094 1687568098 -1228771989 -802067464 -868814293 595615665 1227293286
REM
CELL 1.54180   50.00000   50.00000   50.00000   90.00000   90.00000   90.00000
LATT -1
SFAC C  
C      1  0.4659780000000  0.5710660000000  0.5126760000000 1.0
C      1  0.5628110000000  0.5549710000000  0.5150760000000 1.0
C      1  0.5703220000000  0.4624720000000  0.5132870000000 1.0
C      1  0.4817340000000  0.4204470000000  0.5139700000000 1.0
C      1  0.4198750000000  0.4907140000000  0.5135390000000 1.0
C      1  0.5352240000000  0.5713840000000  0.5142220000000 1.0
C      1  0.4391630000000  0.5541890000000  0.5160230000000 1.0
C      1  0.4297970000000  0.4612750000000  0.5148310000000 1.0
C      1  0.5138070000000  0.4225320000000  0.5137740000000 1.0
C      1  0.5828580000000  0.4914230000000  0.5172630000000 1.0
C      1  0.4277620000000  0.5052160000000  0.4643120000000 1.0
C      1  0.4856040000000  0.5613870000000  0.4657000000000 1.0
C      1  0.5655750000000  0.5383010000000  0.4633250000000 1.0
C      1  0.5494830000000  0.4593030000000  0.4659120000000 1.0
C      1  0.4704140000000  0.4348310000000  0.4636270000000 1.0
C      1  0.5744360000000  0.5101320000000  0.4644090000000 1.0
C      1  0.5149100000000  0.5622750000000  0.4660890000000 1.0
C      1  0.4372210000000  0.5329800000000  0.4644430000000 1.0
C      1  0.4469110000000  0.4524910000000  0.4653880000000 1.0
C      1  0.5255300000000  0.4424040000000  0.4660110000000 1.0
C      1  0.4521240000000  0.4688120000000  0.4418170000000 1.0
C      1  0.4560640000000  0.5308400000000  0.4418020000000 1.0
C      1  0.5198130000000  0.5440070000000  0.4438490000000 1.0
C      1  0.5587610000000  0.5003250000000  0.4412570000000 1.0
C      1  0.5114050000000  0.4552910000000  0.4438960000000 1.0
C      1  0.5420840000000  0.4770100000000  0.4440390000000 1.0
C      1  0.5471480000000  0.5357410000000  0.4403620000000 1.0
C      1  0.4822650000000  0.5423650000000  0.4438760000000 1.0
C      1  0.4424270000000  0.4956300000000  0.4411010000000 1.0
C      1  0.4837530000000  0.4482420000000  0.4410470000000 1.0
C      1  0.5252470000000  0.5530370000000  0.4917570000000 1.0
C      1  0.5644880000000  0.5007260000000  0.4919700000000 1.0
C      1  0.5120000000000  0.4439580000000  0.4918430000000 1.0
C      1  0.4504800000000  0.4669120000000  0.4919020000000 1.0
C      1  0.4500960000000  0.5354930000000  0.4919260000000 1.0
C      1  0.4758000000000  0.5520010000000  0.4913380000000 1.0
C      1  0.4397690000000  0.4973040000000  0.4909040000000 1.0
C      1  0.4813640000000  0.4419290000000  0.4910860000000 1.0
C      1  0.5521680000000  0.4727670000000  0.4914370000000 1.0
C      1  0.5520080000000  0.5379070000000  0.4908470000000 1.0
C      1  0.5368760000000  0.5258210000000  0.5431530000000 1.0
C      1  0.5351470000000  0.4744780000000  0.5427510000000 1.0
C      1  0.4856180000000  0.4582080000000  0.5430050000000 1.0
C      1  0.4560140000000  0.5002660000000  0.5427600000000 1.0
C      1  0.4870610000000  0.5411620000000  0.5426630000000 1.0
C      1  0.4633400000000  0.5270270000000  0.5518530000000 1.0
C      1  0.4623820000000  0.4736490000000  0.5518520000000 1.0
C      1  0.5133950000000  0.4565710000000  0.5511150000000 1.0
C      1  0.5462140000000  0.4996640000000  0.5521510000000 1.0
C      1  0.5151350000000  0.5431950000000  0.5510780000000 1.0
C      1  0.5250030000000  0.4315790000000  0.5397610000000 1.0
C      1  0.4416450000000  0.4546770000000  0.5413150000000 1.0
C      1  0.4383790000000  0.5407440000000  0.5423320000000 1.0
C      1  0.5201820000000  0.5702820000000  0.5398210000000 1.0
C      1  0.5747070000000  0.5030270000000  0.5432430000000 1.0
C      1  0.4723590000000  0.4326620000000  0.5385470000000 1.0
C      1  0.5552860000000  0.4545530000000  0.5368630000000 1.0
C      1  0.5625300000000  0.5387880000000  0.5392520000000 1.0
C      1  0.4822190000000  0.5690870000000  0.5366760000000 1.0
C      1  0.4278340000000  0.5044720000000  0.5378800000000 1.0
END
