TITL C-38193-7935-526 -8.89068321048731e-06 125000 -361.747875454631 0 0 60 (Cs) n - 1
REM
REM in /home/bkarasulu/CARBON/AIRSS/Generating-Clusters/EDIP-Nigel-Params/Higher-Symm/Box-15A/Only-C60/SD-CG/FIRE-HFTN
REM
REM
REM
REM
REM
REM ./C.cell (414f73aa93bd7a1190c7fd0f31ff2f98)
REM
REM compiler GCC version 9.2.1 20190827 (Red Hat 9.2.1-1)
REM options -cpp -mtune=generic -march=x86-64 -g -O0 -fpre-include=/usr/include/finclude/math-vector-fortran.h
REM seed 80275558 1444154290 -430665696 -784229362 1802485744 515890967 491198077 1229522269 640870388 -895069864 1124972088 -1908236856 -1110787784 1549916720 -360774539 -1030639516 -137265792 -798857565 1857805402 468902392 953512271 371361379 -298958537 -1796513391 -690189489 -1281959427 -1555452892 633153417 -230521933 406287581 -761517157 -493322850 -299214303
REM
CELL 1.54180   50.00000   50.00000   50.00000   90.00000   90.00000   90.00000
LATT -1
SFAC C  
C      1  0.5658480000000  0.5251120000000  0.4856540000000 1.0
C      1  0.5429320000000  0.4449690000000  0.4855200000000 1.0
C      1  0.4628010000000  0.4404540000000  0.4856450000000 1.0
C      1  0.4315850000000  0.5175580000000  0.4857050000000 1.0
C      1  0.4966140000000  0.5703760000000  0.4856090000000 1.0
C      1  0.5658480000000  0.5251120000000  0.5143460000000 1.0
C      1  0.5429320000000  0.4449690000000  0.5144800000000 1.0
C      1  0.4628010000000  0.4404540000000  0.5143550000000 1.0
C      1  0.4315850000000  0.5175580000000  0.5142950000000 1.0
C      1  0.4966140000000  0.5703760000000  0.5143910000000 1.0
C      1  0.4768470000000  0.5087750000000  0.4330220000000 1.0
C      1  0.5013570000000  0.5249650000000  0.4321440000000 1.0
C      1  0.5247970000000  0.5066120000000  0.4300260000000 1.0
C      1  0.5144410000000  0.4780540000000  0.4267930000000 1.0
C      1  0.4834650000000  0.4799900000000  0.4290040000000 1.0
C      1  0.4768470000000  0.5087750000000  0.5669780000000 1.0
C      1  0.5013570000000  0.5249650000000  0.5678560000000 1.0
C      1  0.5247970000000  0.5066120000000  0.5699740000000 1.0
C      1  0.5144410000000  0.4780540000000  0.5732070000000 1.0
C      1  0.4834650000000  0.4799900000000  0.5709960000000 1.0
C      1  0.5501060000000  0.5110860000000  0.5544580000000 1.0
C      1  0.5272480000000  0.4552960000000  0.5574120000000 1.0
C      1  0.4661440000000  0.4604910000000  0.5554790000000 1.0
C      1  0.4527950000000  0.5195970000000  0.5536430000000 1.0
C      1  0.5044770000000  0.5513610000000  0.5543280000000 1.0
C      1  0.5501060000000  0.5110860000000  0.4455420000000 1.0
C      1  0.5272480000000  0.4552960000000  0.4425880000000 1.0
C      1  0.4661440000000  0.4604910000000  0.4445210000000 1.0
C      1  0.4527950000000  0.5195970000000  0.4463570000000 1.0
C      1  0.5044770000000  0.5513610000000  0.4456720000000 1.0
C      1  0.5112680000000  0.5231030000000  0.5196660000000 1.0
C      1  0.5251940000000  0.4961980000000  0.5151100000000 1.0
C      1  0.5039040000000  0.4771510000000  0.5222460000000 1.0
C      1  0.4770870000000  0.4873680000000  0.5156040000000 1.0
C      1  0.4810480000000  0.5194800000000  0.5155500000000 1.0
C      1  0.5112680000000  0.5231030000000  0.4803340000000 1.0
C      1  0.5251940000000  0.4961980000000  0.4848900000000 1.0
C      1  0.5039040000000  0.4771510000000  0.4777540000000 1.0
C      1  0.4770870000000  0.4873680000000  0.4843960000000 1.0
C      1  0.4810480000000  0.5194800000000  0.4844500000000 1.0
C      1  0.4609550000000  0.5375530000000  0.4697330000000 1.0
C      1  0.5237020000000  0.5481410000000  0.4690500000000 1.0
C      1  0.5518740000000  0.4924490000000  0.4699920000000 1.0
C      1  0.5093600000000  0.4501180000000  0.4679030000000 1.0
C      1  0.4533970000000  0.4744950000000  0.4694250000000 1.0
C      1  0.4609550000000  0.5375530000000  0.5302670000000 1.0
C      1  0.5237020000000  0.5481410000000  0.5309500000000 1.0
C      1  0.5518740000000  0.4924490000000  0.5300080000000 1.0
C      1  0.5093600000000  0.4501180000000  0.5320970000000 1.0
C      1  0.4533970000000  0.4744950000000  0.5305750000000 1.0
C      1  0.4807690000000  0.5605410000000  0.5376120000000 1.0
C      1  0.5515930000000  0.5363460000000  0.5377970000000 1.0
C      1  0.5508020000000  0.4622650000000  0.5378180000000 1.0
C      1  0.4805820000000  0.4401520000000  0.5381160000000 1.0
C      1  0.4370080000000  0.4999450000000  0.5373550000000 1.0
C      1  0.4807690000000  0.5605410000000  0.4623880000000 1.0
C      1  0.5515930000000  0.5363460000000  0.4622030000000 1.0
C      1  0.5508020000000  0.4622650000000  0.4621820000000 1.0
C      1  0.4805820000000  0.4401520000000  0.4618840000000 1.0
C      1  0.4370080000000  0.4999450000000  0.4626450000000 1.0
END
