TITL C-38194-9318-438 -4.70047632203817e-06 125000 -363.971639700798 0 0 60 (C1) n - 1
REM
REM in /home/bkarasulu/CARBON/AIRSS/Generating-Clusters/EDIP-Nigel-Params/Higher-Symm/Box-15A/Only-C60/SD-CG/FIRE-HFTN
REM
REM
REM
REM
REM
REM ./C.cell (414f73aa93bd7a1190c7fd0f31ff2f98)
REM
REM compiler GCC version 9.2.1 20190827 (Red Hat 9.2.1-1)
REM options -cpp -mtune=generic -march=x86-64 -g -O0 -fpre-include=/usr/include/finclude/math-vector-fortran.h
REM seed 1746195968 73479006 1300587110 732564824 -693548040 264675356 -1494870088 608826049 2045559189 -586741156 814598769 -367423628 481639337 -936700376 857527986 -1175619252 -135643560 -1286793708 -816046004 1816242283 -1152312550 -1201158589 -2099898028 1479960187 429694700 938839935 412364687 1304412908 1220229933 84145106 69847342 608225315 637795657
REM
CELL 1.54180   50.00000   50.00000   50.00000   90.00000   90.00000   90.00000
LATT -1
SFAC C  
C      1  0.5300990000000  0.4998820000000  0.4429540000000 1.0
C      1  0.5325290000000  0.5143400000000  0.5537380000000 1.0
C      1  0.4360790000000  0.5095520000000  0.4998860000000 1.0
C      1  0.5223890000000  0.5501820000000  0.4612350000000 1.0
C      1  0.5192070000000  0.5365220000000  0.5376090000000 1.0
C      1  0.4556370000000  0.5336540000000  0.4977960000000 1.0
C      1  0.4593220000000  0.4365650000000  0.5075330000000 1.0
C      1  0.5169120000000  0.4296170000000  0.4656960000000 1.0
C      1  0.5223100000000  0.4407910000000  0.5424240000000 1.0
C      1  0.4684820000000  0.5095870000000  0.4477410000000 1.0
C      1  0.5654890000000  0.4992860000000  0.4806860000000 1.0
C      1  0.4746910000000  0.4983300000000  0.5680150000000 1.0
C      1  0.4615000000000  0.4564630000000  0.5471550000000 1.0
C      1  0.4718430000000  0.4607140000000  0.4403790000000 1.0
C      1  0.5609840000000  0.4608130000000  0.5104020000000 1.0
C      1  0.5331010000000  0.4886340000000  0.5368950000000 1.0
C      1  0.4476170000000  0.4823890000000  0.5098920000000 1.0
C      1  0.5164140000000  0.4742760000000  0.4537720000000 1.0
C      1  0.5571660000000  0.4999790000000  0.4371920000000 1.0
C      1  0.5209510000000  0.5108250000000  0.5787240000000 1.0
C      1  0.4230520000000  0.5074350000000  0.4754540000000 1.0
C      1  0.4516050000000  0.5492420000000  0.4735380000000 1.0
C      1  0.5460160000000  0.5590100000000  0.4742330000000 1.0
C      1  0.4986480000000  0.5516800000000  0.5522840000000 1.0
C      1  0.5401140000000  0.5135770000000  0.4885080000000 1.0
C      1  0.4753600000000  0.5098850000000  0.5405350000000 1.0
C      1  0.4908660000000  0.5095350000000  0.4693460000000 1.0
C      1  0.4600080000000  0.4738710000000  0.5696610000000 1.0
C      1  0.4708590000000  0.4877160000000  0.4290810000000 1.0
C      1  0.5774050000000  0.4813900000000  0.4992520000000 1.0
C      1  0.4909770000000  0.4338600000000  0.4761130000000 1.0
C      1  0.5184590000000  0.4375710000000  0.5145210000000 1.0
C      1  0.4889840000000  0.4318360000000  0.5054060000000 1.0
C      1  0.5220800000000  0.5776360000000  0.5122530000000 1.0
C      1  0.4742370000000  0.5766750000000  0.5114830000000 1.0
C      1  0.4984190000000  0.5782050000000  0.4971640000000 1.0
C      1  0.4761360000000  0.4877590000000  0.5156450000000 1.0
C      1  0.4961000000000  0.4816280000000  0.4765590000000 1.0
C      1  0.5232570000000  0.4957850000000  0.5082060000000 1.0
C      1  0.5604740000000  0.4774280000000  0.5339330000000 1.0
C      1  0.4389480000000  0.4720890000000  0.5369800000000 1.0
C      1  0.5000230000000  0.4624970000000  0.4315050000000 1.0
C      1  0.4958510000000  0.5039370000000  0.5853700000000 1.0
C      1  0.4413520000000  0.5122080000000  0.4558460000000 1.0
C      1  0.5768580000000  0.5026060000000  0.4553170000000 1.0
C      1  0.4519620000000  0.4588860000000  0.4909860000000 1.0
C      1  0.5320950000000  0.4530110000000  0.4689320000000 1.0
C      1  0.5128700000000  0.4671740000000  0.5464150000000 1.0
C      1  0.4860570000000  0.4623350000000  0.5299440000000 1.0
C      1  0.4757000000000  0.4596070000000  0.4708780000000 1.0
C      1  0.5332600000000  0.4589880000000  0.4987690000000 1.0
C      1  0.5475550000000  0.5419490000000  0.4968210000000 1.0
C      1  0.4750310000000  0.5399780000000  0.5419320000000 1.0
C      1  0.4729420000000  0.5593820000000  0.4598490000000 1.0
C      1  0.5359160000000  0.5546030000000  0.5206360000000 1.0
C      1  0.4610450000000  0.5531870000000  0.5201160000000 1.0
C      1  0.4980110000000  0.5637430000000  0.4715610000000 1.0
C      1  0.4827120000000  0.5208230000000  0.4951350000000 1.0
C      1  0.5207880000000  0.5194710000000  0.4635140000000 1.0
C      1  0.5052460000000  0.5194000000000  0.5165960000000 1.0
END
