TITL C-38195-9455-98 -4.46004159697701e-05 125000 -345.5206130157 0 0 60 (C2h) n - 1
REM
REM in /home/bkarasulu/CARBON/AIRSS/Generating-Clusters/EDIP-Nigel-Params/Higher-Symm/Box-15A/Only-C60/SD-CG/FIRE-HFTN
REM
REM
REM
REM
REM
REM ./C.cell (414f73aa93bd7a1190c7fd0f31ff2f98)
REM
REM compiler GCC version 9.2.1 20190827 (Red Hat 9.2.1-1)
REM options -cpp -mtune=generic -march=x86-64 -g -O0 -fpre-include=/usr/include/finclude/math-vector-fortran.h
REM seed 732662203 1187701216 -774489014 -52593914 18354702 1045426502 887810954 -645815933 -1868141032 1788264491 2083494171 892354446 -116328030 -165172994 344480360 -359872252 -1968715292 -478448748 1508241999 -1839458903 -1617890905 581205999 1977397022 1581877913 599016888 -1416449954 1944487729 -1672308097 -1032567602 -1247962515 1495856683 -720979971 -886862933
REM
CELL 1.54180   50.00000   50.00000   50.00000   90.00000   90.00000   90.00000
LATT -1
SFAC C  
C      1  0.5587510000000  0.4896930000000  0.5429380000000 1.0
C      1  0.5587510000000  0.5103070000000  0.4570620000000 1.0
C      1  0.4412490000000  0.4896930000000  0.5429380000000 1.0
C      1  0.4412490000000  0.5103070000000  0.4570620000000 1.0
C      1  0.5135960000000  0.4173830000000  0.4833080000000 1.0
C      1  0.5135960000000  0.5826170000000  0.5166920000000 1.0
C      1  0.4864040000000  0.4173830000000  0.4833080000000 1.0
C      1  0.4864040000000  0.5826170000000  0.5166920000000 1.0
C      1  0.5222080000000  0.4929580000000  0.4868650000000 1.0
C      1  0.5222080000000  0.5070420000000  0.5131350000000 1.0
C      1  0.4777920000000  0.4929580000000  0.4868650000000 1.0
C      1  0.4777920000000  0.5070420000000  0.5131350000000 1.0
C      1  0.4718380000000  0.4667490000000  0.4500050000000 1.0
C      1  0.4718380000000  0.5332510000000  0.5499950000000 1.0
C      1  0.5281620000000  0.4667490000000  0.4500050000000 1.0
C      1  0.5281620000000  0.5332510000000  0.5499950000000 1.0
C      1  0.4555230000000  0.4894240000000  0.4423950000000 1.0
C      1  0.4555230000000  0.5105760000000  0.5576050000000 1.0
C      1  0.5444770000000  0.4894240000000  0.4423950000000 1.0
C      1  0.5444770000000  0.5105760000000  0.5576050000000 1.0
C      1  0.5777020000000  0.4951420000000  0.5214020000000 1.0
C      1  0.5777020000000  0.5048580000000  0.4785980000000 1.0
C      1  0.4222980000000  0.4951420000000  0.5214020000000 1.0
C      1  0.4222980000000  0.5048580000000  0.4785980000000 1.0
C      1  0.5255990000000  0.4407390000000  0.4937170000000 1.0
C      1  0.5255990000000  0.5592610000000  0.5062830000000 1.0
C      1  0.4744010000000  0.4407390000000  0.4937170000000 1.0
C      1  0.4744010000000  0.5592610000000  0.5062830000000 1.0
C      1  0.4045800000000  0.4595000000000  0.4908780000000 1.0
C      1  0.4045800000000  0.5405000000000  0.5091220000000 1.0
C      1  0.5954200000000  0.4595000000000  0.4908780000000 1.0
C      1  0.5954200000000  0.5405000000000  0.5091220000000 1.0
C      1  0.5293450000000  0.4656970000000  0.5367410000000 1.0
C      1  0.5293450000000  0.5343030000000  0.4632590000000 1.0
C      1  0.4706550000000  0.4656970000000  0.5367410000000 1.0
C      1  0.4706550000000  0.5343030000000  0.4632590000000 1.0
C      1  0.5161480000000  0.4919020000000  0.5385900000000 1.0
C      1  0.5161480000000  0.5080980000000  0.4614100000000 1.0
C      1  0.4838520000000  0.4919020000000  0.5385900000000 1.0
C      1  0.4838520000000  0.5080980000000  0.4614100000000 1.0
C      1  0.5158380000000  0.5352610000000  0.5225470000000 1.0
C      1  0.5158380000000  0.4647390000000  0.4774530000000 1.0
C      1  0.4841620000000  0.5352610000000  0.5225470000000 1.0
C      1  0.4841620000000  0.4647390000000  0.4774530000000 1.0
C      1  0.5153260000000  0.4455610000000  0.5212270000000 1.0
C      1  0.5153260000000  0.5544390000000  0.4787730000000 1.0
C      1  0.4846740000000  0.4455610000000  0.5212270000000 1.0
C      1  0.4846740000000  0.5544390000000  0.4787730000000 1.0
C      1  0.4860150000000  0.4556320000000  0.4029030000000 1.0
C      1  0.4860150000000  0.5443680000000  0.5970970000000 1.0
C      1  0.5139850000000  0.4556320000000  0.4029030000000 1.0
C      1  0.5139850000000  0.5443680000000  0.5970970000000 1.0
C      1  0.4808350000000  0.5516500000000  0.5699970000000 1.0
C      1  0.4808350000000  0.4483500000000  0.4300030000000 1.0
C      1  0.5191650000000  0.5516500000000  0.5699970000000 1.0
C      1  0.5191650000000  0.4483500000000  0.4300030000000 1.0
C      1  0.4224420000000  0.5214080000000  0.5048440000000 1.0
C      1  0.4224420000000  0.4785920000000  0.4951560000000 1.0
C      1  0.5775580000000  0.5214080000000  0.5048440000000 1.0
C      1  0.5775580000000  0.4785920000000  0.4951560000000 1.0
END
