TITL C-38197-8510-586 2.58446809629195e-05 125000 -374.439346513347 0 0 60 (C1) n - 1
REM
REM in /home/bkarasulu/CARBON/AIRSS/Generating-Clusters/EDIP-Nigel-Params/Higher-Symm/Box-15A/Only-C60/SD-CG/FIRE-HFTN
REM
REM
REM
REM
REM
REM ./C.cell (414f73aa93bd7a1190c7fd0f31ff2f98)
REM
REM compiler GCC version 9.2.1 20190827 (Red Hat 9.2.1-1)
REM options -cpp -mtune=generic -march=x86-64 -g -O0 -fpre-include=/usr/include/finclude/math-vector-fortran.h
REM seed -447070397 -679377091 -1817784236 817021337 1209246884 -422517583 -1053419036 -1401992167 -1996939807 -386452564 -1602439695 322842844 -1451870352 1621257750 -495010078 1730793334 -477196539 -2146671610 -984492593 1320390922 82232936 904097751 -894901896 -314321867 609724477 1418208761 1990656584 -1045107487 -667780732 1406844714 1963237063 -161433316 2105195245
REM
CELL 1.54180   50.00000   50.00000   50.00000   90.00000   90.00000   90.00000
LATT -1
SFAC C  
C      1  0.4941350000000  0.4733150000000  0.5682000000000 1.0
C      1  0.5247310000000  0.4715010000000  0.5740640000000 1.0
C      1  0.5385240000000  0.4980810000000  0.5741020000000 1.0
C      1  0.5195490000000  0.5223140000000  0.5688200000000 1.0
C      1  0.4922870000000  0.5372850000000  0.5747000000000 1.0
C      1  0.4692990000000  0.5168260000000  0.5702900000000 1.0
C      1  0.4660450000000  0.4862660000000  0.5744130000000 1.0
C      1  0.5126800000000  0.4449220000000  0.5343580000000 1.0
C      1  0.5527010000000  0.4738740000000  0.5341790000000 1.0
C      1  0.5533380000000  0.5241250000000  0.5348730000000 1.0
C      1  0.5152820000000  0.5558900000000  0.5349940000000 1.0
C      1  0.4658780000000  0.5465010000000  0.5338080000000 1.0
C      1  0.4427680000000  0.5024270000000  0.5336250000000 1.0
C      1  0.4642220000000  0.4577330000000  0.5342140000000 1.0
C      1  0.5249530000000  0.5291160000000  0.4391990000000 1.0
C      1  0.4953920000000  0.5286730000000  0.4517230000000 1.0
C      1  0.4685680000000  0.5185860000000  0.4423580000000 1.0
C      1  0.4683080000000  0.4852770000000  0.4427670000000 1.0
C      1  0.4929750000000  0.4674370000000  0.4476570000000 1.0
C      1  0.5227250000000  0.4716760000000  0.4405020000000 1.0
C      1  0.5300310000000  0.4996670000000  0.4511580000000 1.0
C      1  0.4504410000000  0.5265080000000  0.5495380000000 1.0
C      1  0.4488500000000  0.4779830000000  0.5507290000000 1.0
C      1  0.4880580000000  0.4500200000000  0.5502290000000 1.0
C      1  0.5358370000000  0.4554180000000  0.5509300000000 1.0
C      1  0.5578050000000  0.4985490000000  0.5507540000000 1.0
C      1  0.5351840000000  0.5410280000000  0.5512320000000 1.0
C      1  0.4893050000000  0.5559310000000  0.5508870000000 1.0
C      1  0.5325690000000  0.4999920000000  0.4024360000000 1.0
C      1  0.5214330000000  0.5246130000000  0.4094260000000 1.0
C      1  0.4946840000000  0.5268440000000  0.4017030000000 1.0
C      1  0.4700150000000  0.5172210000000  0.4109790000000 1.0
C      1  0.4690360000000  0.4869850000000  0.4110440000000 1.0
C      1  0.4934500000000  0.4756250000000  0.4025690000000 1.0
C      1  0.5204590000000  0.4761130000000  0.4103220000000 1.0
C      1  0.4753310000000  0.5328650000000  0.5087570000000 1.0
C      1  0.4594650000000  0.5018650000000  0.5082890000000 1.0
C      1  0.4736390000000  0.4704330000000  0.5086350000000 1.0
C      1  0.5109150000000  0.4606520000000  0.5087670000000 1.0
C      1  0.5375560000000  0.4806070000000  0.5089000000000 1.0
C      1  0.5386780000000  0.5188850000000  0.5090960000000 1.0
C      1  0.5128280000000  0.5406530000000  0.5091260000000 1.0
C      1  0.4501610000000  0.5269050000000  0.4663360000000 1.0
C      1  0.4493790000000  0.4776720000000  0.4662020000000 1.0
C      1  0.4878180000000  0.4472210000000  0.4682280000000 1.0
C      1  0.5358990000000  0.4549330000000  0.4663060000000 1.0
C      1  0.5546000000000  0.4993550000000  0.4680710000000 1.0
C      1  0.5386210000000  0.5450460000000  0.4669360000000 1.0
C      1  0.4910170000000  0.5529740000000  0.4684200000000 1.0
C      1  0.5521350000000  0.4740280000000  0.4833310000000 1.0
C      1  0.5536110000000  0.5247930000000  0.4835380000000 1.0
C      1  0.5162550000000  0.5564510000000  0.4837120000000 1.0
C      1  0.4662100000000  0.5461950000000  0.4835290000000 1.0
C      1  0.4434710000000  0.5023370000000  0.4823240000000 1.0
C      1  0.4639020000000  0.4572930000000  0.4834160000000 1.0
C      1  0.5133150000000  0.4443840000000  0.4834750000000 1.0
C      1  0.5021610000000  0.5018460000000  0.4663270000000 1.0
C      1  0.5015560000000  0.5009770000000  0.4948510000000 1.0
C      1  0.5013000000000  0.5008040000000  0.5227570000000 1.0
C      1  0.5002490000000  0.5011550000000  0.5518970000000 1.0
END
