TITL C-38193-7935-332 1.38109554312061e-06 125000 -369.636439122817 0 0 60 (C6h) n - 1
REM
REM in /home/bkarasulu/CARBON/AIRSS/Generating-Clusters/EDIP-Nigel-Params/Higher-Symm/Box-15A/Only-C60/SD-CG/FIRE-HFTN
REM
REM
REM
REM
REM
REM ./C.cell (414f73aa93bd7a1190c7fd0f31ff2f98)
REM
REM compiler GCC version 9.2.1 20190827 (Red Hat 9.2.1-1)
REM options -cpp -mtune=generic -march=x86-64 -g -O0 -fpre-include=/usr/include/finclude/math-vector-fortran.h
REM seed -980219959 374639187 -588666267 1309305248 1069207815 -1758816207 -1278524238 2060224370 1372206529 139992657 -563850665 -167237866 -1176034531 -607387642 1797184521 -1777849101 531710414 -887874326 1431425586 1258026130 57737561 1635752828 -743274027 1442910803 -144280779 -1656162269 -1271978071 1502187745 115128534 1707840106 583995861 -1170746691 1187606836
REM
CELL 1.54180   50.00000   50.00000   50.00000   90.00000   90.00000   90.00000
LATT -1
SFAC C  
C      1  0.4855170000000  0.5629850000000  0.5484850000000 1.0
C      1  0.5473050000000  0.5440350000000  0.5484850000000 1.0
C      1  0.5617880000000  0.4810500000000  0.5484850000000 1.0
C      1  0.5144830000000  0.4370150000000  0.5484850000000 1.0
C      1  0.4526950000000  0.4559650000000  0.5484850000000 1.0
C      1  0.4382120000000  0.5189500000000  0.5484850000000 1.0
C      1  0.5144830000000  0.5629850000000  0.5484850000000 1.0
C      1  0.4526950000000  0.5440350000000  0.5484850000000 1.0
C      1  0.4382120000000  0.4810500000000  0.5484850000000 1.0
C      1  0.4855170000000  0.4370150000000  0.5484850000000 1.0
C      1  0.5473050000000  0.4559650000000  0.5484850000000 1.0
C      1  0.5617880000000  0.5189500000000  0.5484850000000 1.0
C      1  0.5144830000000  0.5629850000000  0.4515150000000 1.0
C      1  0.5617880000000  0.5189500000000  0.4515150000000 1.0
C      1  0.5473050000000  0.4559650000000  0.4515150000000 1.0
C      1  0.4855170000000  0.4370150000000  0.4515150000000 1.0
C      1  0.4382120000000  0.4810500000000  0.4515150000000 1.0
C      1  0.4526950000000  0.5440350000000  0.4515150000000 1.0
C      1  0.4855170000000  0.5629850000000  0.4515150000000 1.0
C      1  0.4382120000000  0.5189500000000  0.4515150000000 1.0
C      1  0.4526950000000  0.4559650000000  0.4515150000000 1.0
C      1  0.5144830000000  0.4370150000000  0.4515150000000 1.0
C      1  0.5617880000000  0.4810500000000  0.4515150000000 1.0
C      1  0.5473050000000  0.5440350000000  0.4515150000000 1.0
C      1  0.4474400000000  0.5621240000000  0.4741030000000 1.0
C      1  0.5275200000000  0.5765800000000  0.4741030000000 1.0
C      1  0.5800810000000  0.5144570000000  0.4741030000000 1.0
C      1  0.5525600000000  0.4378760000000  0.4741030000000 1.0
C      1  0.4724800000000  0.4234200000000  0.4741030000000 1.0
C      1  0.4199190000000  0.4855430000000  0.4741030000000 1.0
C      1  0.5525600000000  0.5621240000000  0.4741030000000 1.0
C      1  0.4724800000000  0.5765800000000  0.4741030000000 1.0
C      1  0.4199190000000  0.5144570000000  0.4741030000000 1.0
C      1  0.4474400000000  0.4378760000000  0.4741030000000 1.0
C      1  0.5275200000000  0.4234200000000  0.4741030000000 1.0
C      1  0.5800810000000  0.4855430000000  0.4741030000000 1.0
C      1  0.5275200000000  0.5765800000000  0.5258970000000 1.0
C      1  0.5800810000000  0.5144570000000  0.5258970000000 1.0
C      1  0.5525600000000  0.4378760000000  0.5258970000000 1.0
C      1  0.4724800000000  0.4234200000000  0.5258970000000 1.0
C      1  0.4199190000000  0.4855430000000  0.5258970000000 1.0
C      1  0.4474400000000  0.5621240000000  0.5258970000000 1.0
C      1  0.4724800000000  0.5765800000000  0.5258970000000 1.0
C      1  0.4199190000000  0.5144570000000  0.5258970000000 1.0
C      1  0.4474400000000  0.4378760000000  0.5258970000000 1.0
C      1  0.5275200000000  0.4234200000000  0.5258970000000 1.0
C      1  0.5800810000000  0.4855430000000  0.5258970000000 1.0
C      1  0.5525600000000  0.5621240000000  0.5258970000000 1.0
C      1  0.4277670000000  0.4745800000000  0.5000000000000 1.0
C      1  0.4418700000000  0.5498460000000  0.5000000000000 1.0
C      1  0.5141020000000  0.5752650000000  0.5000000000000 1.0
C      1  0.5722330000000  0.5254200000000  0.5000000000000 1.0
C      1  0.5581300000000  0.4501540000000  0.5000000000000 1.0
C      1  0.4858980000000  0.4247350000000  0.5000000000000 1.0
C      1  0.5722330000000  0.4745800000000  0.5000000000000 1.0
C      1  0.5581300000000  0.5498460000000  0.5000000000000 1.0
C      1  0.4858980000000  0.5752650000000  0.5000000000000 1.0
C      1  0.4277670000000  0.5254200000000  0.5000000000000 1.0
C      1  0.4418700000000  0.4501540000000  0.5000000000000 1.0
C      1  0.5141020000000  0.4247350000000  0.5000000000000 1.0
END
