TITL C-38191-7580-239 -1.82099518259326e-06 125000 -379.063369058059 0 0 60 (Td) n - 1
REM
REM in /home/bkarasulu/CARBON/AIRSS/Generating-Clusters/EDIP-Nigel-Params/Higher-Symm/Box-15A/Only-C60/SD-CG/FIRE-HFTN
REM
REM
REM
REM
REM
REM ./C.cell (414f73aa93bd7a1190c7fd0f31ff2f98)
REM
REM compiler GCC version 9.2.1 20190827 (Red Hat 9.2.1-1)
REM options -cpp -mtune=generic -march=x86-64 -g -O0 -fpre-include=/usr/include/finclude/math-vector-fortran.h
REM seed -2010202637 135189709 893686417 989058748 764112174 -847221295 -1126095105 -1793878135 53318507 -1414059642 -1005908379 266958376 755460195 -1653644960 -327328910 1655966096 2127567821 -1881190251 -1784746160 2050999064 -1229770235 -1745333329 364034529 812216152 -129707516 -46158596 -474974887 2058552178 1955264982 -425994720 -2057685488 588081546 1885439689
REM
CELL 1.54180   50.00000   50.00000   50.00000   90.00000   90.00000   90.00000
LATT -1
SFAC C  
C      1  0.5501900000000  0.5095980000000  0.4704550000000 1.0
C      1  0.4700920000000  0.5499700000000  0.5093420000000 1.0
C      1  0.5092820000000  0.4700980000000  0.5501830000000 1.0
C      1  0.4493550000000  0.4904450000000  0.4693400000000 1.0
C      1  0.4493560000000  0.5095560000000  0.5306610000000 1.0
C      1  0.5501910000000  0.4904020000000  0.5295440000000 1.0
C      1  0.5302450000000  0.4491860000000  0.5097550000000 1.0
C      1  0.5302460000000  0.5508140000000  0.4902440000000 1.0
C      1  0.4700920000000  0.4500310000000  0.4906580000000 1.0
C      1  0.4901370000000  0.5303370000000  0.5506750000000 1.0
C      1  0.4901360000000  0.4696630000000  0.4493250000000 1.0
C      1  0.5092820000000  0.5299020000000  0.4498170000000 1.0
C      1  0.5098630000000  0.5506750000000  0.4696630000000 1.0
C      1  0.5506450000000  0.4693390000000  0.5095550000000 1.0
C      1  0.4697550000000  0.5097560000000  0.5508140000000 1.0
C      1  0.4907180000000  0.4498170000000  0.4700980000000 1.0
C      1  0.5098630000000  0.4493250000000  0.5303370000000 1.0
C      1  0.4907190000000  0.5501830000000  0.5299020000000 1.0
C      1  0.4498100000000  0.5295450000000  0.5095990000000 1.0
C      1  0.5506450000000  0.5306600000000  0.4904440000000 1.0
C      1  0.4498090000000  0.4704560000000  0.4904020000000 1.0
C      1  0.5299080000000  0.4906580000000  0.5499690000000 1.0
C      1  0.4697540000000  0.4902440000000  0.4491860000000 1.0
C      1  0.5299070000000  0.5093420000000  0.4500300000000 1.0
C      1  0.5681090000000  0.5347520000000  0.5138240000000 1.0
C      1  0.5138930000000  0.5678780000000  0.5343720000000 1.0
C      1  0.5343410000000  0.5138780000000  0.5676130000000 1.0
C      1  0.4311700000000  0.4663760000000  0.5128770000000 1.0
C      1  0.4311700000000  0.5336250000000  0.4871240000000 1.0
C      1  0.5681080000000  0.4652470000000  0.4861750000000 1.0
C      1  0.4871110000000  0.4309810000000  0.5340300000000 1.0
C      1  0.4871110000000  0.5690190000000  0.4659700000000 1.0
C      1  0.5138910000000  0.4321220000000  0.4656280000000 1.0
C      1  0.4659900000000  0.4870930000000  0.5692370000000 1.0
C      1  0.4659890000000  0.5129070000000  0.4307630000000 1.0
C      1  0.5343400000000  0.4861220000000  0.4323870000000 1.0
C      1  0.5340110000000  0.5692370000000  0.5129060000000 1.0
C      1  0.5688300000000  0.5128760000000  0.5336240000000 1.0
C      1  0.5128900000000  0.5340300000000  0.5690190000000 1.0
C      1  0.4656600000000  0.4323870000000  0.5138780000000 1.0
C      1  0.5340100000000  0.4307630000000  0.4870930000000 1.0
C      1  0.4656600000000  0.5676130000000  0.4861220000000 1.0
C      1  0.4318920000000  0.4861760000000  0.5347530000000 1.0
C      1  0.5688300000000  0.4871230000000  0.4663750000000 1.0
C      1  0.4318910000000  0.5138250000000  0.4652480000000 1.0
C      1  0.4861080000000  0.4656280000000  0.5678780000000 1.0
C      1  0.5128880000000  0.4659700000000  0.4309810000000 1.0
C      1  0.4861080000000  0.5343720000000  0.4321220000000 1.0
C      1  0.5296780000000  0.5568390000000  0.5578750000000 1.0
C      1  0.5578110000000  0.5296470000000  0.5565530000000 1.0
C      1  0.4421890000000  0.5565530000000  0.4703540000000 1.0
C      1  0.5568540000000  0.4418500000000  0.4702720000000 1.0
C      1  0.4703230000000  0.4421250000000  0.5568390000000 1.0
C      1  0.4703230000000  0.5578750000000  0.4431620000000 1.0
C      1  0.4431460000000  0.4702730000000  0.5581500000000 1.0
C      1  0.4431460000000  0.5297270000000  0.4418510000000 1.0
C      1  0.5578100000000  0.4703530000000  0.4434460000000 1.0
C      1  0.5568550000000  0.5581490000000  0.5297270000000 1.0
C      1  0.4421890000000  0.4434470000000  0.5296470000000 1.0
C      1  0.5296760000000  0.4431610000000  0.4421250000000 1.0
END
