TITL C-38190-6388-86 -2.74746582271727e-05 125000 -350.471791199282 0 0 60 (C1) n - 1
REM
REM in /home/bkarasulu/CARBON/AIRSS/Generating-Clusters/EDIP-Nigel-Params/Higher-Symm/Box-15A/Only-C60/SD-CG/FIRE-HFTN
REM
REM
REM
REM
REM
REM ./C.cell (414f73aa93bd7a1190c7fd0f31ff2f98)
REM
REM compiler GCC version 9.2.1 20190827 (Red Hat 9.2.1-1)
REM options -cpp -mtune=generic -march=x86-64 -g -O0 -fpre-include=/usr/include/finclude/math-vector-fortran.h
REM seed -1351482774 -295666138 -565373171 1370652564 1428469905 1488477004 -1517449853 -225401489 -992831326 -157734123 -428507559 1054721386 1825347798 1125063746 12163246 -730827988 -858975942 -344369444 328011559 -1256372503 -437107558 -860724297 -833622764 -158406132 956024420 1175164221 582067005 -678151054 -1412943851 1275654317 -764674137 -214983067 -1212562518
REM
CELL 1.54180   50.00000   50.00000   50.00000   90.00000   90.00000   90.00000
LATT -1
SFAC C  
C      1  0.4551650000000  0.4511730000000  0.4758670000000 1.0
C      1  0.4407040000000  0.4706910000000  0.4600130000000 1.0
C      1  0.4800390000000  0.4387830000000  0.4655240000000 1.0
C      1  0.5654950000000  0.4624020000000  0.5197530000000 1.0
C      1  0.5357000000000  0.5656390000000  0.4795450000000 1.0
C      1  0.4589290000000  0.5424250000000  0.5255900000000 1.0
C      1  0.5523120000000  0.4685490000000  0.5468660000000 1.0
C      1  0.5499130000000  0.5201310000000  0.4555670000000 1.0
C      1  0.4422670000000  0.5322770000000  0.5469030000000 1.0
C      1  0.5259770000000  0.4562280000000  0.5508120000000 1.0
C      1  0.5296590000000  0.5511830000000  0.4545000000000 1.0
C      1  0.4714470000000  0.5580280000000  0.5471360000000 1.0
C      1  0.4527260000000  0.5444660000000  0.4723180000000 1.0
C      1  0.4449250000000  0.5196630000000  0.4609200000000 1.0
C      1  0.4768260000000  0.5560100000000  0.4608610000000 1.0
C      1  0.5478840000000  0.5525050000000  0.5244410000000 1.0
C      1  0.5489420000000  0.4486700000000  0.4717170000000 1.0
C      1  0.4511320000000  0.4570790000000  0.5299700000000 1.0
C      1  0.5493740000000  0.5228410000000  0.5627640000000 1.0
C      1  0.5381330000000  0.4709070000000  0.4557920000000 1.0
C      1  0.4362690000000  0.4829210000000  0.5346610000000 1.0
C      1  0.5381890000000  0.5478760000000  0.5503100000000 1.0
C      1  0.5228550000000  0.4498160000000  0.4431020000000 1.0
C      1  0.4753580000000  0.4511140000000  0.5436870000000 1.0
C      1  0.4521430000000  0.4948770000000  0.4490240000000 1.0
C      1  0.5023190000000  0.4525210000000  0.5355360000000 1.0
C      1  0.5018890000000  0.5518020000000  0.4488400000000 1.0
C      1  0.5513960000000  0.4481250000000  0.4996580000000 1.0
C      1  0.4489340000000  0.5496150000000  0.5000300000000 1.0
C      1  0.5575440000000  0.4956370000000  0.5578960000000 1.0
C      1  0.5428510000000  0.4961100000000  0.4401570000000 1.0
C      1  0.4470790000000  0.5038610000000  0.5537290000000 1.0
C      1  0.4940710000000  0.4511920000000  0.4430290000000 1.0
C      1  0.4485790000000  0.4484070000000  0.5032030000000 1.0
C      1  0.5012920000000  0.5558130000000  0.5502260000000 1.0
C      1  0.5515350000000  0.5476100000000  0.4967510000000 1.0
C      1  0.5184220000000  0.5096660000000  0.5443090000000 1.0
C      1  0.5017360000000  0.5326660000000  0.5313930000000 1.0
C      1  0.5414890000000  0.5209800000000  0.4847670000000 1.0
C      1  0.4781580000000  0.4914610000000  0.4367900000000 1.0
C      1  0.4749640000000  0.5049320000000  0.5426440000000 1.0
C      1  0.5093280000000  0.5086260000000  0.4663340000000 1.0
C      1  0.4919810000000  0.5273820000000  0.4824570000000 1.0
C      1  0.5041240000000  0.4732130000000  0.5148300000000 1.0
C      1  0.4969910000000  0.4793790000000  0.4686960000000 1.0
C      1  0.4703630000000  0.5111700000000  0.4961370000000 1.0
C      1  0.4766590000000  0.4893930000000  0.5167560000000 1.0
C      1  0.5279190000000  0.4896090000000  0.5241510000000 1.0
C      1  0.5731320000000  0.4870240000000  0.5073990000000 1.0
C      1  0.4953880000000  0.5072050000000  0.5872660000000 1.0
C      1  0.5125600000000  0.5687200000000  0.4965490000000 1.0
C      1  0.4241430000000  0.4936880000000  0.5111060000000 1.0
C      1  0.5229210000000  0.5022480000000  0.4207060000000 1.0
C      1  0.4991220000000  0.4343160000000  0.4862330000000 1.0
C      1  0.4971760000000  0.4981040000000  0.5624290000000 1.0
C      1  0.5008640000000  0.5095580000000  0.4369730000000 1.0
C      1  0.5080040000000  0.5409220000000  0.5031830000000 1.0
C      1  0.5477680000000  0.4992210000000  0.5035670000000 1.0
C      1  0.5101750000000  0.4608990000000  0.4887850000000 1.0
C      1  0.4463800000000  0.4907530000000  0.4926720000000 1.0
END
