TITL C-38195-9455-537 4.78054440614831e-07 125000 -365.990962727532 0 0 60 (C1) n - 1
REM
REM in /home/bkarasulu/CARBON/AIRSS/Generating-Clusters/EDIP-Nigel-Params/Higher-Symm/Box-15A/Only-C60/SD-CG/FIRE-HFTN
REM
REM
REM
REM
REM
REM ./C.cell (414f73aa93bd7a1190c7fd0f31ff2f98)
REM
REM compiler GCC version 9.2.1 20190827 (Red Hat 9.2.1-1)
REM options -cpp -mtune=generic -march=x86-64 -g -O0 -fpre-include=/usr/include/finclude/math-vector-fortran.h
REM seed 1050829423 -149121288 437413841 1309550385 1501852801 302812608 310538392 -1324828548 -754427532 -1314478921 288221812 648858627 -77764924 -478973295 -1514914535 -327559777 -1112480663 215157858 -1879152700 437709756 904461230 -825576322 -1616798588 -1975070312 423655985 -324358962 1565613134 2015563206 -576801019 -735864764 1078429050 -880666671 14512903
REM
CELL 1.54180   50.00000   50.00000   50.00000   90.00000   90.00000   90.00000
LATT -1
SFAC C  
C      1  0.5173170000000  0.4179830000000  0.5122470000000 1.0
C      1  0.4226200000000  0.5265430000000  0.5117140000000 1.0
C      1  0.5614020000000  0.5511470000000  0.5085010000000 1.0
C      1  0.4800960000000  0.5274730000000  0.5494450000000 1.0
C      1  0.5339790000000  0.5034260000000  0.5485180000000 1.0
C      1  0.4879570000000  0.4681790000000  0.5496850000000 1.0
C      1  0.5470570000000  0.5598950000000  0.5317230000000 1.0
C      1  0.5344140000000  0.4272010000000  0.5335060000000 1.0
C      1  0.4231530000000  0.5060610000000  0.5318160000000 1.0
C      1  0.4527080000000  0.5671350000000  0.5053290000000 1.0
C      1  0.5802360000000  0.5054310000000  0.5157650000000 1.0
C      1  0.4680840000000  0.4263870000000  0.5034090000000 1.0
C      1  0.5061270000000  0.5282370000000  0.4540950000000 1.0
C      1  0.5180740000000  0.4788880000000  0.4552290000000 1.0
C      1  0.4733860000000  0.4940150000000  0.4557700000000 1.0
C      1  0.4795640000000  0.5701690000000  0.5081860000000 1.0
C      1  0.5716990000000  0.4799630000000  0.5131450000000 1.0
C      1  0.4529810000000  0.4488480000000  0.5060620000000 1.0
C      1  0.4506270000000  0.4957740000000  0.5273700000000 1.0
C      1  0.5217300000000  0.5455330000000  0.5277620000000 1.0
C      1  0.5307270000000  0.4564650000000  0.5299780000000 1.0
C      1  0.4845820000000  0.4961170000000  0.4275950000000 1.0
C      1  0.5014450000000  0.5199810000000  0.4260630000000 1.0
C      1  0.5106660000000  0.4828080000000  0.4268590000000 1.0
C      1  0.5493540000000  0.5620010000000  0.4855370000000 1.0
C      1  0.5272480000000  0.4276890000000  0.4876930000000 1.0
C      1  0.4254610000000  0.5141830000000  0.4865050000000 1.0
C      1  0.5482740000000  0.4659470000000  0.5077620000000 1.0
C      1  0.4496770000000  0.4765840000000  0.5041180000000 1.0
C      1  0.5056130000000  0.5598440000000  0.5059510000000 1.0
C      1  0.5239760000000  0.5066220000000  0.4686650000000 1.0
C      1  0.4916970000000  0.4718320000000  0.4700910000000 1.0
C      1  0.4791270000000  0.5228440000000  0.4685910000000 1.0
C      1  0.4672690000000  0.5223880000000  0.5221740000000 1.0
C      1  0.5317290000000  0.5165480000000  0.5203850000000 1.0
C      1  0.5003490000000  0.4589590000000  0.5233840000000 1.0
C      1  0.4628110000000  0.5460260000000  0.4610750000000 1.0
C      1  0.5528060000000  0.5098510000000  0.4656950000000 1.0
C      1  0.4787770000000  0.4464500000000  0.4627780000000 1.0
C      1  0.4915180000000  0.4307450000000  0.5183770000000 1.0
C      1  0.4460240000000  0.5430880000000  0.5183880000000 1.0
C      1  0.5586880000000  0.5218600000000  0.5078270000000 1.0
C      1  0.4810210000000  0.5660460000000  0.4562420000000 1.0
C      1  0.5632860000000  0.4854280000000  0.4590680000000 1.0
C      1  0.4531950000000  0.4533240000000  0.4551700000000 1.0
C      1  0.4973390000000  0.4777980000000  0.4997620000000 1.0
C      1  0.4864890000000  0.5208400000000  0.4979760000000 1.0
C      1  0.5114190000000  0.5044580000000  0.4986170000000 1.0
C      1  0.5071790000000  0.5383190000000  0.5530810000000 1.0
C      1  0.5314260000000  0.4744200000000  0.5543330000000 1.0
C      1  0.4647810000000  0.4861290000000  0.5523800000000 1.0
C      1  0.5234350000000  0.5208550000000  0.5684960000000 1.0
C      1  0.5080100000000  0.4696660000000  0.5699020000000 1.0
C      1  0.4710220000000  0.5085440000000  0.5687260000000 1.0
C      1  0.5445660000000  0.4641770000000  0.4590980000000 1.0
C      1  0.4460270000000  0.4808300000000  0.4564610000000 1.0
C      1  0.5085450000000  0.5588120000000  0.4570630000000 1.0
C      1  0.5456410000000  0.4488450000000  0.4842120000000 1.0
C      1  0.4339250000000  0.4875970000000  0.4822520000000 1.0
C      1  0.5216660000000  0.5667930000000  0.4823920000000 1.0
END
