TITL C-38196-2854-270 -0.0289114618100096 125000 -358.841348823871 0 0 60 (C1) n - 1
REM
REM in /home/bkarasulu/CARBON/AIRSS/Generating-Clusters/EDIP-Nigel-Params/Higher-Symm/Box-15A/Only-C60/SD-CG/FIRE-HFTN
REM
REM
REM
REM
REM
REM ./C.cell (414f73aa93bd7a1190c7fd0f31ff2f98)
REM
REM compiler GCC version 9.2.1 20190827 (Red Hat 9.2.1-1)
REM options -cpp -mtune=generic -march=x86-64 -g -O0 -fpre-include=/usr/include/finclude/math-vector-fortran.h
REM seed -188869647 -1865827638 -180604867 1450418884 -1664990598 -633466898 -820370393 -888424287 1573410261 1179762575 2087046189 1832694166 -377312926 1229428211 -1879763830 -104815462 813259612 -1896423816 -425421729 2225637 -148199612 612047062 -2097891060 -1723109755 333419159 -146743115 124572018 -1503604479 383316013 -846375479 1556799680 -1035128937 -1703505943
REM
CELL 1.54180   50.00000   50.00000   50.00000   90.00000   90.00000   90.00000
LATT -1
SFAC C  
C      1  0.5023720000000  0.5267210000000  0.5512870000000 1.0
C      1  0.5054840000000  0.5305510000000  0.4486180000000 1.0
C      1  0.5070420000000  0.4433320000000  0.4990430000000 1.0
C      1  0.4526090000000  0.5026920000000  0.5535370000000 1.0
C      1  0.4536270000000  0.5391450000000  0.4717250000000 1.0
C      1  0.4560950000000  0.4516070000000  0.4822070000000 1.0
C      1  0.4696130000000  0.4586720000000  0.5487700000000 1.0
C      1  0.4726230000000  0.5576240000000  0.5139200000000 1.0
C      1  0.4689140000000  0.4783910000000  0.4451630000000 1.0
C      1  0.4300690000000  0.4970460000000  0.4740280000000 1.0
C      1  0.4311800000000  0.4743350000000  0.5168420000000 1.0
C      1  0.4305870000000  0.5226850000000  0.5151720000000 1.0
C      1  0.4643950000000  0.4408170000000  0.5275100000000 1.0
C      1  0.4641500000000  0.5468720000000  0.5408960000000 1.0
C      1  0.4622860000000  0.5052080000000  0.4392610000000 1.0
C      1  0.5012770000000  0.5336920000000  0.5221230000000 1.0
C      1  0.5255410000000  0.5092420000000  0.4465000000000 1.0
C      1  0.5256590000000  0.4533030000000  0.5183420000000 1.0
C      1  0.5706260000000  0.5175890000000  0.4753410000000 1.0
C      1  0.5650740000000  0.4710010000000  0.4932120000000 1.0
C      1  0.5635050000000  0.5135380000000  0.5308720000000 1.0
C      1  0.4445900000000  0.4497820000000  0.5080690000000 1.0
C      1  0.4431640000000  0.5264390000000  0.5413440000000 1.0
C      1  0.4427210000000  0.5173890000000  0.4571730000000 1.0
C      1  0.4855420000000  0.4312330000000  0.5120840000000 1.0
C      1  0.4821370000000  0.5427390000000  0.5627150000000 1.0
C      1  0.4825850000000  0.5236130000000  0.4342750000000 1.0
C      1  0.5519270000000  0.4873260000000  0.5375410000000 1.0
C      1  0.5596600000000  0.5409350000000  0.4880740000000 1.0
C      1  0.5527420000000  0.4743350000000  0.4655010000000 1.0
C      1  0.4029580000000  0.4743380000000  0.5163560000000 1.0
C      1  0.4023860000000  0.5215770000000  0.5151360000000 1.0
C      1  0.4018630000000  0.4969990000000  0.4749370000000 1.0
C      1  0.5259800000000  0.5484940000000  0.5155280000000 1.0
C      1  0.5174090000000  0.4844450000000  0.4350470000000 1.0
C      1  0.5201670000000  0.4526640000000  0.5463150000000 1.0
C      1  0.4750950000000  0.5515520000000  0.4849190000000 1.0
C      1  0.4759860000000  0.4588660000000  0.4639920000000 1.0
C      1  0.4740610000000  0.4851190000000  0.5568810000000 1.0
C      1  0.5031080000000  0.4586370000000  0.4743590000000 1.0
C      1  0.5010060000000  0.4968770000000  0.5537060000000 1.0
C      1  0.5023010000000  0.5469230000000  0.4733980000000 1.0
C      1  0.5437820000000  0.5035080000000  0.4694330000000 1.0
C      1  0.5417580000000  0.4768810000000  0.5112210000000 1.0
C      1  0.5450920000000  0.5256840000000  0.5106880000000 1.0
C      1  0.5261000000000  0.4799430000000  0.5536420000000 1.0
C      1  0.5255490000000  0.5579410000000  0.4872730000000 1.0
C      1  0.5248240000000  0.4656610000000  0.4555740000000 1.0
C      1  0.6073580000000  0.4962150000000  0.5009050000000 1.0
C      1  0.6334370000000  0.4945980000000  0.5048980000000 1.0
C      1  0.6847470000000  0.4912720000000  0.5123510000000 1.0
C      1  0.3924460000000  0.4975040000000  0.5023670000000 1.0
C      1  0.3640580000000  0.4971800000000  0.5029280000000 1.0
C      1  0.4424370000000  0.4981800000000  0.5017170000000 1.0
C      1  0.4720660000000  0.4987330000000  0.5009780000000 1.0
C      1  0.5792810000000  0.4988760000000  0.4991000000000 1.0
C      1  0.5287180000000  0.5021270000000  0.4978240000000 1.0
C      1  0.6595090000000  0.4928630000000  0.5085630000000 1.0
C      1  0.4987400000000  0.5084360000000  0.5053520000000 1.0
C      1  0.3384260000000  0.4968250000000  0.5035030000000 1.0
END
