TITL C-38198-1686-11 -2.4084872746068e-06 125000 -354.722871099852 0 0 60 (D2) n - 1
REM
REM in /home/bkarasulu/CARBON/AIRSS/Generating-Clusters/EDIP-Nigel-Params/Higher-Symm/Box-15A/Only-C60/SD-CG/FIRE-HFTN
REM
REM
REM
REM
REM
REM ./C.cell (414f73aa93bd7a1190c7fd0f31ff2f98)
REM
REM compiler GCC version 9.2.1 20190827 (Red Hat 9.2.1-1)
REM options -cpp -mtune=generic -march=x86-64 -g -O0 -fpre-include=/usr/include/finclude/math-vector-fortran.h
REM seed 2054629941 -322123716 902942343 1461809364 -464018233 -451655330 965472367 -1893243276 748163382 -752337068 1984617227 -167537482 -836220295 -489668607 41995969 -2072087568 648463359 2115318996 -2073568884 -1956983573 -281451279 -1877127904 -1046277798 1958310358 940903323 1845157079 2107751118 -662365501 1811707036 -1879829065 1310201233 -11695989 -1383993129
REM
CELL 1.54180   50.00000   50.00000   50.00000   90.00000   90.00000   90.00000
LATT -1
SFAC C  
C      1  0.5487590000000  0.5144490000000  0.5333240000000 1.0
C      1  0.4512410000000  0.5144490000000  0.4666760000000 1.0
C      1  0.5487590000000  0.4855510000000  0.4666760000000 1.0
C      1  0.4512410000000  0.4855510000000  0.5333240000000 1.0
C      1  0.5641470000000  0.5251840000000  0.4784720000000 1.0
C      1  0.4358530000000  0.5251840000000  0.5215280000000 1.0
C      1  0.5641470000000  0.4748160000000  0.5215280000000 1.0
C      1  0.4358530000000  0.4748160000000  0.4784720000000 1.0
C      1  0.5645090000000  0.4628180000000  0.4745490000000 1.0
C      1  0.4354910000000  0.4628180000000  0.5254510000000 1.0
C      1  0.5645090000000  0.5371820000000  0.5254510000000 1.0
C      1  0.4354910000000  0.5371820000000  0.4745490000000 1.0
C      1  0.4216150000000  0.4907320000000  0.4575410000000 1.0
C      1  0.5783850000000  0.4907320000000  0.5424590000000 1.0
C      1  0.4216150000000  0.5092680000000  0.5424590000000 1.0
C      1  0.5783850000000  0.5092680000000  0.4575410000000 1.0
C      1  0.4749890000000  0.5007380000000  0.5855590000000 1.0
C      1  0.5250110000000  0.5007380000000  0.4144410000000 1.0
C      1  0.4749890000000  0.4992620000000  0.4144410000000 1.0
C      1  0.5250110000000  0.4992620000000  0.5855590000000 1.0
C      1  0.4435100000000  0.5429390000000  0.4999740000000 1.0
C      1  0.5564900000000  0.5429390000000  0.5000260000000 1.0
C      1  0.4435100000000  0.4570610000000  0.5000260000000 1.0
C      1  0.5564900000000  0.4570610000000  0.4999740000000 1.0
C      1  0.5186040000000  0.5243020000000  0.5423300000000 1.0
C      1  0.4813960000000  0.5243020000000  0.4576700000000 1.0
C      1  0.5186040000000  0.4756980000000  0.4576700000000 1.0
C      1  0.4813960000000  0.4756980000000  0.5423300000000 1.0
C      1  0.5136760000000  0.4742680000000  0.5778640000000 1.0
C      1  0.4863240000000  0.4742680000000  0.4221360000000 1.0
C      1  0.5136760000000  0.5257320000000  0.4221360000000 1.0
C      1  0.4863240000000  0.5257320000000  0.5778640000000 1.0
C      1  0.5354950000000  0.4395620000000  0.5031080000000 1.0
C      1  0.4645050000000  0.4395620000000  0.4968920000000 1.0
C      1  0.5354950000000  0.5604380000000  0.4968920000000 1.0
C      1  0.4645050000000  0.5604380000000  0.5031080000000 1.0
C      1  0.5100470000000  0.5292820000000  0.4713180000000 1.0
C      1  0.4899530000000  0.5292820000000  0.5286820000000 1.0
C      1  0.5100470000000  0.4707180000000  0.5286820000000 1.0
C      1  0.4899530000000  0.4707180000000  0.4713180000000 1.0
C      1  0.5259080000000  0.4966000000000  0.5154350000000 1.0
C      1  0.4740920000000  0.4966000000000  0.4845650000000 1.0
C      1  0.5259080000000  0.5034000000000  0.4845650000000 1.0
C      1  0.4740920000000  0.5034000000000  0.5154350000000 1.0
C      1  0.4848500000000  0.4776830000000  0.5722060000000 1.0
C      1  0.5151500000000  0.4776830000000  0.4277940000000 1.0
C      1  0.4848500000000  0.5223170000000  0.4277940000000 1.0
C      1  0.5151500000000  0.5223170000000  0.5722060000000 1.0
C      1  0.5542030000000  0.4741240000000  0.5505780000000 1.0
C      1  0.4457970000000  0.4741240000000  0.4494220000000 1.0
C      1  0.5542030000000  0.5258760000000  0.4494220000000 1.0
C      1  0.4457970000000  0.5258760000000  0.5505780000000 1.0
C      1  0.4733720000000  0.5356170000000  0.5531660000000 1.0
C      1  0.5266280000000  0.5356170000000  0.4468340000000 1.0
C      1  0.4733720000000  0.4643830000000  0.4468340000000 1.0
C      1  0.5266280000000  0.4643830000000  0.5531660000000 1.0
C      1  0.5098670000000  0.5534900000000  0.4891970000000 1.0
C      1  0.4901330000000  0.5534900000000  0.5108030000000 1.0
C      1  0.5098670000000  0.4465100000000  0.5108030000000 1.0
C      1  0.4901330000000  0.4465100000000  0.4891970000000 1.0
END
