TITL C-38194-9318-231 -2.06699063136832e-06 125000 -354.439467325977 0 0 60 (Ci) n - 1
REM
REM in /home/bkarasulu/CARBON/AIRSS/Generating-Clusters/EDIP-Nigel-Params/Higher-Symm/Box-15A/Only-C60/SD-CG/FIRE-HFTN
REM
REM
REM
REM
REM
REM ./C.cell (414f73aa93bd7a1190c7fd0f31ff2f98)
REM
REM compiler GCC version 9.2.1 20190827 (Red Hat 9.2.1-1)
REM options -cpp -mtune=generic -march=x86-64 -g -O0 -fpre-include=/usr/include/finclude/math-vector-fortran.h
REM seed 1618215528 1514331953 962048521 1605328892 -2137638183 1492867328 17039997 2077753252 -1036944201 742772054 1747689662 36034502 404211991 -2018502308 -1578941993 -1145464293 1138843891 -1880386405 610649948 -1789066561 701555279 477801333 909991290 187314770 719619561 -1356658109 -1092359275 -436442973 -761224435 1586433611 -166117377 1222475842 1022324331
REM
CELL 1.54180   50.00000   50.00000   50.00000   90.00000   90.00000   90.00000
LATT -1
SFAC C  
C      1  0.5444510000000  0.4511910000000  0.4674250000000 1.0
C      1  0.4640910000000  0.5448530000000  0.4736240000000 1.0
C      1  0.5359090000000  0.4551470000000  0.5263760000000 1.0
C      1  0.4555490000000  0.5488090000000  0.5325750000000 1.0
C      1  0.4542480000000  0.4538480000000  0.4712590000000 1.0
C      1  0.5314930000000  0.5464620000000  0.4768220000000 1.0
C      1  0.4685070000000  0.4535380000000  0.5231780000000 1.0
C      1  0.5457520000000  0.5461520000000  0.5287410000000 1.0
C      1  0.5311090000000  0.4333560000000  0.4841310000000 1.0
C      1  0.4821940000000  0.5597710000000  0.4921440000000 1.0
C      1  0.5178060000000  0.4402290000000  0.5078560000000 1.0
C      1  0.4688910000000  0.5666440000000  0.5158690000000 1.0
C      1  0.4770040000000  0.4393660000000  0.4797030000000 1.0
C      1  0.5107260000000  0.5523900000000  0.4960010000000 1.0
C      1  0.4892740000000  0.4476100000000  0.5039990000000 1.0
C      1  0.5229960000000  0.5606340000000  0.5202970000000 1.0
C      1  0.5375110000000  0.5064820000000  0.4266130000000 1.0
C      1  0.4652610000000  0.4900210000000  0.4248820000000 1.0
C      1  0.5347390000000  0.5099790000000  0.5751180000000 1.0
C      1  0.4624890000000  0.4935180000000  0.5733870000000 1.0
C      1  0.4595060000000  0.5176310000000  0.4289080000000 1.0
C      1  0.5422400000000  0.4786780000000  0.4247860000000 1.0
C      1  0.4577600000000  0.5213220000000  0.5752140000000 1.0
C      1  0.5404940000000  0.4823690000000  0.5710920000000 1.0
C      1  0.5303540000000  0.4621360000000  0.4447510000000 1.0
C      1  0.4742490000000  0.5328130000000  0.4487170000000 1.0
C      1  0.5257510000000  0.4671870000000  0.5512830000000 1.0
C      1  0.4696460000000  0.5378640000000  0.5552490000000 1.0
C      1  0.4861350000000  0.4790090000000  0.4396630000000 1.0
C      1  0.5136240000000  0.5137020000000  0.4402990000000 1.0
C      1  0.4863760000000  0.4862980000000  0.5597010000000 1.0
C      1  0.5138650000000  0.5209910000000  0.5603370000000 1.0
C      1  0.5498490000000  0.5250860000000  0.4853520000000 1.0
C      1  0.4455780000000  0.4767530000000  0.4860830000000 1.0
C      1  0.5544220000000  0.5232470000000  0.5139170000000 1.0
C      1  0.4501510000000  0.4749140000000  0.5146480000000 1.0
C      1  0.4432650000000  0.5280860000000  0.4868500000000 1.0
C      1  0.5562620000000  0.4738040000000  0.4827470000000 1.0
C      1  0.4437380000000  0.5261960000000  0.5172530000000 1.0
C      1  0.5567350000000  0.4719140000000  0.5131500000000 1.0
C      1  0.5090110000000  0.5163650000000  0.4705600000000 1.0
C      1  0.4865570000000  0.4754050000000  0.4696890000000 1.0
C      1  0.5134430000000  0.5245950000000  0.5303110000000 1.0
C      1  0.4909890000000  0.4836350000000  0.5294400000000 1.0
C      1  0.4798980000000  0.5043980000000  0.4819650000000 1.0
C      1  0.5211400000000  0.4914780000000  0.4865780000000 1.0
C      1  0.4788600000000  0.5085220000000  0.5134220000000 1.0
C      1  0.5201020000000  0.4956020000000  0.5180350000000 1.0
C      1  0.4875490000000  0.4643110000000  0.5778700000000 1.0
C      1  0.5106890000000  0.5406860000000  0.5796650000000 1.0
C      1  0.4893110000000  0.4593140000000  0.4203350000000 1.0
C      1  0.5124510000000  0.5356890000000  0.4221300000000 1.0
C      1  0.5137390000000  0.4546440000000  0.5740830000000 1.0
C      1  0.4841020000000  0.5496800000000  0.5768970000000 1.0
C      1  0.5158980000000  0.4503200000000  0.4231030000000 1.0
C      1  0.4862610000000  0.5453560000000  0.4259170000000 1.0
C      1  0.5548840000000  0.5008940000000  0.4702820000000 1.0
C      1  0.4451160000000  0.4991060000000  0.5297180000000 1.0
C      1  0.4418780000000  0.5024780000000  0.4734900000000 1.0
C      1  0.5581220000000  0.4975220000000  0.5265100000000 1.0
END
