TITL C-38184-643-246 -1.03808094260984e-05 125000 -366.643442368019 0 0 60 (C1) n - 1
REM
REM in /home/bkarasulu/CARBON/AIRSS/Generating-Clusters/EDIP-Nigel-Params/Higher-Symm/Box-15A/Only-C60/SD-CG/FIRE-HFTN
REM
REM
REM
REM
REM
REM ./C.cell (414f73aa93bd7a1190c7fd0f31ff2f98)
REM
REM compiler GCC version 9.2.1 20190827 (Red Hat 9.2.1-1)
REM options -cpp -mtune=generic -march=x86-64 -g -O0 -fpre-include=/usr/include/finclude/math-vector-fortran.h
REM seed -286715999 1365131615 -1793366128 1639131048 1154843847 -1760349518 1626635597 -1002306237 -228950854 -1827103910 107636924 1149137608 -582958210 -31368410 63974800 2145653226 1732314699 253899457 524921944 -2027676886 -937559749 -1194592552 -1214618750 -1605804248 487828537 597227938 1857119663 -918566722 717614988 2071535423 542342045 -1033723788 -1619888138
REM
CELL 1.54180   50.00000   50.00000   50.00000   90.00000   90.00000   90.00000
LATT -1
SFAC C  
C      1  0.5172140000000  0.5068900000000  0.5796780000000 1.0
C      1  0.4764810000000  0.5450280000000  0.5643470000000 1.0
C      1  0.4666440000000  0.4512800000000  0.5062830000000 1.0
C      1  0.5340320000000  0.4660070000000  0.5346650000000 1.0
C      1  0.5050520000000  0.4509670000000  0.4404650000000 1.0
C      1  0.4401610000000  0.4683870000000  0.4633750000000 1.0
C      1  0.4748040000000  0.5507780000000  0.5354890000000 1.0
C      1  0.4567720000000  0.4549580000000  0.5336580000000 1.0
C      1  0.4618650000000  0.4882640000000  0.3992860000000 1.0
C      1  0.5004920000000  0.5547850000000  0.5759560000000 1.0
C      1  0.4831020000000  0.5345470000000  0.4511590000000 1.0
C      1  0.4984060000000  0.4395110000000  0.5379570000000 1.0
C      1  0.5771350000000  0.4831510000000  0.5202340000000 1.0
C      1  0.4326270000000  0.4939870000000  0.4700870000000 1.0
C      1  0.4654740000000  0.5218310000000  0.4339280000000 1.0
C      1  0.5157870000000  0.4500770000000  0.4911160000000 1.0
C      1  0.4513320000000  0.5410410000000  0.5214500000000 1.0
C      1  0.5301500000000  0.5187560000000  0.4335140000000 1.0
C      1  0.4413640000000  0.4743430000000  0.4118270000000 1.0
C      1  0.5716890000000  0.4757370000000  0.4711190000000 1.0
C      1  0.5519240000000  0.5117160000000  0.5436480000000 1.0
C      1  0.5332130000000  0.5230580000000  0.5631100000000 1.0
C      1  0.4966090000000  0.4987910000000  0.5201680000000 1.0
C      1  0.5124220000000  0.5271540000000  0.4568110000000 1.0
C      1  0.5536960000000  0.4862350000000  0.4527730000000 1.0
C      1  0.4756270000000  0.4466580000000  0.5531160000000 1.0
C      1  0.5465730000000  0.5506840000000  0.4890790000000 1.0
C      1  0.5120670000000  0.4845710000000  0.5366550000000 1.0
C      1  0.4703350000000  0.5166520000000  0.5702010000000 1.0
C      1  0.4982700000000  0.5597750000000  0.5205950000000 1.0
C      1  0.4527570000000  0.5327980000000  0.4938160000000 1.0
C      1  0.5391850000000  0.4583420000000  0.5062080000000 1.0
C      1  0.4523250000000  0.5106850000000  0.4126210000000 1.0
C      1  0.4979280000000  0.5551490000000  0.4916270000000 1.0
C      1  0.5179540000000  0.4414680000000  0.4638040000000 1.0
C      1  0.5250040000000  0.4419020000000  0.5486560000000 1.0
C      1  0.5220750000000  0.5493910000000  0.4760160000000 1.0
C      1  0.4404250000000  0.4783140000000  0.5397080000000 1.0
C      1  0.4519220000000  0.4527050000000  0.4827770000000 1.0
C      1  0.5583330000000  0.4828260000000  0.5434190000000 1.0
C      1  0.5714530000000  0.5264390000000  0.5278020000000 1.0
C      1  0.5180440000000  0.4974310000000  0.4199790000000 1.0
C      1  0.5623920000000  0.5458950000000  0.5101730000000 1.0
C      1  0.5903480000000  0.5081840000000  0.5176150000000 1.0
C      1  0.4937140000000  0.4405850000000  0.5085950000000 1.0
C      1  0.4229430000000  0.5037550000000  0.5166720000000 1.0
C      1  0.4432840000000  0.4628280000000  0.4366630000000 1.0
C      1  0.5098380000000  0.4714820000000  0.4222380000000 1.0
C      1  0.4322020000000  0.5123150000000  0.4906170000000 1.0
C      1  0.5238600000000  0.5506340000000  0.5607380000000 1.0
C      1  0.5563190000000  0.5118080000000  0.4414950000000 1.0
C      1  0.5222900000000  0.5626900000000  0.5351740000000 1.0
C      1  0.5622440000000  0.4732450000000  0.4972360000000 1.0
C      1  0.4953860000000  0.4989270000000  0.4937600000000 1.0
C      1  0.4906710000000  0.5032880000000  0.5843060000000 1.0
C      1  0.5257780000000  0.4791160000000  0.4592960000000 1.0
C      1  0.4344170000000  0.5220150000000  0.5363330000000 1.0
C      1  0.4505420000000  0.5035060000000  0.5520870000000 1.0
C      1  0.4740090000000  0.5450660000000  0.4773050000000 1.0
C      1  0.5110370000000  0.5015930000000  0.4715140000000 1.0
END
