TITL C-38194-9318-431 -1.53897133109809e-06 125000 -371.116115646674 0 0 60 (C1) n - 1
REM
REM in /home/bkarasulu/CARBON/AIRSS/Generating-Clusters/EDIP-Nigel-Params/Higher-Symm/Box-15A/Only-C60/SD-CG/FIRE-HFTN
REM
REM
REM
REM
REM
REM ./C.cell (414f73aa93bd7a1190c7fd0f31ff2f98)
REM
REM compiler GCC version 9.2.1 20190827 (Red Hat 9.2.1-1)
REM options -cpp -mtune=generic -march=x86-64 -g -O0 -fpre-include=/usr/include/finclude/math-vector-fortran.h
REM seed -1208693873 -2004301756 1143975913 -1789019301 -1498551161 -289340791 -1782410282 -348188530 358647616 -438188315 821934093 -1793928333 1239405027 -2122696341 -1772891907 52914667 -1262264652 -1724027752 1895017222 1777688552 -1212860623 -1153226225 64786608 1359517528 1165354043 -421634827 1180299451 1160497829 1712728832 -642475919 -331944590 -2037770529 1851248001
REM
CELL 1.54180   50.00000   50.00000   50.00000   90.00000   90.00000   90.00000
LATT -1
SFAC C  
C      1  0.5603570000000  0.5290750000000  0.5329660000000 1.0
C      1  0.5608100000000  0.5303180000000  0.4682330000000 1.0
C      1  0.5088240000000  0.5428340000000  0.4310830000000 1.0
C      1  0.5082330000000  0.5432520000000  0.5687040000000 1.0
C      1  0.4336920000000  0.4978450000000  0.4726720000000 1.0
C      1  0.4326220000000  0.4970350000000  0.5258870000000 1.0
C      1  0.5001900000000  0.4843700000000  0.5162370000000 1.0
C      1  0.5020480000000  0.4835980000000  0.4828360000000 1.0
C      1  0.4461480000000  0.4513200000000  0.4860560000000 1.0
C      1  0.4455210000000  0.4503620000000  0.5160720000000 1.0
C      1  0.4662680000000  0.5368000000000  0.5496200000000 1.0
C      1  0.4664290000000  0.5376700000000  0.4499330000000 1.0
C      1  0.4328170000000  0.5227700000000  0.4848130000000 1.0
C      1  0.4327070000000  0.5220530000000  0.5141540000000 1.0
C      1  0.4695910000000  0.5124450000000  0.5637060000000 1.0
C      1  0.4695500000000  0.5126420000000  0.4371310000000 1.0
C      1  0.4509930000000  0.5688650000000  0.4852630000000 1.0
C      1  0.4523820000000  0.5660480000000  0.5120120000000 1.0
C      1  0.5462830000000  0.5100440000000  0.4850510000000 1.0
C      1  0.5452410000000  0.5087820000000  0.5168980000000 1.0
C      1  0.5167010000000  0.4951120000000  0.4344880000000 1.0
C      1  0.5170410000000  0.4956880000000  0.5653080000000 1.0
C      1  0.5051690000000  0.5384620000000  0.4805290000000 1.0
C      1  0.5050570000000  0.5392930000000  0.5191260000000 1.0
C      1  0.4795680000000  0.4739130000000  0.5381670000000 1.0
C      1  0.4801050000000  0.4740020000000  0.4625370000000 1.0
C      1  0.4505880000000  0.5430960000000  0.4739700000000 1.0
C      1  0.4503540000000  0.5418020000000  0.5255880000000 1.0
C      1  0.5654410000000  0.4765820000000  0.5126350000000 1.0
C      1  0.5611230000000  0.4837940000000  0.4840080000000 1.0
C      1  0.4867300000000  0.4904130000000  0.4380500000000 1.0
C      1  0.4870710000000  0.4904280000000  0.5623270000000 1.0
C      1  0.4922380000000  0.5491430000000  0.5462970000000 1.0
C      1  0.4929230000000  0.5489210000000  0.4534590000000 1.0
C      1  0.5204960000000  0.4593110000000  0.5155410000000 1.0
C      1  0.5215280000000  0.4582050000000  0.4833650000000 1.0
C      1  0.4603880000000  0.4297430000000  0.5288740000000 1.0
C      1  0.4601010000000  0.4304860000000  0.4727020000000 1.0
C      1  0.5558220000000  0.5540840000000  0.5192980000000 1.0
C      1  0.5550500000000  0.5551630000000  0.4814530000000 1.0
C      1  0.5273420000000  0.5606820000000  0.5155660000000 1.0
C      1  0.5264010000000  0.5601290000000  0.4867430000000 1.0
C      1  0.5371180000000  0.4784290000000  0.5547760000000 1.0
C      1  0.5360120000000  0.4762430000000  0.4433160000000 1.0
C      1  0.4821030000000  0.4438320000000  0.4609470000000 1.0
C      1  0.4825720000000  0.4437790000000  0.5396590000000 1.0
C      1  0.5157580000000  0.5103490000000  0.5236660000000 1.0
C      1  0.5172890000000  0.5099160000000  0.4760740000000 1.0
C      1  0.5519700000000  0.5286000000000  0.5599530000000 1.0
C      1  0.5521680000000  0.5283410000000  0.4413580000000 1.0
C      1  0.4505260000000  0.4760500000000  0.5293950000000 1.0
C      1  0.4525240000000  0.4773800000000  0.4741570000000 1.0
C      1  0.5069910000000  0.4110780000000  0.4863400000000 1.0
C      1  0.5072260000000  0.4118240000000  0.5132120000000 1.0
C      1  0.5454820000000  0.4652240000000  0.4675280000000 1.0
C      1  0.5446070000000  0.4670870000000  0.5300710000000 1.0
C      1  0.5074770000000  0.4347090000000  0.4714230000000 1.0
C      1  0.5076700000000  0.4354510000000  0.5280640000000 1.0
C      1  0.5275300000000  0.5222840000000  0.4290650000000 1.0
C      1  0.5270350000000  0.5228460000000  0.5716380000000 1.0
END
