TITL C-38184-643-421 -1.69836433667646e-05 125000 -360.313160914608 0 0 60 (C2) n - 1
REM
REM in /home/bkarasulu/CARBON/AIRSS/Generating-Clusters/EDIP-Nigel-Params/Higher-Symm/Box-15A/Only-C60/SD-CG/FIRE-HFTN
REM
REM
REM
REM
REM
REM ./C.cell (414f73aa93bd7a1190c7fd0f31ff2f98)
REM
REM compiler GCC version 9.2.1 20190827 (Red Hat 9.2.1-1)
REM options -cpp -mtune=generic -march=x86-64 -g -O0 -fpre-include=/usr/include/finclude/math-vector-fortran.h
REM seed -109755395 1750092122 -492389794 333958643 -519207035 74511606 1912383730 -1056068989 418024419 1128778774 1270804585 -1936755801 -116966197 -1133160239 1941404605 -1131457535 -60304080 -233335437 1170418847 -1138947680 -2134154657 -494017623 1282261290 1000449774 2138234905 -418486839 -1008933747 -1262247506 -1370042416 808575076 221553596 -2041788720 -1679967945
REM
CELL 1.54180   50.00000   50.00000   50.00000   90.00000   90.00000   90.00000
LATT -1
SFAC C  
C      1  0.5628140000000  0.4884040000000  0.4522280000000 1.0
C      1  0.5628140000000  0.5115960000000  0.5477720000000 1.0
C      1  0.4900950000000  0.5046270000000  0.4860230000000 1.0
C      1  0.4900950000000  0.4953730000000  0.5139770000000 1.0
C      1  0.4478860000000  0.5144220000000  0.5644710000000 1.0
C      1  0.4478860000000  0.4855780000000  0.4355290000000 1.0
C      1  0.4662350000000  0.4669990000000  0.5517950000000 1.0
C      1  0.4662350000000  0.5330010000000  0.4482050000000 1.0
C      1  0.4225320000000  0.5109780000000  0.4603010000000 1.0
C      1  0.4225320000000  0.4890220000000  0.5396990000000 1.0
C      1  0.5722960000000  0.4725070000000  0.4729790000000 1.0
C      1  0.5722960000000  0.5274930000000  0.5270210000000 1.0
C      1  0.5634900000000  0.5474850000000  0.4843500000000 1.0
C      1  0.5634900000000  0.4525150000000  0.5156500000000 1.0
C      1  0.5330330000000  0.4457500000000  0.4761540000000 1.0
C      1  0.5330330000000  0.5542500000000  0.5238460000000 1.0
C      1  0.4861420000000  0.4347070000000  0.5001440000000 1.0
C      1  0.4861420000000  0.5652930000000  0.4998560000000 1.0
C      1  0.5226590000000  0.4931960000000  0.4223970000000 1.0
C      1  0.5226590000000  0.5068040000000  0.5776030000000 1.0
C      1  0.4886690000000  0.5150380000000  0.5342660000000 1.0
C      1  0.4886690000000  0.4849620000000  0.4657340000000 1.0
C      1  0.4926100000000  0.5331230000000  0.4347660000000 1.0
C      1  0.4926100000000  0.4668770000000  0.5652340000000 1.0
C      1  0.4595540000000  0.4435970000000  0.5346300000000 1.0
C      1  0.4595540000000  0.5564030000000  0.4653700000000 1.0
C      1  0.4646580000000  0.5318800000000  0.5345380000000 1.0
C      1  0.4646580000000  0.4681200000000  0.4654620000000 1.0
C      1  0.5017090000000  0.4897990000000  0.5789300000000 1.0
C      1  0.5017090000000  0.5102010000000  0.4210700000000 1.0
C      1  0.4274060000000  0.4740810000000  0.5165400000000 1.0
C      1  0.4274060000000  0.5259190000000  0.4834600000000 1.0
C      1  0.4438070000000  0.4520900000000  0.5111580000000 1.0
C      1  0.4438070000000  0.5479100000000  0.4888420000000 1.0
C      1  0.5565920000000  0.5437300000000  0.5108900000000 1.0
C      1  0.5565920000000  0.4562700000000  0.4891100000000 1.0
C      1  0.5708290000000  0.4851060000000  0.5493010000000 1.0
C      1  0.5708290000000  0.5148940000000  0.4506990000000 1.0
C      1  0.5391870000000  0.5218710000000  0.5610330000000 1.0
C      1  0.5391870000000  0.4781290000000  0.4389670000000 1.0
C      1  0.5136460000000  0.5141030000000  0.4731430000000 1.0
C      1  0.5136460000000  0.4858970000000  0.5268570000000 1.0
C      1  0.4443220000000  0.4838740000000  0.5620680000000 1.0
C      1  0.4443220000000  0.5161260000000  0.4379320000000 1.0
C      1  0.4810940000000  0.4264890000000  0.5265330000000 1.0
C      1  0.4810940000000  0.5735110000000  0.4734670000000 1.0
C      1  0.5622880000000  0.4596360000000  0.5424300000000 1.0
C      1  0.5622880000000  0.5403640000000  0.4575700000000 1.0
C      1  0.5115860000000  0.4342220000000  0.4892080000000 1.0
C      1  0.5115860000000  0.5657780000000  0.5107920000000 1.0
C      1  0.4643070000000  0.5490250000000  0.5097390000000 1.0
C      1  0.4643070000000  0.4509750000000  0.4902610000000 1.0
C      1  0.5133700000000  0.4626650000000  0.5446060000000 1.0
C      1  0.5133700000000  0.5373350000000  0.4553940000000 1.0
C      1  0.4293840000000  0.5187300000000  0.5409300000000 1.0
C      1  0.4293840000000  0.4812700000000  0.4590700000000 1.0
C      1  0.5380150000000  0.5466120000000  0.4458350000000 1.0
C      1  0.5380150000000  0.4533880000000  0.5541650000000 1.0
C      1  0.5297830000000  0.5457410000000  0.5501540000000 1.0
C      1  0.5297830000000  0.4542590000000  0.4498460000000 1.0
END
