TITL C-38186-4112-3 4.87810520783491e-07 125000 -372.900683435494 0 0 60 (C4) n - 1
REM
REM in /home/bkarasulu/CARBON/AIRSS/Generating-Clusters/EDIP-Nigel-Params/Higher-Symm/Box-15A/Only-C60/SD-CG/FIRE-HFTN
REM
REM
REM
REM
REM
REM ./C.cell (414f73aa93bd7a1190c7fd0f31ff2f98)
REM
REM compiler GCC version 9.2.1 20190827 (Red Hat 9.2.1-1)
REM options -cpp -mtune=generic -march=x86-64 -g -O0 -fpre-include=/usr/include/finclude/math-vector-fortran.h
REM seed -1301497909 -1881656031 -1000123951 -2065472295 1823769703 1596250825 1217027358 2061077508 -1014989084 1951854880 300163390 503197742 -58188274 -1751454768 1108621699 1298310593 -1564635268 1113310051 2098336853 2063666424 -621040376 -577300140 1450633309 1000102002 1862398720 1082864742 219557651 1792383849 416137865 1443797697 406127890 2061860922 -65227160
REM
CELL 1.54180   50.00000   50.00000   50.00000   90.00000   90.00000   90.00000
LATT -1
SFAC C  
C      1  0.4713660000000  0.4591990000000  0.4542010000000 1.0
C      1  0.5458350000000  0.4592110000000  0.4714210000000 1.0
C      1  0.5286340000000  0.4591990000000  0.5457990000000 1.0
C      1  0.4541640000000  0.4592120000000  0.5285790000000 1.0
C      1  0.5333940000000  0.5307730000000  0.5574960000000 1.0
C      1  0.4417740000000  0.5307240000000  0.5335550000000 1.0
C      1  0.4666060000000  0.5307730000000  0.4425040000000 1.0
C      1  0.5582270000000  0.5307230000000  0.4664450000000 1.0
C      1  0.5004490000000  0.4952000000000  0.4467180000000 1.0
C      1  0.5539280000000  0.4950030000000  0.5005870000000 1.0
C      1  0.4995510000000  0.4952000000000  0.5532820000000 1.0
C      1  0.4460720000000  0.4950040000000  0.4994130000000 1.0
C      1  0.5314650000000  0.4517570000000  0.5173880000000 1.0
C      1  0.4826050000000  0.4518260000000  0.5313290000000 1.0
C      1  0.4685340000000  0.4517570000000  0.4826120000000 1.0
C      1  0.5173950000000  0.4518260000000  0.4686710000000 1.0
C      1  0.5556710000000  0.4821410000000  0.4555160000000 1.0
C      1  0.5445170000000  0.4821590000000  0.5556180000000 1.0
C      1  0.4443280000000  0.4821420000000  0.5444840000000 1.0
C      1  0.4554830000000  0.4821590000000  0.4443830000000 1.0
C      1  0.4737380000000  0.5030240000000  0.4337820000000 1.0
C      1  0.5667660000000  0.5028470000000  0.4736660000000 1.0
C      1  0.5262630000000  0.5030240000000  0.5662180000000 1.0
C      1  0.4332340000000  0.5028470000000  0.5263340000000 1.0
C      1  0.4637040000000  0.5322710000000  0.5559360000000 1.0
C      1  0.4434920000000  0.5321690000000  0.4634820000000 1.0
C      1  0.5362960000000  0.5322700000000  0.4440640000000 1.0
C      1  0.5565090000000  0.5321690000000  0.5365180000000 1.0
C      1  0.4805970000000  0.5620150000000  0.4794490000000 1.0
C      1  0.5209030000000  0.5618700000000  0.4814720000000 1.0
C      1  0.5194030000000  0.5620150000000  0.5205510000000 1.0
C      1  0.4790980000000  0.5618700000000  0.5185280000000 1.0
C      1  0.5197150000000  0.4255840000000  0.5098590000000 1.0
C      1  0.4901380000000  0.4256070000000  0.5197120000000 1.0
C      1  0.4802840000000  0.4255840000000  0.4901410000000 1.0
C      1  0.5098620000000  0.4256070000000  0.4802890000000 1.0
C      1  0.4533760000000  0.4875180000000  0.5707820000000 1.0
C      1  0.4290140000000  0.4873220000000  0.4530760000000 1.0
C      1  0.5466240000000  0.4875170000000  0.4292180000000 1.0
C      1  0.5709860000000  0.4873210000000  0.5469240000000 1.0
C      1  0.4521960000000  0.5510530000000  0.4850850000000 1.0
C      1  0.5148060000000  0.5510690000000  0.4533900000000 1.0
C      1  0.5478040000000  0.5510530000000  0.5149140000000 1.0
C      1  0.4851940000000  0.5510690000000  0.5466100000000 1.0
C      1  0.4326320000000  0.5058530000000  0.4739880000000 1.0
C      1  0.5257810000000  0.5060340000000  0.4332340000000 1.0
C      1  0.5673680000000  0.5058520000000  0.5260120000000 1.0
C      1  0.4742190000000  0.5060340000000  0.5667660000000 1.0
C      1  0.5515580000000  0.4644380000000  0.5000610000000 1.0
C      1  0.4999840000000  0.4646200000000  0.5512870000000 1.0
C      1  0.4484420000000  0.4644390000000  0.4999390000000 1.0
C      1  0.5000150000000  0.4646200000000  0.4487130000000 1.0
C      1  0.5242240000000  0.5111840000000  0.4963980000000 1.0
C      1  0.5036830000000  0.5113670000000  0.5233020000000 1.0
C      1  0.4757760000000  0.5111840000000  0.5036020000000 1.0
C      1  0.4963170000000  0.5113670000000  0.4766980000000 1.0
C      1  0.4609550000000  0.5379480000000  0.5109020000000 1.0
C      1  0.4890650000000  0.5382140000000  0.4618290000000 1.0
C      1  0.5390450000000  0.5379480000000  0.4890970000000 1.0
C      1  0.5109360000000  0.5382140000000  0.5381710000000 1.0
END
