TITL C-38191-7580-349 1.94442328069486e-05 125000 -358.33110162673 0 0 60 (C1) n - 1
REM
REM in /home/bkarasulu/CARBON/AIRSS/Generating-Clusters/EDIP-Nigel-Params/Higher-Symm/Box-15A/Only-C60/SD-CG/FIRE-HFTN
REM
REM
REM
REM
REM
REM ./C.cell (414f73aa93bd7a1190c7fd0f31ff2f98)
REM
REM compiler GCC version 9.2.1 20190827 (Red Hat 9.2.1-1)
REM options -cpp -mtune=generic -march=x86-64 -g -O0 -fpre-include=/usr/include/finclude/math-vector-fortran.h
REM seed 1749113696 -1335499657 -47481195 -1855614615 -788549815 -1114040086 -170208698 -548833019 1940362143 -60772966 461623903 -54123878 -2104725929 2003043893 -799323887 -693694069 135148524 2049426405 1100239985 977364528 794972660 -1382850255 -2049951195 -803040910 1286994377 123251028 134239275 -1470075067 991188759 -1510093791 -1701098751 -2126763581 -1016197667
REM
CELL 1.54180   50.00000   50.00000   50.00000   90.00000   90.00000   90.00000
LATT -1
SFAC C  
C      1  0.5445040000000  0.5130170000000  0.5608540000000 1.0
C      1  0.4545460000000  0.5116900000000  0.5617240000000 1.0
C      1  0.4706250000000  0.5039600000000  0.4761070000000 1.0
C      1  0.5290400000000  0.5046730000000  0.4768080000000 1.0
C      1  0.4837540000000  0.5241590000000  0.4338580000000 1.0
C      1  0.5144500000000  0.5261610000000  0.4351630000000 1.0
C      1  0.5149300000000  0.4178960000000  0.5036600000000 1.0
C      1  0.4854620000000  0.4174200000000  0.5036500000000 1.0
C      1  0.5162200000000  0.5737380000000  0.4666620000000 1.0
C      1  0.4901780000000  0.5814220000000  0.4759990000000 1.0
C      1  0.5554090000000  0.5461510000000  0.4794040000000 1.0
C      1  0.4483060000000  0.5476480000000  0.4782210000000 1.0
C      1  0.4700070000000  0.4746720000000  0.4360560000000 1.0
C      1  0.5310280000000  0.4761610000000  0.4360140000000 1.0
C      1  0.5713720000000  0.5002620000000  0.4966870000000 1.0
C      1  0.4281660000000  0.4999240000000  0.4965380000000 1.0
C      1  0.5148480000000  0.5632460000000  0.5477920000000 1.0
C      1  0.4862890000000  0.5620390000000  0.5496210000000 1.0
C      1  0.5174770000000  0.4989020000000  0.4497820000000 1.0
C      1  0.4829110000000  0.4979470000000  0.4494380000000 1.0
C      1  0.4848090000000  0.4914030000000  0.5436000000000 1.0
C      1  0.5139630000000  0.4921930000000  0.5433020000000 1.0
C      1  0.4702090000000  0.5380390000000  0.5157710000000 1.0
C      1  0.5279270000000  0.5388610000000  0.5133580000000 1.0
C      1  0.4390420000000  0.4979780000000  0.5396700000000 1.0
C      1  0.5605380000000  0.4987130000000  0.5397960000000 1.0
C      1  0.5303030000000  0.5675420000000  0.5128060000000 1.0
C      1  0.4687840000000  0.5669280000000  0.5158980000000 1.0
C      1  0.5190490000000  0.5340250000000  0.5406830000000 1.0
C      1  0.4803460000000  0.5334370000000  0.5426060000000 1.0
C      1  0.4655330000000  0.5717910000000  0.4875210000000 1.0
C      1  0.5401790000000  0.5703770000000  0.4850570000000 1.0
C      1  0.4220710000000  0.5120420000000  0.5217170000000 1.0
C      1  0.5776400000000  0.5124660000000  0.5217560000000 1.0
C      1  0.5187490000000  0.5018890000000  0.5711050000000 1.0
C      1  0.4804400000000  0.5003760000000  0.5718140000000 1.0
C      1  0.5527050000000  0.4717480000000  0.5295600000000 1.0
C      1  0.4468260000000  0.4710730000000  0.5292960000000 1.0
C      1  0.5146310000000  0.4405910000000  0.5465450000000 1.0
C      1  0.4852800000000  0.4401420000000  0.5464850000000 1.0
C      1  0.4744900000000  0.4651070000000  0.5356170000000 1.0
C      1  0.5250410000000  0.4659370000000  0.5359590000000 1.0
C      1  0.5216110000000  0.4178870000000  0.5311570000000 1.0
C      1  0.4789780000000  0.4171850000000  0.5311840000000 1.0
C      1  0.5115640000000  0.5444910000000  0.4622040000000 1.0
C      1  0.4800820000000  0.5432040000000  0.4573150000000 1.0
C      1  0.5309880000000  0.4332330000000  0.4867310000000 1.0
C      1  0.4689640000000  0.4326410000000  0.4870440000000 1.0
C      1  0.4872770000000  0.4604030000000  0.4199250000000 1.0
C      1  0.5140010000000  0.4617390000000  0.4197610000000 1.0
C      1  0.5476250000000  0.4621260000000  0.4533040000000 1.0
C      1  0.4528750000000  0.4610160000000  0.4531270000000 1.0
C      1  0.4435650000000  0.5168390000000  0.4761890000000 1.0
C      1  0.5563970000000  0.5171040000000  0.4768100000000 1.0
C      1  0.5578300000000  0.4736840000000  0.5005730000000 1.0
C      1  0.4415300000000  0.4730350000000  0.5003280000000 1.0
C      1  0.4841620000000  0.5255250000000  0.4916240000000 1.0
C      1  0.5144550000000  0.5275590000000  0.4887070000000 1.0
C      1  0.4525280000000  0.4539640000000  0.4800040000000 1.0
C      1  0.5474930000000  0.4546170000000  0.4800520000000 1.0
END
