TITL C-38195-9455-10 -2.79302529128465e-05 125000 -344.662107252487 0 0 60 (C1) n - 1
REM
REM in /home/bkarasulu/CARBON/AIRSS/Generating-Clusters/EDIP-Nigel-Params/Higher-Symm/Box-15A/Only-C60/SD-CG/FIRE-HFTN
REM
REM
REM
REM
REM
REM ./C.cell (414f73aa93bd7a1190c7fd0f31ff2f98)
REM
REM compiler GCC version 9.2.1 20190827 (Red Hat 9.2.1-1)
REM options -cpp -mtune=generic -march=x86-64 -g -O0 -fpre-include=/usr/include/finclude/math-vector-fortran.h
REM seed -489491954 1423876781 1437985349 63390128 1228183698 -1461233853 1972223277 -922233887 -1961549004 1227205390 1552422719 -2035539521 -1498350544 1788691682 -740940873 -1988547123 -181497729 802210057 -1243702766 -1170617232 -672550293 -1692621025 -308667189 -1256254474 1837515074 -252085893 -565471598 -1249642485 -139758148 661973503 -57254452 1119648731 -515041462
REM
CELL 1.54180   50.00000   50.00000   50.00000   90.00000   90.00000   90.00000
LATT -1
SFAC C  
C      1  0.5176550000000  0.4258560000000  0.5261170000000 1.0
C      1  0.5546310000000  0.5524730000000  0.5263980000000 1.0
C      1  0.4261480000000  0.5185920000000  0.5312190000000 1.0
C      1  0.4869780000000  0.4466900000000  0.4608710000000 1.0
C      1  0.5535140000000  0.5145460000000  0.4619800000000 1.0
C      1  0.4592250000000  0.5395140000000  0.4620720000000 1.0
C      1  0.5383330000000  0.4734540000000  0.4679610000000 1.0
C      1  0.5031670000000  0.5448830000000  0.4660260000000 1.0
C      1  0.4595240000000  0.4807880000000  0.4674760000000 1.0
C      1  0.4593530000000  0.4444630000000  0.4561320000000 1.0
C      1  0.5700420000000  0.4921460000000  0.4580410000000 1.0
C      1  0.4719440000000  0.5638610000000  0.4558540000000 1.0
C      1  0.5624860000000  0.5116390000000  0.5107100000000 1.0
C      1  0.4592360000000  0.5520390000000  0.5096590000000 1.0
C      1  0.4787440000000  0.4394650000000  0.5094910000000 1.0
C      1  0.5330010000000  0.4320030000000  0.5024050000000 1.0
C      1  0.5428720000000  0.5623380000000  0.5018710000000 1.0
C      1  0.4261130000000  0.5058670000000  0.5051580000000 1.0
C      1  0.5429120000000  0.5210330000000  0.4891330000000 1.0
C      1  0.4596130000000  0.5285010000000  0.4899000000000 1.0
C      1  0.4971270000000  0.4519070000000  0.4884710000000 1.0
C      1  0.5024890000000  0.4721390000000  0.5492510000000 1.0
C      1  0.5211670000000  0.5169260000000  0.5496240000000 1.0
C      1  0.4748980000000  0.5098880000000  0.5501040000000 1.0
C      1  0.4958360000000  0.5271730000000  0.5376710000000 1.0
C      1  0.4776350000000  0.4829350000000  0.5370250000000 1.0
C      1  0.5244550000000  0.4894320000000  0.5385500000000 1.0
C      1  0.4998070000000  0.5760850000000  0.5191840000000 1.0
C      1  0.4369010000000  0.4608290000000  0.5201750000000 1.0
C      1  0.5636740000000  0.4644380000000  0.5220120000000 1.0
C      1  0.4427640000000  0.4975260000000  0.4449460000000 1.0
C      1  0.5310410000000  0.4533510000000  0.4431380000000 1.0
C      1  0.5256050000000  0.5484680000000  0.4427020000000 1.0
C      1  0.5534740000000  0.4387550000000  0.5212780000000 1.0
C      1  0.5273020000000  0.5785120000000  0.5195770000000 1.0
C      1  0.4197440000000  0.4824490000000  0.5206480000000 1.0
C      1  0.4293110000000  0.4900420000000  0.4702830000000 1.0
C      1  0.5444380000000  0.4422470000000  0.4672370000000 1.0
C      1  0.5272550000000  0.5655320000000  0.4669770000000 1.0
C      1  0.5100620000000  0.5214800000000  0.4868430000000 1.0
C      1  0.4767620000000  0.5004560000000  0.4872700000000 1.0
C      1  0.5146070000000  0.4776380000000  0.4876910000000 1.0
C      1  0.4793130000000  0.5793170000000  0.4772120000000 1.0
C      1  0.4436720000000  0.4413560000000  0.4782810000000 1.0
C      1  0.5791560000000  0.4797450000000  0.4806390000000 1.0
C      1  0.5065760000000  0.4443960000000  0.5433200000000 1.0
C      1  0.5433700000000  0.5340500000000  0.5436260000000 1.0
C      1  0.4483510000000  0.5203290000000  0.5474300000000 1.0
C      1  0.4501410000000  0.5237860000000  0.4414520000000 1.0
C      1  0.5042420000000  0.4480470000000  0.4394780000000 1.0
C      1  0.5440470000000  0.5281910000000  0.4400730000000 1.0
C      1  0.4500960000000  0.4413260000000  0.5052920000000 1.0
C      1  0.5748580000000  0.4855250000000  0.5074900000000 1.0
C      1  0.4760640000000  0.5752100000000  0.5045270000000 1.0
C      1  0.4929750000000  0.5349150000000  0.5092740000000 1.0
C      1  0.4750970000000  0.4775110000000  0.5078860000000 1.0
C      1  0.5310760000000  0.4899220000000  0.5094220000000 1.0
C      1  0.4993220000000  0.4787310000000  0.5782270000000 1.0
C      1  0.5141300000000  0.5141100000000  0.5785590000000 1.0
C      1  0.4856690000000  0.5051770000000  0.5786760000000 1.0
END
