TITL C-38188-488-49 -3.95690163231373e-05 125000 -363.854665403332 0 0 60 (C1) n - 1
REM
REM in /home/bkarasulu/CARBON/AIRSS/Generating-Clusters/EDIP-Nigel-Params/Higher-Symm/Box-15A/Only-C60/SD-CG/FIRE-HFTN
REM
REM
REM
REM
REM
REM ./C.cell (414f73aa93bd7a1190c7fd0f31ff2f98)
REM
REM compiler GCC version 9.2.1 20190827 (Red Hat 9.2.1-1)
REM options -cpp -mtune=generic -march=x86-64 -g -O0 -fpre-include=/usr/include/finclude/math-vector-fortran.h
REM seed 1230505434 1877576567 1616925930 1511220912 1489956555 1858518054 -334516011 2111066703 128128931 416796230 -2103644347 2083552594 836063386 -680383904 850732582 47807233 1081196596 1058501594 -1488890042 1025659280 -1494343400 1124270271 -808508448 1130569452 1934205313 -1835719959 1825973849 569793801 1562563342 504280904 324558685 -236052462 -540251854
REM
CELL 1.54180   50.00000   50.00000   50.00000   90.00000   90.00000   90.00000
LATT -1
SFAC C  
C      1  0.5472070000000  0.5616290000000  0.4982040000000 1.0
C      1  0.5080680000000  0.4711750000000  0.4394940000000 1.0
C      1  0.4605640000000  0.5453790000000  0.4759400000000 1.0
C      1  0.5345270000000  0.5092930000000  0.5502190000000 1.0
C      1  0.4922600000000  0.4472180000000  0.5235180000000 1.0
C      1  0.4799810000000  0.4338830000000  0.4427270000000 1.0
C      1  0.5556450000000  0.5059560000000  0.4543450000000 1.0
C      1  0.5510710000000  0.5515070000000  0.5261490000000 1.0
C      1  0.4384220000000  0.5357170000000  0.4943530000000 1.0
C      1  0.4690320000000  0.5684070000000  0.5043190000000 1.0
C      1  0.4762490000000  0.5205850000000  0.4699890000000 1.0
C      1  0.4983050000000  0.5034600000000  0.5831950000000 1.0
C      1  0.5133740000000  0.5294630000000  0.4388340000000 1.0
C      1  0.4430650000000  0.4870450000000  0.5554140000000 1.0
C      1  0.5557540000000  0.4800050000000  0.4950950000000 1.0
C      1  0.4491010000000  0.5139470000000  0.5514150000000 1.0
C      1  0.5657540000000  0.5514350000000  0.4781740000000 1.0
C      1  0.4372230000000  0.4708660000000  0.5334200000000 1.0
C      1  0.5149280000000  0.4943340000000  0.4205610000000 1.0
C      1  0.5106660000000  0.5209890000000  0.5653580000000 1.0
C      1  0.5437000000000  0.4466080000000  0.5216070000000 1.0
C      1  0.4879620000000  0.4710850000000  0.5050680000000 1.0
C      1  0.4809180000000  0.5127400000000  0.5177870000000 1.0
C      1  0.4449290000000  0.4511260000000  0.5148680000000 1.0
C      1  0.5150840000000  0.4365110000000  0.4768890000000 1.0
C      1  0.4798890000000  0.4847250000000  0.5877740000000 1.0
C      1  0.4451410000000  0.4583840000000  0.4854300000000 1.0
C      1  0.5162920000000  0.5659260000000  0.4907710000000 1.0
C      1  0.5294380000000  0.4539650000000  0.4554810000000 1.0
C      1  0.5179860000000  0.4387990000000  0.5085370000000 1.0
C      1  0.5620630000000  0.5081710000000  0.5033190000000 1.0
C      1  0.4679170000000  0.5081320000000  0.4442140000000 1.0
C      1  0.5650540000000  0.4556280000000  0.5058600000000 1.0
C      1  0.4898020000000  0.5140870000000  0.4238480000000 1.0
C      1  0.4388270000000  0.5049020000000  0.4966040000000 1.0
C      1  0.4859880000000  0.4347350000000  0.4703350000000 1.0
C      1  0.5441040000000  0.4811060000000  0.4671940000000 1.0
C      1  0.4593170000000  0.4797320000000  0.4491400000000 1.0
C      1  0.4575030000000  0.4758930000000  0.5761530000000 1.0
C      1  0.4669340000000  0.4345030000000  0.5222670000000 1.0
C      1  0.4916200000000  0.5419470000000  0.5534250000000 1.0
C      1  0.4741610000000  0.4609940000000  0.4793030000000 1.0
C      1  0.4970850000000  0.5725920000000  0.5124520000000 1.0
C      1  0.5407660000000  0.4829330000000  0.5567030000000 1.0
C      1  0.5149170000000  0.4919350000000  0.4717520000000 1.0
C      1  0.5069530000000  0.5213720000000  0.4673720000000 1.0
C      1  0.4325700000000  0.4836420000000  0.4770010000000 1.0
C      1  0.5592200000000  0.5240700000000  0.4783340000000 1.0
C      1  0.5124920000000  0.4870740000000  0.5005050000000 1.0
C      1  0.4683610000000  0.5021300000000  0.4931590000000 1.0
C      1  0.5419640000000  0.4580510000000  0.5469330000000 1.0
C      1  0.4799560000000  0.4612660000000  0.4357390000000 1.0
C      1  0.5510450000000  0.5221550000000  0.5279990000000 1.0
C      1  0.5100670000000  0.5139930000000  0.5138780000000 1.0
C      1  0.5199480000000  0.5343330000000  0.4914440000000 1.0
C      1  0.5392130000000  0.5142880000000  0.4309240000000 1.0
C      1  0.4671780000000  0.5307400000000  0.5366600000000 1.0
C      1  0.5344810000000  0.5644170000000  0.5445910000000 1.0
C      1  0.5068290000000  0.5628500000000  0.5392270000000 1.0
C      1  0.4511270000000  0.5501680000000  0.5187290000000 1.0
END
