TITL C-38196-2854-38 -1.27778268989294e-06 125000 -358.596172306967 0 0 60 (D4) n - 1
REM
REM in /home/bkarasulu/CARBON/AIRSS/Generating-Clusters/EDIP-Nigel-Params/Higher-Symm/Box-15A/Only-C60/SD-CG/FIRE-HFTN
REM
REM
REM
REM
REM
REM ./C.cell (414f73aa93bd7a1190c7fd0f31ff2f98)
REM
REM compiler GCC version 9.2.1 20190827 (Red Hat 9.2.1-1)
REM options -cpp -mtune=generic -march=x86-64 -g -O0 -fpre-include=/usr/include/finclude/math-vector-fortran.h
REM seed -298439715 605564430 1373144361 -406608612 -1074606564 356101106 1632743416 -2095766315 435254745 369161686 384468146 1931287763 -1333861519 578562137 2111474460 1978042596 -1476563037 -1487088885 1432548588 1129500332 -286449439 123710002 -1552171087 1182271705 -1047048510 -920010222 1421517924 172214838 192860615 -1107315011 -1837966080 721058408 1276345958
REM
CELL 1.54180   50.00000   50.00000   50.00000   90.00000   90.00000   90.00000
LATT -1
SFAC C  
C      1  0.5328130000000  0.4557500000000  0.5378240000000 1.0
C      1  0.4621760000000  0.4557500000000  0.5328130000000 1.0
C      1  0.4671870000000  0.4557500000000  0.4621760000000 1.0
C      1  0.5378240000000  0.4557500000000  0.4671870000000 1.0
C      1  0.4671870000000  0.5433780000000  0.5378240000000 1.0
C      1  0.5378240000000  0.5433780000000  0.5328130000000 1.0
C      1  0.5328130000000  0.5433780000000  0.4621760000000 1.0
C      1  0.4621760000000  0.5433780000000  0.4671870000000 1.0
C      1  0.5647460000000  0.5365720000000  0.5221820000000 1.0
C      1  0.4778180000000  0.5365720000000  0.5647460000000 1.0
C      1  0.4352540000000  0.5365720000000  0.4778180000000 1.0
C      1  0.5221820000000  0.5365720000000  0.4352540000000 1.0
C      1  0.4352540000000  0.4625560000000  0.5221820000000 1.0
C      1  0.5221820000000  0.4625560000000  0.5647460000000 1.0
C      1  0.5647460000000  0.4625560000000  0.4778180000000 1.0
C      1  0.4778180000000  0.4625560000000  0.4352540000000 1.0
C      1  0.5283800000000  0.5345360000000  0.5584510000000 1.0
C      1  0.4415490000000  0.5345360000000  0.5283800000000 1.0
C      1  0.4716200000000  0.5345360000000  0.4415490000000 1.0
C      1  0.5584510000000  0.5345360000000  0.4716200000000 1.0
C      1  0.4716200000000  0.4645920000000  0.5584510000000 1.0
C      1  0.5584510000000  0.4645920000000  0.5283800000000 1.0
C      1  0.5283800000000  0.4645920000000  0.4415490000000 1.0
C      1  0.4415490000000  0.4645920000000  0.4716200000000 1.0
C      1  0.4612600000000  0.4941230000000  0.4831910000000 1.0
C      1  0.5168090000000  0.4941230000000  0.4612600000000 1.0
C      1  0.5387400000000  0.4941230000000  0.5168090000000 1.0
C      1  0.4831910000000  0.4941230000000  0.5387400000000 1.0
C      1  0.5387400000000  0.5050050000000  0.4831910000000 1.0
C      1  0.4831910000000  0.5050050000000  0.4612600000000 1.0
C      1  0.4612600000000  0.5050050000000  0.5168090000000 1.0
C      1  0.5168090000000  0.5050050000000  0.5387400000000 1.0
C      1  0.5670040000000  0.5071730000000  0.5208450000000 1.0
C      1  0.4791550000000  0.5071730000000  0.5670040000000 1.0
C      1  0.4329960000000  0.5071730000000  0.4791550000000 1.0
C      1  0.5208450000000  0.5071730000000  0.4329960000000 1.0
C      1  0.4329960000000  0.4919550000000  0.5208450000000 1.0
C      1  0.5208450000000  0.4919550000000  0.5670040000000 1.0
C      1  0.5670040000000  0.4919550000000  0.4791550000000 1.0
C      1  0.4791550000000  0.4919550000000  0.4329960000000 1.0
C      1  0.5682650000000  0.4537830000000  0.5045590000000 1.0
C      1  0.4954410000000  0.4537830000000  0.5682650000000 1.0
C      1  0.4317350000000  0.4537830000000  0.4954410000000 1.0
C      1  0.5045590000000  0.4537830000000  0.4317350000000 1.0
C      1  0.4317350000000  0.5453450000000  0.5045590000000 1.0
C      1  0.5045590000000  0.5453450000000  0.5682650000000 1.0
C      1  0.5682650000000  0.5453450000000  0.4954410000000 1.0
C      1  0.4954410000000  0.5453450000000  0.4317350000000 1.0
C      1  0.5175540000000  0.4580500000000  0.4868910000000 1.0
C      1  0.5131090000000  0.4580500000000  0.5175540000000 1.0
C      1  0.4824460000000  0.4580500000000  0.5131090000000 1.0
C      1  0.4868910000000  0.4580500000000  0.4824460000000 1.0
C      1  0.4824460000000  0.5410780000000  0.4868910000000 1.0
C      1  0.4868910000000  0.5410780000000  0.5175540000000 1.0
C      1  0.5175540000000  0.5410780000000  0.5131090000000 1.0
C      1  0.5131090000000  0.5410780000000  0.4824460000000 1.0
C      1  0.5000000000000  0.4995640000000  0.5851000000000 1.0
C      1  0.4149000000000  0.4995640000000  0.5000000000000 1.0
C      1  0.5000000000000  0.4995640000000  0.4149000000000 1.0
C      1  0.5851000000000  0.4995640000000  0.5000000000000 1.0
END
