TITL C-38196-2854-554 -1.78829937275156e-05 125000 -350.822121917897 0 0 60 (S4) n - 1
REM
REM in /home/bkarasulu/CARBON/AIRSS/Generating-Clusters/EDIP-Nigel-Params/Higher-Symm/Box-15A/Only-C60/SD-CG/FIRE-HFTN
REM
REM
REM
REM
REM
REM ./C.cell (414f73aa93bd7a1190c7fd0f31ff2f98)
REM
REM compiler GCC version 9.2.1 20190827 (Red Hat 9.2.1-1)
REM options -cpp -mtune=generic -march=x86-64 -g -O0 -fpre-include=/usr/include/finclude/math-vector-fortran.h
REM seed 1866715155 -1493606099 645760239 -1170043274 -1708943389 1404753529 -1964129977 -131637033 1655310837 -1707684544 686352915 282070536 -718170487 1353415392 942126366 751611181 1122396116 27966642 1167417865 -1371577785 663554092 -1157468343 927061650 1526198199 -636421401 -1250668162 2109361993 -314096552 742383554 -1220211995 -111220766 2084967753 930529997
REM
CELL 1.54180   50.00000   50.00000   50.00000   90.00000   90.00000   90.00000
LATT -1
SFAC C  
C      1  0.4745650000000  0.5332230000000  0.4656430000000 1.0
C      1  0.4667770000000  0.4745650000000  0.5343570000000 1.0
C      1  0.5254350000000  0.4667770000000  0.4656430000000 1.0
C      1  0.5332230000000  0.5254350000000  0.5343570000000 1.0
C      1  0.5570030000000  0.5447940000000  0.4956000000000 1.0
C      1  0.4552060000000  0.5570030000000  0.5044000000000 1.0
C      1  0.4429970000000  0.4552060000000  0.4956000000000 1.0
C      1  0.5447940000000  0.4429970000000  0.5044000000000 1.0
C      1  0.5599310000000  0.5560540000000  0.4715540000000 1.0
C      1  0.4439460000000  0.5599310000000  0.5284460000000 1.0
C      1  0.4400690000000  0.4439460000000  0.4715540000000 1.0
C      1  0.5560540000000  0.4400690000000  0.5284460000000 1.0
C      1  0.5121530000000  0.5709450000000  0.4813880000000 1.0
C      1  0.4290550000000  0.5121530000000  0.5186120000000 1.0
C      1  0.4878470000000  0.4290550000000  0.4813880000000 1.0
C      1  0.5709450000000  0.4878470000000  0.5186120000000 1.0
C      1  0.5158790000000  0.5625450000000  0.5552130000000 1.0
C      1  0.4374550000000  0.5158790000000  0.4447870000000 1.0
C      1  0.4841210000000  0.4374550000000  0.5552130000000 1.0
C      1  0.5625450000000  0.4841210000000  0.4447870000000 1.0
C      1  0.4951110000000  0.4242470000000  0.5337720000000 1.0
C      1  0.5757530000000  0.4951110000000  0.4662280000000 1.0
C      1  0.5048890000000  0.5757530000000  0.5337720000000 1.0
C      1  0.4242470000000  0.5048890000000  0.4662280000000 1.0
C      1  0.4407050000000  0.4900500000000  0.5353310000000 1.0
C      1  0.5099500000000  0.4407050000000  0.4646690000000 1.0
C      1  0.5592950000000  0.5099500000000  0.5353310000000 1.0
C      1  0.4900500000000  0.5592950000000  0.4646690000000 1.0
C      1  0.4518240000000  0.5390320000000  0.4837020000000 1.0
C      1  0.4609680000000  0.4518240000000  0.5162980000000 1.0
C      1  0.5481760000000  0.4609680000000  0.4837020000000 1.0
C      1  0.5390320000000  0.5481760000000  0.5162980000000 1.0
C      1  0.5146950000000  0.4983590000000  0.4723450000000 1.0
C      1  0.5016410000000  0.5146950000000  0.5276550000000 1.0
C      1  0.4853050000000  0.5016410000000  0.4723450000000 1.0
C      1  0.4983590000000  0.4853050000000  0.5276550000000 1.0
C      1  0.4736610000000  0.4844070000000  0.4496420000000 1.0
C      1  0.5155930000000  0.4736610000000  0.5503580000000 1.0
C      1  0.5263390000000  0.5155930000000  0.4496420000000 1.0
C      1  0.4844070000000  0.5263390000000  0.5503580000000 1.0
C      1  0.5193750000000  0.5434850000000  0.4461090000000 1.0
C      1  0.4565150000000  0.5193750000000  0.5538910000000 1.0
C      1  0.4806250000000  0.4565150000000  0.4461090000000 1.0
C      1  0.5434850000000  0.4806250000000  0.5538910000000 1.0
C      1  0.5629570000000  0.4658560000000  0.5378880000000 1.0
C      1  0.5341440000000  0.5629570000000  0.4621120000000 1.0
C      1  0.4370430000000  0.5341440000000  0.5378880000000 1.0
C      1  0.4658560000000  0.4370430000000  0.4621120000000 1.0
C      1  0.4741330000000  0.4634320000000  0.5620050000000 1.0
C      1  0.5365680000000  0.4741330000000  0.4379950000000 1.0
C      1  0.5258670000000  0.5365680000000  0.5620050000000 1.0
C      1  0.4634320000000  0.5258670000000  0.4379950000000 1.0
C      1  0.5188900000000  0.4967190000000  0.4283020000000 1.0
C      1  0.5032810000000  0.5188900000000  0.5716980000000 1.0
C      1  0.4811100000000  0.5032810000000  0.4283020000000 1.0
C      1  0.4967190000000  0.4811100000000  0.5716980000000 1.0
C      1  0.5152880000000  0.5632390000000  0.5106170000000 1.0
C      1  0.4367610000000  0.5152880000000  0.4893830000000 1.0
C      1  0.4847120000000  0.4367610000000  0.5106170000000 1.0
C      1  0.5632390000000  0.4847120000000  0.4893830000000 1.0
END
