TITL C-38196-2854-602 -1.63409712413369e-05 125000 -353.430248728056 0 0 60 (C4) n - 1
REM
REM in /home/bkarasulu/CARBON/AIRSS/Generating-Clusters/EDIP-Nigel-Params/Higher-Symm/Box-15A/Only-C60/SD-CG/FIRE-HFTN
REM
REM
REM
REM
REM
REM ./C.cell (414f73aa93bd7a1190c7fd0f31ff2f98)
REM
REM compiler GCC version 9.2.1 20190827 (Red Hat 9.2.1-1)
REM options -cpp -mtune=generic -march=x86-64 -g -O0 -fpre-include=/usr/include/finclude/math-vector-fortran.h
REM seed 791782015 -144491757 -2045154734 439128676 -2026519570 1265961440 -863278043 -1344645477 -1460314553 -2075843853 -342567346 1102552358 532380097 -908533396 -1608879439 -838899482 -1517111044 -984017695 923165409 255564390 44386154 1729125752 -1094106124 941634296 144359057 1449954984 1582999778 1039658407 1757731345 1026139923 405167409 -1467597172 -820790687
REM
CELL 1.54180   50.00000   50.00000   50.00000   90.00000   90.00000   90.00000
LATT -1
SFAC C  
C      1  0.5305250000000  0.4817830000000  0.4371370000000 1.0
C      1  0.5182170000000  0.5305250000000  0.4371370000000 1.0
C      1  0.4694750000000  0.5182170000000  0.4371370000000 1.0
C      1  0.4817830000000  0.4694750000000  0.4371370000000 1.0
C      1  0.5072970000000  0.5207670000000  0.4884260000000 1.0
C      1  0.4792330000000  0.5072970000000  0.4884260000000 1.0
C      1  0.4927030000000  0.4792330000000  0.4884260000000 1.0
C      1  0.5207670000000  0.4927030000000  0.4884260000000 1.0
C      1  0.4742230000000  0.5610620000000  0.4928360000000 1.0
C      1  0.4389380000000  0.4742230000000  0.4928360000000 1.0
C      1  0.5257770000000  0.4389380000000  0.4928360000000 1.0
C      1  0.5610620000000  0.5257770000000  0.4928360000000 1.0
C      1  0.5740730000000  0.4864650000000  0.5229740000000 1.0
C      1  0.5135350000000  0.5740730000000  0.5229740000000 1.0
C      1  0.4259270000000  0.5135350000000  0.5229740000000 1.0
C      1  0.4864650000000  0.4259270000000  0.5229740000000 1.0
C      1  0.4825740000000  0.4565150000000  0.4725730000000 1.0
C      1  0.5434850000000  0.4825740000000  0.4725730000000 1.0
C      1  0.5174260000000  0.5434850000000  0.4725730000000 1.0
C      1  0.4565150000000  0.5174260000000  0.4725730000000 1.0
C      1  0.4378280000000  0.4835670000000  0.4437080000000 1.0
C      1  0.5164330000000  0.4378280000000  0.4437080000000 1.0
C      1  0.5621720000000  0.5164330000000  0.4437080000000 1.0
C      1  0.4835670000000  0.5621720000000  0.4437080000000 1.0
C      1  0.5461560000000  0.5094940000000  0.5683760000000 1.0
C      1  0.4905060000000  0.5461560000000  0.5683760000000 1.0
C      1  0.4538440000000  0.4905060000000  0.5683760000000 1.0
C      1  0.5094940000000  0.4538440000000  0.5683760000000 1.0
C      1  0.5332750000000  0.4831340000000  0.5665430000000 1.0
C      1  0.5168660000000  0.5332750000000  0.5665430000000 1.0
C      1  0.4667250000000  0.5168660000000  0.5665430000000 1.0
C      1  0.4831340000000  0.4667250000000  0.5665430000000 1.0
C      1  0.4349990000000  0.4847360000000  0.5472280000000 1.0
C      1  0.5152640000000  0.4349990000000  0.5472280000000 1.0
C      1  0.5650010000000  0.5152640000000  0.5472280000000 1.0
C      1  0.4847360000000  0.5650010000000  0.5472280000000 1.0
C      1  0.4903250000000  0.5375170000000  0.4315630000000 1.0
C      1  0.4624830000000  0.4903250000000  0.4315630000000 1.0
C      1  0.5096750000000  0.4624830000000  0.4315630000000 1.0
C      1  0.5375170000000  0.5096750000000  0.4315630000000 1.0
C      1  0.5184670000000  0.4878800000000  0.5415480000000 1.0
C      1  0.5121200000000  0.5184670000000  0.5415480000000 1.0
C      1  0.4815330000000  0.5121200000000  0.5415480000000 1.0
C      1  0.4878800000000  0.4815330000000  0.5415480000000 1.0
C      1  0.5634060000000  0.5059340000000  0.4700510000000 1.0
C      1  0.4940660000000  0.5634060000000  0.4700510000000 1.0
C      1  0.4365940000000  0.4940660000000  0.4700510000000 1.0
C      1  0.5059340000000  0.4365940000000  0.4700510000000 1.0
C      1  0.4494820000000  0.5431650000000  0.4877600000000 1.0
C      1  0.4568350000000  0.4494820000000  0.4877600000000 1.0
C      1  0.5505180000000  0.4568350000000  0.4877600000000 1.0
C      1  0.5431650000000  0.5505180000000  0.4877600000000 1.0
C      1  0.5600400000000  0.5111370000000  0.5189480000000 1.0
C      1  0.4888630000000  0.5600400000000  0.5189480000000 1.0
C      1  0.4399600000000  0.4888630000000  0.5189480000000 1.0
C      1  0.5111370000000  0.4399600000000  0.5189480000000 1.0
C      1  0.5366200000000  0.5657510000000  0.5103300000000 1.0
C      1  0.4342490000000  0.5366200000000  0.5103300000000 1.0
C      1  0.4633800000000  0.4342490000000  0.5103300000000 1.0
C      1  0.5657510000000  0.4633800000000  0.5103300000000 1.0
END
