TITL C-38193-7935-183 -3.94752988714484e-05 125000 -356.955457657682 0 0 60 (C3i) n - 1
REM
REM in /home/bkarasulu/CARBON/AIRSS/Generating-Clusters/EDIP-Nigel-Params/Higher-Symm/Box-15A/Only-C60/SD-CG/FIRE-HFTN
REM
REM
REM
REM
REM
REM ./C.cell (414f73aa93bd7a1190c7fd0f31ff2f98)
REM
REM compiler GCC version 9.2.1 20190827 (Red Hat 9.2.1-1)
REM options -cpp -mtune=generic -march=x86-64 -g -O0 -fpre-include=/usr/include/finclude/math-vector-fortran.h
REM seed -821613475 -452382470 -627065794 1620436050 2023247185 1846595191 -753360674 -2058399859 531976082 1714662135 1753464215 -914184541 1941150071 1963330771 1145728748 1779644471 46049254 1637602123 1143946031 -1129100836 150113233 848291849 -2111809117 1186738701 -1597919471 1397644104 1478074095 276616662 -1528040333 -350992843 -917563824 -1106148789 -1235704938
REM
CELL 1.54180   50.00000   50.00000   50.00000   90.00000   90.00000   90.00000
LATT -1
SFAC C  
C      1  0.4042780000000  0.4936570000000  0.4701080000000 1.0
C      1  0.4576320000000  0.4139310000000  0.5298910000000 1.0
C      1  0.5533550000000  0.4202730000000  0.4701090000000 1.0
C      1  0.5957220000000  0.5063430000000  0.5298920000000 1.0
C      1  0.5423680000000  0.5860690000000  0.4701090000000 1.0
C      1  0.4466450000000  0.5797270000000  0.5298910000000 1.0
C      1  0.5053950000000  0.5877730000000  0.4981910000000 1.0
C      1  0.4266830000000  0.5485590000000  0.5018080000000 1.0
C      1  0.4212890000000  0.4607850000000  0.4981910000000 1.0
C      1  0.4946050000000  0.4122270000000  0.5018090000000 1.0
C      1  0.5733170000000  0.4514410000000  0.4981920000000 1.0
C      1  0.5787110000000  0.5392150000000  0.5018090000000 1.0
C      1  0.5331220000000  0.5869290000000  0.4963490000000 1.0
C      1  0.4412790000000  0.5721490000000  0.5036510000000 1.0
C      1  0.4081570000000  0.4852200000000  0.4963490000000 1.0
C      1  0.4668780000000  0.4130710000000  0.5036510000000 1.0
C      1  0.5587210000000  0.4278510000000  0.4963490000000 1.0
C      1  0.5918430000000  0.5147800000000  0.5036510000000 1.0
C      1  0.4817810000000  0.5398630000000  0.4197120000000 1.0
C      1  0.4563680000000  0.5041530000000  0.5802870000000 1.0
C      1  0.4745870000000  0.4642900000000  0.4197130000000 1.0
C      1  0.5182190000000  0.4601370000000  0.5802880000000 1.0
C      1  0.5436320000000  0.4958470000000  0.4197130000000 1.0
C      1  0.5254130000000  0.5357100000000  0.5802870000000 1.0
C      1  0.5120540000000  0.4871520000000  0.5811420000000 1.0
C      1  0.5171540000000  0.5040150000000  0.4188580000000 1.0
C      1  0.5051000000000  0.5168640000000  0.5811420000000 1.0
C      1  0.4879460000000  0.5128480000000  0.4188580000000 1.0
C      1  0.4828460000000  0.4959850000000  0.5811420000000 1.0
C      1  0.4949000000000  0.4831360000000  0.4188580000000 1.0
C      1  0.5394610000000  0.4227540000000  0.5153790000000 1.0
C      1  0.5866280000000  0.4955520000000  0.4846220000000 1.0
C      1  0.5471660000000  0.5727980000000  0.5153790000000 1.0
C      1  0.4605390000000  0.5772460000000  0.4846210000000 1.0
C      1  0.4133720000000  0.5044480000000  0.5153780000000 1.0
C      1  0.4528340000000  0.4272020000000  0.4846210000000 1.0
C      1  0.5623370000000  0.4821590000000  0.4326940000000 1.0
C      1  0.5466180000000  0.5450660000000  0.5673070000000 1.0
C      1  0.4842820000000  0.5629050000000  0.4326930000000 1.0
C      1  0.4376630000000  0.5178410000000  0.5673060000000 1.0
C      1  0.4533820000000  0.4549340000000  0.4326930000000 1.0
C      1  0.5157180000000  0.4370950000000  0.5673070000000 1.0
C      1  0.4371730000000  0.4490340000000  0.4787060000000 1.0
C      1  0.5127250000000  0.4201070000000  0.5212950000000 1.0
C      1  0.5755520000000  0.4710730000000  0.4787060000000 1.0
C      1  0.5628270000000  0.5509660000000  0.5212940000000 1.0
C      1  0.4872750000000  0.5798930000000  0.4787050000000 1.0
C      1  0.4244480000000  0.5289270000000  0.5212940000000 1.0
C      1  0.5252180000000  0.5807750000000  0.4499490000000 1.0
C      1  0.4426550000000  0.5622270000000  0.5500500000000 1.0
C      1  0.4174380000000  0.4814510000000  0.4499490000000 1.0
C      1  0.4747820000000  0.4192250000000  0.5500510000000 1.0
C      1  0.5573450000000  0.4377730000000  0.4499500000000 1.0
C      1  0.5825620000000  0.5185490000000  0.5500510000000 1.0
C      1  0.4328900000000  0.5363860000000  0.5475940000000 1.0
C      1  0.4349340000000  0.4600740000000  0.4524060000000 1.0
C      1  0.5020440000000  0.4236880000000  0.5475940000000 1.0
C      1  0.5671100000000  0.4636140000000  0.4524060000000 1.0
C      1  0.5650660000000  0.5399260000000  0.5475940000000 1.0
C      1  0.4979560000000  0.5763120000000  0.4524060000000 1.0
END
