TITL C-38197-8510-222 8.73152564238799e-07 125000 -357.073521007449 0 0 60 (D3) n - 1
REM
REM in /home/bkarasulu/CARBON/AIRSS/Generating-Clusters/EDIP-Nigel-Params/Higher-Symm/Box-15A/Only-C60/SD-CG/FIRE-HFTN
REM
REM
REM
REM
REM
REM ./C.cell (414f73aa93bd7a1190c7fd0f31ff2f98)
REM
REM compiler GCC version 9.2.1 20190827 (Red Hat 9.2.1-1)
REM options -cpp -mtune=generic -march=x86-64 -g -O0 -fpre-include=/usr/include/finclude/math-vector-fortran.h
REM seed -1945711287 128362247 253675721 -1822730372 221746112 2059461682 1766439019 -1029376989 -747460166 -961638695 1858759586 1891048808 -1900606277 1042600992 1385242641 1131624152 -30607167 1353203952 -1537785425 -170060458 799986138 -745893928 -1466392391 -1122720553 -1333647463 1266339277 1878877832 -934091790 -557772334 -1149553001 -810641026 871462294 1084368272
REM
CELL 1.54180   50.00000   50.00000   50.00000   90.00000   90.00000   90.00000
LATT -1
SFAC C  
C      1  0.5105970000000  0.5919400000000  0.5413460000000 1.0
C      1  0.5305080000000  0.5919400000000  0.4701500000000 1.0
C      1  0.4588950000000  0.5919400000000  0.4885040000000 1.0
C      1  0.5105970000000  0.4080600000000  0.4586540000000 1.0
C      1  0.5305080000000  0.4080600000000  0.5298500000000 1.0
C      1  0.4588950000000  0.4080600000000  0.5114960000000 1.0
C      1  0.5538100000000  0.5361020000000  0.4943870000000 1.0
C      1  0.4682340000000  0.5361020000000  0.4562050000000 1.0
C      1  0.4779560000000  0.5361020000000  0.5494070000000 1.0
C      1  0.5538100000000  0.4638980000000  0.5056130000000 1.0
C      1  0.4682340000000  0.4638980000000  0.5437950000000 1.0
C      1  0.4779560000000  0.4638980000000  0.4505930000000 1.0
C      1  0.5317860000000  0.5363590000000  0.4559010000000 1.0
C      1  0.4459170000000  0.5363590000000  0.4945220000000 1.0
C      1  0.5222980000000  0.5363590000000  0.5495760000000 1.0
C      1  0.5317860000000  0.4636410000000  0.5440990000000 1.0
C      1  0.4459170000000  0.4636410000000  0.5054780000000 1.0
C      1  0.5222980000000  0.4636410000000  0.4504240000000 1.0
C      1  0.4551950000000  0.4876310000000  0.4916140000000 1.0
C      1  0.5151400000000  0.4876310000000  0.5429950000000 1.0
C      1  0.5296650000000  0.4876310000000  0.4653910000000 1.0
C      1  0.4551950000000  0.5123690000000  0.5083860000000 1.0
C      1  0.5151400000000  0.5123690000000  0.4570050000000 1.0
C      1  0.5296650000000  0.5123690000000  0.5346090000000 1.0
C      1  0.5386530000000  0.4158580000000  0.5551410000000 1.0
C      1  0.5284270000000  0.4158580000000  0.4389550000000 1.0
C      1  0.4329200000000  0.4158580000000  0.5059040000000 1.0
C      1  0.5386530000000  0.5841420000000  0.4448590000000 1.0
C      1  0.5284270000000  0.5841420000000  0.5610450000000 1.0
C      1  0.4329200000000  0.5841420000000  0.4940960000000 1.0
C      1  0.5342200000000  0.4379770000000  0.4547240000000 1.0
C      1  0.4436800000000  0.4379770000000  0.4930030000000 1.0
C      1  0.5221000000000  0.4379770000000  0.5522730000000 1.0
C      1  0.5342200000000  0.5620230000000  0.5452760000000 1.0
C      1  0.4436800000000  0.5620230000000  0.5069970000000 1.0
C      1  0.5221000000000  0.5620230000000  0.4477270000000 1.0
C      1  0.4725250000000  0.4154860000000  0.5341530000000 1.0
C      1  0.5433150000000  0.4154860000000  0.5067180000000 1.0
C      1  0.4841600000000  0.4154860000000  0.4591300000000 1.0
C      1  0.4725250000000  0.5845140000000  0.4658470000000 1.0
C      1  0.5433150000000  0.5845140000000  0.4932820000000 1.0
C      1  0.4841600000000  0.5845140000000  0.5408700000000 1.0
C      1  0.4852400000000  0.4875190000000  0.5415180000000 1.0
C      1  0.5433360000000  0.4875190000000  0.4920230000000 1.0
C      1  0.4714240000000  0.4875190000000  0.4664590000000 1.0
C      1  0.4852400000000  0.5124810000000  0.4584820000000 1.0
C      1  0.5433360000000  0.5124810000000  0.5079770000000 1.0
C      1  0.4714240000000  0.5124810000000  0.5335410000000 1.0
C      1  0.5000680000000  0.4656700000000  0.4332150000000 1.0
C      1  0.4421280000000  0.4656700000000  0.5333330000000 1.0
C      1  0.5578040000000  0.4656700000000  0.5334520000000 1.0
C      1  0.5000680000000  0.5343300000000  0.5667850000000 1.0
C      1  0.4421280000000  0.5343300000000  0.4666670000000 1.0
C      1  0.5578040000000  0.5343300000000  0.4665480000000 1.0
C      1  0.4781330000000  0.4381750000000  0.5473810000000 1.0
C      1  0.5519670000000  0.4381750000000  0.4952470000000 1.0
C      1  0.4699000000000  0.4381750000000  0.4573720000000 1.0
C      1  0.4781330000000  0.5618250000000  0.4526190000000 1.0
C      1  0.5519670000000  0.5618250000000  0.5047530000000 1.0
C      1  0.4699000000000  0.5618250000000  0.5426280000000 1.0
END
