TITL C-38189-4514-660 -3.50346254649043e-07 125000 -383.013564425248 0 0 60 (D3h) n - 1
REM
REM in /home/bkarasulu/CARBON/AIRSS/Generating-Clusters/EDIP-Nigel-Params/Higher-Symm/Box-15A/Only-C60/SD-CG/FIRE-HFTN
REM
REM
REM
REM
REM
REM ./C.cell (414f73aa93bd7a1190c7fd0f31ff2f98)
REM
REM compiler GCC version 9.2.1 20190827 (Red Hat 9.2.1-1)
REM options -cpp -mtune=generic -march=x86-64 -g -O0 -fpre-include=/usr/include/finclude/math-vector-fortran.h
REM seed -559117249 2105342262 54450292 304082640 -729908292 -1205084614 1888377457 -1836420585 -353397420 -689750629 -556448660 -1803405614 2102741118 1393025244 -1080099437 -1398686750 1230996800 -1825534623 -2077062931 160844198 902194234 -1021711474 -1481010857 909359766 1086161340 -180003391 -2071640877 -716866555 -1668458258 -1535555773 431188390 -831376537 1736224707
REM
CELL 1.54180   50.00000   50.00000   50.00000   90.00000   90.00000   90.00000
LATT -1
SFAC C  
C      1  0.5552110000000  0.4777890000000  0.5485020000000 1.0
C      1  0.5143990000000  0.4777890000000  0.4279350000000 1.0
C      1  0.4303900000000  0.4777890000000  0.5235630000000 1.0
C      1  0.4447890000000  0.4777890000000  0.5485020000000 1.0
C      1  0.4856010000000  0.4777890000000  0.4279350000000 1.0
C      1  0.5696100000000  0.4777890000000  0.5235630000000 1.0
C      1  0.4303410000000  0.5161730000000  0.4769040000000 1.0
C      1  0.5148280000000  0.5161730000000  0.5718740000000 1.0
C      1  0.5548310000000  0.5161730000000  0.4512220000000 1.0
C      1  0.5696590000000  0.5161730000000  0.4769040000000 1.0
C      1  0.4851720000000  0.5161730000000  0.5718740000000 1.0
C      1  0.4451690000000  0.5161730000000  0.4512220000000 1.0
C      1  0.4851720000000  0.4838270000000  0.5718740000000 1.0
C      1  0.5696590000000  0.4838270000000  0.4769040000000 1.0
C      1  0.4451690000000  0.4838270000000  0.4512220000000 1.0
C      1  0.5148280000000  0.4838270000000  0.5718740000000 1.0
C      1  0.4303410000000  0.4838270000000  0.4769040000000 1.0
C      1  0.5548310000000  0.4838270000000  0.4512220000000 1.0
C      1  0.5256880000000  0.4761520000000  0.4556350000000 1.0
C      1  0.4487350000000  0.4761520000000  0.4999360000000 1.0
C      1  0.5255770000000  0.4761520000000  0.5444290000000 1.0
C      1  0.4743120000000  0.4761520000000  0.4556350000000 1.0
C      1  0.5512650000000  0.4761520000000  0.4999360000000 1.0
C      1  0.4744230000000  0.4761520000000  0.5444290000000 1.0
C      1  0.5163120000000  0.5000000000000  0.5274710000000 1.0
C      1  0.5156350000000  0.5000000000000  0.4721380000000 1.0
C      1  0.4680540000000  0.5000000000000  0.5003910000000 1.0
C      1  0.4836880000000  0.5000000000000  0.5274710000000 1.0
C      1  0.4843650000000  0.5000000000000  0.4721380000000 1.0
C      1  0.5319460000000  0.5000000000000  0.5003910000000 1.0
C      1  0.5150340000000  0.4530290000000  0.5262270000000 1.0
C      1  0.5151960000000  0.4530290000000  0.4738660000000 1.0
C      1  0.4697690000000  0.4530290000000  0.4999070000000 1.0
C      1  0.4849660000000  0.4530290000000  0.5262270000000 1.0
C      1  0.4848040000000  0.4530290000000  0.4738660000000 1.0
C      1  0.5302310000000  0.4530290000000  0.4999070000000 1.0
C      1  0.5242190000000  0.5000000000000  0.4128610000000 1.0
C      1  0.4124260000000  0.5000000000000  0.5225950000000 1.0
C      1  0.5633550000000  0.5000000000000  0.5645440000000 1.0
C      1  0.4757810000000  0.5000000000000  0.4128610000000 1.0
C      1  0.5875740000000  0.5000000000000  0.5225950000000 1.0
C      1  0.4366450000000  0.5000000000000  0.5645440000000 1.0
C      1  0.5256880000000  0.5238480000000  0.4556350000000 1.0
C      1  0.4487350000000  0.5238480000000  0.4999360000000 1.0
C      1  0.5255770000000  0.5238480000000  0.5444290000000 1.0
C      1  0.4743120000000  0.5238480000000  0.4556350000000 1.0
C      1  0.5512650000000  0.5238480000000  0.4999360000000 1.0
C      1  0.4744230000000  0.5238480000000  0.5444290000000 1.0
C      1  0.4303900000000  0.5222110000000  0.5235630000000 1.0
C      1  0.5552110000000  0.5222110000000  0.5485020000000 1.0
C      1  0.5143990000000  0.5222110000000  0.4279350000000 1.0
C      1  0.5696100000000  0.5222110000000  0.5235630000000 1.0
C      1  0.4447890000000  0.5222110000000  0.5485020000000 1.0
C      1  0.4856010000000  0.5222110000000  0.4279350000000 1.0
C      1  0.5151960000000  0.5469710000000  0.4738660000000 1.0
C      1  0.4697690000000  0.5469710000000  0.4999070000000 1.0
C      1  0.5150340000000  0.5469710000000  0.5262270000000 1.0
C      1  0.4848040000000  0.5469710000000  0.4738660000000 1.0
C      1  0.5302310000000  0.5469710000000  0.4999070000000 1.0
C      1  0.4849660000000  0.5469710000000  0.5262270000000 1.0
END
