TITL C-38193-7935-574 4.31465677541815e-06 125000 -367.441235016888 0 0 60 (S4) n - 1
REM
REM in /home/bkarasulu/CARBON/AIRSS/Generating-Clusters/EDIP-Nigel-Params/Higher-Symm/Box-15A/Only-C60/SD-CG/FIRE-HFTN
REM
REM
REM
REM
REM
REM ./C.cell (414f73aa93bd7a1190c7fd0f31ff2f98)
REM
REM compiler GCC version 9.2.1 20190827 (Red Hat 9.2.1-1)
REM options -cpp -mtune=generic -march=x86-64 -g -O0 -fpre-include=/usr/include/finclude/math-vector-fortran.h
REM seed 313229552 -207018206 1783438825 -756772757 -618877250 -745004279 680347172 1246172377 -886319596 608708370 954018873 -1899420992 319801569 -282035851 -1284747417 1887526640 -826748356 100887517 -458625012 1089018897 1666113595 1284887992 111717422 334836164 2017541520 1943993363 -227883408 1830259689 2028443613 1392805378 -1606435039 1994459236 884408736
REM
CELL 1.54180   50.00000   50.00000   50.00000   90.00000   90.00000   90.00000
LATT -1
SFAC C  
C      1  0.4872750000000  0.5212770000000  0.4864760000000 1.0
C      1  0.4774490000000  0.4892780000000  0.4834930000000 1.0
C      1  0.5127250000000  0.4787230000000  0.4864760000000 1.0
C      1  0.5225510000000  0.5107220000000  0.4834930000000 1.0
C      1  0.4892780000000  0.5225510000000  0.5180060000000 1.0
C      1  0.4787230000000  0.4872750000000  0.5150230000000 1.0
C      1  0.5107220000000  0.4774490000000  0.5180060000000 1.0
C      1  0.5212770000000  0.5127250000000  0.5150230000000 1.0
C      1  0.4919840000000  0.5499640000000  0.4494300000000 1.0
C      1  0.4498620000000  0.4934720000000  0.4487440000000 1.0
C      1  0.5080160000000  0.4500360000000  0.4494300000000 1.0
C      1  0.5501380000000  0.5065280000000  0.4487440000000 1.0
C      1  0.4934720000000  0.5501380000000  0.5527550000000 1.0
C      1  0.4500360000000  0.4919840000000  0.5520690000000 1.0
C      1  0.5065280000000  0.4498620000000  0.5527550000000 1.0
C      1  0.5499640000000  0.5080160000000  0.5520690000000 1.0
C      1  0.5212650000000  0.5418150000000  0.5485690000000 1.0
C      1  0.4579440000000  0.5200750000000  0.5492620000000 1.0
C      1  0.4787350000000  0.4581850000000  0.5485690000000 1.0
C      1  0.5420560000000  0.4799250000000  0.5492620000000 1.0
C      1  0.5200750000000  0.5420560000000  0.4522370000000 1.0
C      1  0.4581850000000  0.5212650000000  0.4529300000000 1.0
C      1  0.4799250000000  0.4579440000000  0.4522370000000 1.0
C      1  0.5418150000000  0.4787350000000  0.4529300000000 1.0
C      1  0.4462760000000  0.5318320000000  0.5249360000000 1.0
C      1  0.4674230000000  0.4454220000000  0.5243060000000 1.0
C      1  0.5537240000000  0.4681680000000  0.5249360000000 1.0
C      1  0.5325770000000  0.5545780000000  0.5243060000000 1.0
C      1  0.4454220000000  0.5325770000000  0.4771930000000 1.0
C      1  0.4681680000000  0.4462760000000  0.4765630000000 1.0
C      1  0.5545780000000  0.4674230000000  0.4771930000000 1.0
C      1  0.5318320000000  0.5537240000000  0.4765630000000 1.0
C      1  0.5343010000000  0.5251790000000  0.4348500000000 1.0
C      1  0.4730910000000  0.5358150000000  0.4341400000000 1.0
C      1  0.4656990000000  0.4748210000000  0.4348500000000 1.0
C      1  0.5269090000000  0.4641850000000  0.4341400000000 1.0
C      1  0.5358150000000  0.5269090000000  0.5673590000000 1.0
C      1  0.4748210000000  0.5343010000000  0.5666490000000 1.0
C      1  0.4641850000000  0.4730910000000  0.5673590000000 1.0
C      1  0.5251790000000  0.4656990000000  0.5666490000000 1.0
C      1  0.4577830000000  0.5575120000000  0.5163490000000 1.0
C      1  0.4421260000000  0.4575000000000  0.5150600000000 1.0
C      1  0.5422170000000  0.4424880000000  0.5163490000000 1.0
C      1  0.5578740000000  0.5425000000000  0.5150600000000 1.0
C      1  0.4575000000000  0.5578740000000  0.4864390000000 1.0
C      1  0.4424880000000  0.4577830000000  0.4851500000000 1.0
C      1  0.5425000000000  0.4421260000000  0.4864390000000 1.0
C      1  0.5575120000000  0.5422170000000  0.4851500000000 1.0
C      1  0.5519250000000  0.5139270000000  0.5227200000000 1.0
C      1  0.4867290000000  0.5536650000000  0.5236560000000 1.0
C      1  0.4480750000000  0.4860730000000  0.5227200000000 1.0
C      1  0.5132710000000  0.4463350000000  0.5236560000000 1.0
C      1  0.5536650000000  0.5132710000000  0.4778430000000 1.0
C      1  0.4860730000000  0.5519250000000  0.4787790000000 1.0
C      1  0.4463350000000  0.4867290000000  0.4778430000000 1.0
C      1  0.5139270000000  0.4480750000000  0.4787790000000 1.0
C      1  0.5640430000000  0.4842800000000  0.5011920000000 1.0
C      1  0.5157200000000  0.5640430000000  0.5003070000000 1.0
C      1  0.4359570000000  0.5157200000000  0.5011920000000 1.0
C      1  0.4842800000000  0.4359570000000  0.5003070000000 1.0
END
