TITL C-38191-7580-150 -2.37866307819723e-07 125000 -364.496419453943 0 0 60 (C2) n - 1
REM
REM in /home/bkarasulu/CARBON/AIRSS/Generating-Clusters/EDIP-Nigel-Params/Higher-Symm/Box-15A/Only-C60/SD-CG/FIRE-HFTN
REM
REM
REM
REM
REM
REM ./C.cell (414f73aa93bd7a1190c7fd0f31ff2f98)
REM
REM compiler GCC version 9.2.1 20190827 (Red Hat 9.2.1-1)
REM options -cpp -mtune=generic -march=x86-64 -g -O0 -fpre-include=/usr/include/finclude/math-vector-fortran.h
REM seed 258058051 -643605069 -403738032 -328417320 240110986 -355733670 334150498 -187540395 440894995 -329761622 99505697 584217070 1865677446 1179097565 820409676 1404088013 1508628408 283082479 -2137464816 -149355455 -903537458 -107614663 1156524220 1366590379 452322882 -1749034867 -823675591 646769312 1941792696 -447718812 -1908113894 -14086179 458440398
REM
CELL 1.54180   50.00000   50.00000   50.00000   90.00000   90.00000   90.00000
LATT -1
SFAC C  
C      1  0.5523790000000  0.5344540000000  0.5025540000000 1.0
C      1  0.5523790000000  0.4655460000000  0.4974460000000 1.0
C      1  0.4477940000000  0.5343230000000  0.4964020000000 1.0
C      1  0.4477940000000  0.4656770000000  0.5035980000000 1.0
C      1  0.4940770000000  0.5449480000000  0.5592540000000 1.0
C      1  0.4940770000000  0.4550520000000  0.4407460000000 1.0
C      1  0.5060360000000  0.5463240000000  0.4395760000000 1.0
C      1  0.5060360000000  0.4536760000000  0.5604240000000 1.0
C      1  0.5223250000000  0.4634240000000  0.4426030000000 1.0
C      1  0.5223250000000  0.5365760000000  0.5573970000000 1.0
C      1  0.4776320000000  0.4620090000000  0.5589690000000 1.0
C      1  0.4776320000000  0.5379910000000  0.4410310000000 1.0
C      1  0.5462290000000  0.5445110000000  0.4668280000000 1.0
C      1  0.5462290000000  0.4554890000000  0.5331720000000 1.0
C      1  0.4537660000000  0.5439740000000  0.5322420000000 1.0
C      1  0.4537660000000  0.4560260000000  0.4677580000000 1.0
C      1  0.4615710000000  0.4913330000000  0.4319380000000 1.0
C      1  0.4615710000000  0.5086670000000  0.5680620000000 1.0
C      1  0.5383660000000  0.4904200000000  0.5691300000000 1.0
C      1  0.5383660000000  0.5095800000000  0.4308700000000 1.0
C      1  0.4699180000000  0.5298770000000  0.5522710000000 1.0
C      1  0.4699180000000  0.4701230000000  0.4477290000000 1.0
C      1  0.5301850000000  0.5310130000000  0.4463950000000 1.0
C      1  0.5301850000000  0.4689870000000  0.5536050000000 1.0
C      1  0.4924330000000  0.5695250000000  0.5426490000000 1.0
C      1  0.4924330000000  0.4304750000000  0.4573510000000 1.0
C      1  0.5076410000000  0.5704940000000  0.4568720000000 1.0
C      1  0.5076410000000  0.4295060000000  0.5431280000000 1.0
C      1  0.5389020000000  0.4428200000000  0.4557580000000 1.0
C      1  0.5389020000000  0.5571800000000  0.5442420000000 1.0
C      1  0.4610670000000  0.4417510000000  0.5451220000000 1.0
C      1  0.4610670000000  0.5582490000000  0.4548780000000 1.0
C      1  0.4706060000000  0.5657590000000  0.5218640000000 1.0
C      1  0.4706060000000  0.4342410000000  0.4781360000000 1.0
C      1  0.5292350000000  0.5658540000000  0.4777630000000 1.0
C      1  0.5292350000000  0.4341460000000  0.5222370000000 1.0
C      1  0.5336010000000  0.4835600000000  0.4272250000000 1.0
C      1  0.5336010000000  0.5164400000000  0.5727750000000 1.0
C      1  0.4663710000000  0.4829210000000  0.5734650000000 1.0
C      1  0.4663710000000  0.5170790000000  0.4265350000000 1.0
C      1  0.4852310000000  0.4418090000000  0.5033270000000 1.0
C      1  0.4852310000000  0.5581910000000  0.4966730000000 1.0
C      1  0.5144950000000  0.4423020000000  0.4973570000000 1.0
C      1  0.5144950000000  0.5576980000000  0.5026430000000 1.0
C      1  0.4632040000000  0.4894250000000  0.5101680000000 1.0
C      1  0.4632040000000  0.5105750000000  0.4898320000000 1.0
C      1  0.5372540000000  0.4891370000000  0.4906050000000 1.0
C      1  0.5372540000000  0.5108630000000  0.5093950000000 1.0
C      1  0.5074640000000  0.5151800000000  0.5125350000000 1.0
C      1  0.5074640000000  0.4848200000000  0.4874650000000 1.0
C      1  0.4920090000000  0.5160230000000  0.4849330000000 1.0
C      1  0.4920090000000  0.4839770000000  0.5150670000000 1.0
C      1  0.5188160000000  0.4280480000000  0.4714800000000 1.0
C      1  0.5188160000000  0.5719520000000  0.5285200000000 1.0
C      1  0.4811120000000  0.4270560000000  0.5291150000000 1.0
C      1  0.4811120000000  0.5729440000000  0.4708850000000 1.0
C      1  0.4417690000000  0.4498890000000  0.5261230000000 1.0
C      1  0.4417690000000  0.5501110000000  0.4738770000000 1.0
C      1  0.5585130000000  0.4499310000000  0.4748670000000 1.0
C      1  0.5585130000000  0.5500690000000  0.5251330000000 1.0
END
