TITL C-38189-4514-107 5.3108316107108e-05 125000 -352.146788654911 0 0 60 (C1) n - 1
REM
REM in /home/bkarasulu/CARBON/AIRSS/Generating-Clusters/EDIP-Nigel-Params/Higher-Symm/Box-15A/Only-C60/SD-CG/FIRE-HFTN
REM
REM
REM
REM
REM
REM ./C.cell (414f73aa93bd7a1190c7fd0f31ff2f98)
REM
REM compiler GCC version 9.2.1 20190827 (Red Hat 9.2.1-1)
REM options -cpp -mtune=generic -march=x86-64 -g -O0 -fpre-include=/usr/include/finclude/math-vector-fortran.h
REM seed -341171161 -111595540 657669255 989417711 -8512970 -565038040 2147292007 -2119120502 -1731672225 -2004648797 -66517904 165341325 -2073860796 1242501501 85211413 1593159037 284938229 -87918739 -1710372999 -896059431 -1110541326 -1387377978 -1310431413 618269516 995440429 1030060861 -609286637 -504348547 -1747775786 -2055092132 1881639195 -1037916741 242748423
REM
CELL 1.54180   50.00000   50.00000   50.00000   90.00000   90.00000   90.00000
LATT -1
SFAC C  
C      1  0.4173180000000  0.5059690000000  0.4743090000000 1.0
C      1  0.4136080000000  0.4771570000000  0.4839190000000 1.0
C      1  0.4230540000000  0.4762530000000  0.5145320000000 1.0
C      1  0.4289850000000  0.5036750000000  0.5224840000000 1.0
C      1  0.4187200000000  0.5224690000000  0.5023680000000 1.0
C      1  0.4703830000000  0.5442890000000  0.4297090000000 1.0
C      1  0.4690800000000  0.4534720000000  0.4362530000000 1.0
C      1  0.4694960000000  0.4163430000000  0.5276020000000 1.0
C      1  0.4668940000000  0.5097800000000  0.5833740000000 1.0
C      1  0.4761800000000  0.5650490000000  0.5205010000000 1.0
C      1  0.5109960000000  0.4827910000000  0.5748890000000 1.0
C      1  0.5222580000000  0.5643080000000  0.5452730000000 1.0
C      1  0.5148890000000  0.5631160000000  0.4493390000000 1.0
C      1  0.5141400000000  0.4751440000000  0.4252630000000 1.0
C      1  0.5140570000000  0.4203800000000  0.5038090000000 1.0
C      1  0.5550890000000  0.5050700000000  0.5573810000000 1.0
C      1  0.5494570000000  0.5539260000000  0.5118370000000 1.0
C      1  0.5449250000000  0.5314280000000  0.4578110000000 1.0
C      1  0.5419440000000  0.4696430000000  0.4594910000000 1.0
C      1  0.5415710000000  0.4518320000000  0.5187920000000 1.0
C      1  0.5235650000000  0.5355570000000  0.5504250000000 1.0
C      1  0.5101750000000  0.5613350000000  0.4775400000000 1.0
C      1  0.5094530000000  0.5004380000000  0.4378520000000 1.0
C      1  0.5060030000000  0.4407780000000  0.4853150000000 1.0
C      1  0.5053090000000  0.4701620000000  0.5494950000000 1.0
C      1  0.4603890000000  0.5486620000000  0.5069850000000 1.0
C      1  0.4508600000000  0.5307020000000  0.4416230000000 1.0
C      1  0.4509170000000  0.4591070000000  0.4546780000000 1.0
C      1  0.4501540000000  0.4334060000000  0.5212150000000 1.0
C      1  0.4436660000000  0.5130160000000  0.5710320000000 1.0
C      1  0.4440460000000  0.5208860000000  0.4664840000000 1.0
C      1  0.4357030000000  0.4557660000000  0.4775370000000 1.0
C      1  0.4448840000000  0.4562160000000  0.5067030000000 1.0
C      1  0.4287530000000  0.5106350000000  0.5492050000000 1.0
C      1  0.4405080000000  0.5401320000000  0.4897830000000 1.0
C      1  0.4942320000000  0.5558200000000  0.4323470000000 1.0
C      1  0.4930500000000  0.4572690000000  0.4255030000000 1.0
C      1  0.4949660000000  0.4113260000000  0.5217130000000 1.0
C      1  0.4916090000000  0.5001410000000  0.5844770000000 1.0
C      1  0.4987750000000  0.5720180000000  0.5325390000000 1.0
C      1  0.5476770000000  0.5711820000000  0.5345020000000 1.0
C      1  0.5420800000000  0.5566290000000  0.4443490000000 1.0
C      1  0.5408770000000  0.4672820000000  0.4308820000000 1.0
C      1  0.5413310000000  0.4243350000000  0.5108040000000 1.0
C      1  0.5385890000000  0.4884550000000  0.5728580000000 1.0
C      1  0.5552900000000  0.5021400000000  0.5267950000000 1.0
C      1  0.5598410000000  0.5263310000000  0.5082410000000 1.0
C      1  0.5576650000000  0.5160530000000  0.4804850000000 1.0
C      1  0.5557790000000  0.4861100000000  0.4808510000000 1.0
C      1  0.5553000000000  0.4767130000000  0.5093600000000 1.0
C      1  0.5149030000000  0.4762010000000  0.4932030000000 1.0
C      1  0.5148930000000  0.4864630000000  0.5236030000000 1.0
C      1  0.5197590000000  0.5183620000000  0.5240340000000 1.0
C      1  0.5185310000000  0.5287580000000  0.4933530000000 1.0
C      1  0.5163070000000  0.5025630000000  0.4745670000000 1.0
C      1  0.5296250000000  0.4558940000000  0.5440790000000 1.0
C      1  0.5480790000000  0.5310810000000  0.5642610000000 1.0
C      1  0.5367530000000  0.5629120000000  0.4881050000000 1.0
C      1  0.5360630000000  0.5099520000000  0.4419020000000 1.0
C      1  0.5305970000000  0.4471150000000  0.4723830000000 1.0
END
