TITL C-38199-1586-77 -1.91778660558651e-05 125000 -344.94711129298 0 0 60 (C1) n - 1
REM
REM in /home/bkarasulu/CARBON/AIRSS/Generating-Clusters/EDIP-Nigel-Params/Higher-Symm/Box-15A/Only-C60/SD-CG/FIRE-HFTN
REM
REM
REM
REM
REM
REM ./C.cell (414f73aa93bd7a1190c7fd0f31ff2f98)
REM
REM compiler GCC version 9.2.1 20190827 (Red Hat 9.2.1-1)
REM options -cpp -mtune=generic -march=x86-64 -g -O0 -fpre-include=/usr/include/finclude/math-vector-fortran.h
REM seed 180375959 -1095178098 579527131 1911723323 1275540260 -1951956507 -903869187 -1541356454 -967706989 560109895 106807429 -778415893 1989793532 -761470489 193884472 -1333388705 663077049 136286955 892539455 -1679789832 -724049323 -126385533 -345107020 1027057605 -1401198298 -81163046 -1511572134 730532016 -1689437771 -1441680304 -514620352 1630215439 602276664
REM
CELL 1.54180   50.00000   50.00000   50.00000   90.00000   90.00000   90.00000
LATT -1
SFAC C  
C      1  0.4375380000000  0.4988020000000  0.4415220000000 1.0
C      1  0.4456840000000  0.4393730000000  0.4776910000000 1.0
C      1  0.4962070000000  0.4433160000000  0.4335920000000 1.0
C      1  0.5645830000000  0.5039290000000  0.4411430000000 1.0
C      1  0.5704550000000  0.4877870000000  0.5433870000000 1.0
C      1  0.4268380000000  0.5011790000000  0.5507840000000 1.0
C      1  0.5515000000000  0.5645140000000  0.4879610000000 1.0
C      1  0.5429580000000  0.4277810000000  0.5202850000000 1.0
C      1  0.4508380000000  0.5654920000000  0.5214890000000 1.0
C      1  0.5154000000000  0.5578130000000  0.4342320000000 1.0
C      1  0.5219420000000  0.4677290000000  0.5759350000000 1.0
C      1  0.4835570000000  0.5414400000000  0.5722750000000 1.0
C      1  0.4934210000000  0.4268530000000  0.4548350000000 1.0
C      1  0.4296000000000  0.4613120000000  0.4757750000000 1.0
C      1  0.4565580000000  0.4845100000000  0.4279160000000 1.0
C      1  0.5132470000000  0.5742680000000  0.4556020000000 1.0
C      1  0.4924560000000  0.5622050000000  0.5573600000000 1.0
C      1  0.5176010000000  0.4430720000000  0.5651470000000 1.0
C      1  0.5676460000000  0.5456730000000  0.4762600000000 1.0
C      1  0.4314640000000  0.5470140000000  0.5166250000000 1.0
C      1  0.5620140000000  0.4449940000000  0.5111970000000 1.0
C      1  0.5450320000000  0.5125390000000  0.4242320000000 1.0
C      1  0.4419560000000  0.4925330000000  0.5716300000000 1.0
C      1  0.5588070000000  0.5028670000000  0.5627030000000 1.0
C      1  0.5052360000000  0.5585800000000  0.4777950000000 1.0
C      1  0.4685830000000  0.4947110000000  0.5643840000000 1.0
C      1  0.5517520000000  0.4695440000000  0.5016930000000 1.0
C      1  0.4947570000000  0.4422380000000  0.4785000000000 1.0
C      1  0.4983320000000  0.5529420000000  0.5312620000000 1.0
C      1  0.5036360000000  0.4473000000000  0.5409260000000 1.0
C      1  0.5329430000000  0.5096690000000  0.5535110000000 1.0
C      1  0.5204680000000  0.5089330000000  0.4380680000000 1.0
C      1  0.4808610000000  0.4893020000000  0.4416720000000 1.0
C      1  0.4448880000000  0.5233900000000  0.5084750000000 1.0
C      1  0.4409300000000  0.4847310000000  0.4871510000000 1.0
C      1  0.5580510000000  0.5207510000000  0.4858800000000 1.0
C      1  0.5555430000000  0.4976030000000  0.4672160000000 1.0
C      1  0.5121870000000  0.4894460000000  0.5605300000000 1.0
C      1  0.4762400000000  0.5587930000000  0.5111740000000 1.0
C      1  0.4463790000000  0.5063790000000  0.4674930000000 1.0
C      1  0.5558550000000  0.4921510000000  0.5196140000000 1.0
C      1  0.4439640000000  0.5012730000000  0.5281040000000 1.0
C      1  0.4800310000000  0.5195390000000  0.5550210000000 1.0
C      1  0.5042040000000  0.5330360000000  0.4412470000000 1.0
C      1  0.5019120000000  0.4689950000000  0.4436830000000 1.0
C      1  0.5180010000000  0.4407100000000  0.5161800000000 1.0
C      1  0.4690820000000  0.4477790000000  0.4910420000000 1.0
C      1  0.5267660000000  0.5538750000000  0.4971840000000 1.0
C      1  0.5249060000000  0.4991070000000  0.4663780000000 1.0
C      1  0.4742870000000  0.5294170000000  0.5025860000000 1.0
C      1  0.5004110000000  0.4767930000000  0.5353650000000 1.0
C      1  0.5219040000000  0.4682020000000  0.5039880000000 1.0
C      1  0.5296030000000  0.5239240000000  0.4959020000000 1.0
C      1  0.4936230000000  0.5215960000000  0.5279500000000 1.0
C      1  0.4947700000000  0.5303770000000  0.4698320000000 1.0
C      1  0.4706970000000  0.4846040000000  0.5266870000000 1.0
C      1  0.5290760000000  0.5069810000000  0.5227790000000 1.0
C      1  0.4686700000000  0.4769490000000  0.4967840000000 1.0
C      1  0.5072470000000  0.4709530000000  0.4758910000000 1.0
C      1  0.4769050000000  0.5024310000000  0.4684760000000 1.0
END
