TITL C-38197-8510-515 1.68134835927654 125000 -347.464118841425 0 0 60 (C3h) n - 1
REM
REM in /home/bkarasulu/CARBON/AIRSS/Generating-Clusters/EDIP-Nigel-Params/Higher-Symm/Box-15A/Only-C60/SD-CG/FIRE-HFTN
REM
REM
REM
REM
REM
REM ./C.cell (414f73aa93bd7a1190c7fd0f31ff2f98)
REM
REM compiler GCC version 9.2.1 20190827 (Red Hat 9.2.1-1)
REM options -cpp -mtune=generic -march=x86-64 -g -O0 -fpre-include=/usr/include/finclude/math-vector-fortran.h
REM seed 1569345600 -385258569 -1088254297 -1264547054 475608259 -467085849 -351033121 1844291011 502597674 1035167658 -1286551252 1302941831 -1252519010 -1339445580 1746856835 1448798772 1647064195 -1021090812 1470242887 414806501 -1807009674 1183383459 243973709 617566703 -1241691745 697146615 1230880398 1791418254 -1509168454 419468289 514250978 1326033123 -1908147736
REM
CELL 1.54180   50.00000   50.00000   50.00000   90.00000   90.00000   90.00000
LATT -1
SFAC C  
C      1  0.5635580000000  0.4856620000000  0.4540780000000 1.0
C      1  0.5079900000000  0.4856620000000  0.5780040000000 1.0
C      1  0.4284510000000  0.4856620000000  0.4679180000000 1.0
C      1  0.5635580000000  0.5143380000000  0.4540780000000 1.0
C      1  0.5079900000000  0.5143380000000  0.5780040000000 1.0
C      1  0.4284510000000  0.5143380000000  0.4679180000000 1.0
C      1  0.5194590000000  0.5134200000000  0.4351800000000 1.0
C      1  0.5464060000000  0.5134200000000  0.5492620000000 1.0
C      1  0.4341340000000  0.5134190000000  0.5155580000000 1.0
C      1  0.5194590000000  0.4865800000000  0.4351800000000 1.0
C      1  0.5464060000000  0.4865800000000  0.5492620000000 1.0
C      1  0.4341350000000  0.4865800000000  0.5155580000000 1.0
C      1  0.4368610000000  0.4444450000000  0.4933250000000 1.0
C      1  0.5373500000000  0.4444460000000  0.4486570000000 1.0
C      1  0.5257890000000  0.4444460000000  0.5580170000000 1.0
C      1  0.4368610000000  0.5555540000000  0.4933250000000 1.0
C      1  0.5373500000000  0.5555550000000  0.4486580000000 1.0
C      1  0.5257890000000  0.5555550000000  0.5580170000000 1.0
C      1  0.4775920000000  0.5524710000000  0.5887630000000 1.0
C      1  0.4343330000000  0.5524710000000  0.4362120000000 1.0
C      1  0.5880750000000  0.5524710000000  0.4750240000000 1.0
C      1  0.4775920000000  0.4475290000000  0.5887630000000 1.0
C      1  0.4343330000000  0.4475290000000  0.4362120000000 1.0
C      1  0.5880750000000  0.4475300000000  0.4750240000000 1.0
C      1  0.5043300000000  0.5747160000000  0.4829240000000 1.0
C      1  0.5126230000000  0.5747160000000  0.5122890000000 1.0
C      1  0.4830460000000  0.5747160000000  0.5047880000000 1.0
C      1  0.5043310000000  0.4252840000000  0.4829240000000 1.0
C      1  0.5126230000000  0.4252840000000  0.5122880000000 1.0
C      1  0.4830470000000  0.4252840000000  0.5047880000000 1.0
C      1  0.5279280000000  0.4714050000000  0.5631420000000 1.0
C      1  0.4313530000000  0.4714050000000  0.4926150000000 1.0
C      1  0.5407190000000  0.4714050000000  0.4442430000000 1.0
C      1  0.5279270000000  0.5285950000000  0.5631420000000 1.0
C      1  0.4313530000000  0.5285950000000  0.4926150000000 1.0
C      1  0.5407190000000  0.5285950000000  0.4442430000000 1.0
C      1  0.4475400000000  0.4598350000000  0.4152470000000 1.0
C      1  0.5996280000000  0.4598360000000  0.4969440000000 1.0
C      1  0.4528330000000  0.4598350000000  0.5878080000000 1.0
C      1  0.4475390000000  0.5401640000000  0.4152470000000 1.0
C      1  0.5996280000000  0.5401650000000  0.4969440000000 1.0
C      1  0.4528320000000  0.5401640000000  0.5878080000000 1.0
C      1  0.5871110000000  0.4722220000000  0.4626730000000 1.0
C      1  0.4887710000000  0.4722210000000  0.5941040000000 1.0
C      1  0.4241190000000  0.4722210000000  0.4432230000000 1.0
C      1  0.5871110000000  0.5277790000000  0.4626730000000 1.0
C      1  0.4887700000000  0.5277780000000  0.5941040000000 1.0
C      1  0.4241180000000  0.5277780000000  0.4432230000000 1.0
C      1  0.5235850000000  0.4267620000000  0.4630010000000 1.0
C      1  0.5202500000000  0.4267620000000  0.5389240000000 1.0
C      1  0.4561660000000  0.4267610000000  0.4980750000000 1.0
C      1  0.5235840000000  0.5732390000000  0.4630010000000 1.0
C      1  0.5202500000000  0.5732390000000  0.5389240000000 1.0
C      1  0.4561650000000  0.5732380000000  0.4980750000000 1.0
C      1  0.4519270000000  0.5133290000000  0.4116730000000 1.0
C      1  0.6005300000000  0.5133300000000  0.5025310000000 1.0
C      1  0.4475430000000  0.5133290000000  0.5857960000000 1.0
C      1  0.4519270000000  0.4866700000000  0.4116730000000 1.0
C      1  0.6005300000000  0.4866710000000  0.5025310000000 1.0
C      1  0.4475430000000  0.4866700000000  0.5857960000000 1.0
END
