TITL C-38196-2854-244 1.48830413919349e-06 125000 -379.371521370356 0 0 60 (C4h) n - 1
REM
REM in /home/bkarasulu/CARBON/AIRSS/Generating-Clusters/EDIP-Nigel-Params/Higher-Symm/Box-15A/Only-C60/SD-CG/FIRE-HFTN
REM
REM
REM
REM
REM
REM ./C.cell (414f73aa93bd7a1190c7fd0f31ff2f98)
REM
REM compiler GCC version 9.2.1 20190827 (Red Hat 9.2.1-1)
REM options -cpp -mtune=generic -march=x86-64 -g -O0 -fpre-include=/usr/include/finclude/math-vector-fortran.h
REM seed 513417542 -1028133692 1265154344 2011188310 1649727950 817648101 -836330928 358927565 -735050256 1272270993 1832247858 847650624 2115690549 323668871 -604290624 107261411 -981208196 1428966335 -1565371358 1899282592 1066206349 682088954 -1830905602 1097647431 -1111702194 1772601295 -1413750993 1370086340 239811376 -351333981 1096626136 -972019894 -2071386242
REM
CELL 1.54180   50.00000   50.00000   50.00000   90.00000   90.00000   90.00000
LATT -1
SFAC C  
C      1  0.5190690000000  0.5689930000000  0.4644240000000 1.0
C      1  0.5190690000000  0.5355760000000  0.5689930000000 1.0
C      1  0.5190690000000  0.4310070000000  0.5355760000000 1.0
C      1  0.5190690000000  0.4644240000000  0.4310070000000 1.0
C      1  0.4808180000000  0.5689930000000  0.4644240000000 1.0
C      1  0.4808180000000  0.5355760000000  0.5689930000000 1.0
C      1  0.4808180000000  0.4310070000000  0.5355760000000 1.0
C      1  0.4808180000000  0.4644240000000  0.4310070000000 1.0
C      1  0.5148810000000  0.4186500000000  0.4864120000000 1.0
C      1  0.5148810000000  0.5135880000000  0.4186500000000 1.0
C      1  0.5148810000000  0.5813500000000  0.5135880000000 1.0
C      1  0.5148810000000  0.4864120000000  0.5813500000000 1.0
C      1  0.4850060000000  0.4186500000000  0.4864120000000 1.0
C      1  0.4850060000000  0.5135880000000  0.4186500000000 1.0
C      1  0.4850060000000  0.5813500000000  0.5135880000000 1.0
C      1  0.4850060000000  0.4864120000000  0.5813500000000 1.0
C      1  0.5400290000000  0.5247720000000  0.4716480000000 1.0
C      1  0.5400290000000  0.5283520000000  0.5247720000000 1.0
C      1  0.5400290000000  0.4752280000000  0.5283520000000 1.0
C      1  0.5400290000000  0.4716480000000  0.4752280000000 1.0
C      1  0.4598580000000  0.5247720000000  0.4716480000000 1.0
C      1  0.4598580000000  0.5283520000000  0.5247720000000 1.0
C      1  0.4598580000000  0.4752280000000  0.5283520000000 1.0
C      1  0.4598580000000  0.4716480000000  0.4752280000000 1.0
C      1  0.4670850000000  0.5478540000000  0.5463480000000 1.0
C      1  0.4670850000000  0.4536520000000  0.5478540000000 1.0
C      1  0.4670850000000  0.4521460000000  0.4536520000000 1.0
C      1  0.4670850000000  0.5463480000000  0.4521460000000 1.0
C      1  0.5328020000000  0.5478540000000  0.5463480000000 1.0
C      1  0.5328020000000  0.4536520000000  0.5478540000000 1.0
C      1  0.5328020000000  0.4521460000000  0.4536520000000 1.0
C      1  0.5328020000000  0.5463480000000  0.4521460000000 1.0
C      1  0.5269300000000  0.5080120000000  0.5653520000000 1.0
C      1  0.5269300000000  0.4346480000000  0.5080120000000 1.0
C      1  0.5269300000000  0.4919880000000  0.4346480000000 1.0
C      1  0.5269300000000  0.5653520000000  0.4919880000000 1.0
C      1  0.4729570000000  0.5080120000000  0.5653520000000 1.0
C      1  0.4729570000000  0.4346480000000  0.5080120000000 1.0
C      1  0.4729570000000  0.4919880000000  0.4346480000000 1.0
C      1  0.4729570000000  0.5653520000000  0.4919880000000 1.0
C      1  0.5282960000000  0.4976170000000  0.4641390000000 1.0
C      1  0.5282960000000  0.5358610000000  0.4976170000000 1.0
C      1  0.5282960000000  0.5023830000000  0.5358610000000 1.0
C      1  0.5282960000000  0.4641390000000  0.5023830000000 1.0
C      1  0.4715910000000  0.4976170000000  0.4641390000000 1.0
C      1  0.4715910000000  0.5358610000000  0.4976170000000 1.0
C      1  0.4715910000000  0.5023830000000  0.5358610000000 1.0
C      1  0.4715910000000  0.4641390000000  0.5023830000000 1.0
C      1  0.4741700000000  0.5383350000000  0.4263480000000 1.0
C      1  0.4741700000000  0.5736520000000  0.5383350000000 1.0
C      1  0.4741700000000  0.4616650000000  0.5736520000000 1.0
C      1  0.4741700000000  0.4263480000000  0.4616650000000 1.0
C      1  0.5257170000000  0.5383350000000  0.4263480000000 1.0
C      1  0.5257170000000  0.5736520000000  0.5383350000000 1.0
C      1  0.5257170000000  0.4616650000000  0.5736520000000 1.0
C      1  0.5257170000000  0.4263480000000  0.4616650000000 1.0
C      1  0.4999440000000  0.5223280000000  0.4984710000000 1.0
C      1  0.4999440000000  0.5015290000000  0.5223280000000 1.0
C      1  0.4999440000000  0.4984710000000  0.4776720000000 1.0
C      1  0.4999440000000  0.4776720000000  0.5015290000000 1.0
END
