TITL C-38196-2854-512 -6.49401715904253e-05 125000 -357.334998851891 0 0 60 (C1) n - 1
REM
REM in /home/bkarasulu/CARBON/AIRSS/Generating-Clusters/EDIP-Nigel-Params/Higher-Symm/Box-15A/Only-C60/SD-CG/FIRE-HFTN
REM
REM
REM
REM
REM
REM ./C.cell (414f73aa93bd7a1190c7fd0f31ff2f98)
REM
REM compiler GCC version 9.2.1 20190827 (Red Hat 9.2.1-1)
REM options -cpp -mtune=generic -march=x86-64 -g -O0 -fpre-include=/usr/include/finclude/math-vector-fortran.h
REM seed -1733264416 -1067113863 1188621148 -2139780636 -33106361 -562353491 1322653111 53751247 -1661257022 -1949008075 1535164737 1414400852 1054017677 120397097 89719932 158969157 -1259111875 -872963790 1755369983 -107296788 -2082965619 1365035221 344861505 387545220 -2034170101 264176527 953655383 1221017352 -60328603 697693649 2071916477 588882669 201771448
REM
CELL 1.54180   50.00000   50.00000   50.00000   90.00000   90.00000   90.00000
LATT -1
SFAC C  
C      1  0.5401420000000  0.4790860000000  0.4868810000000 1.0
C      1  0.5350550000000  0.5087450000000  0.4932930000000 1.0
C      1  0.5315110000000  0.5069490000000  0.5232650000000 1.0
C      1  0.4703560000000  0.5487910000000  0.5532330000000 1.0
C      1  0.4741390000000  0.4329240000000  0.5156440000000 1.0
C      1  0.4721680000000  0.5212970000000  0.4322900000000 1.0
C      1  0.5173020000000  0.4592950000000  0.4904460000000 1.0
C      1  0.5104170000000  0.5194870000000  0.4763010000000 1.0
C      1  0.5106860000000  0.5180350000000  0.5408860000000 1.0
C      1  0.4655900000000  0.4292340000000  0.4875120000000 1.0
C      1  0.4646750000000  0.5480390000000  0.4430690000000 1.0
C      1  0.4637980000000  0.5253820000000  0.5703850000000 1.0
C      1  0.5255760000000  0.4596600000000  0.5448140000000 1.0
C      1  0.5235430000000  0.4798420000000  0.4342400000000 1.0
C      1  0.5243940000000  0.5612060000000  0.5155330000000 1.0
C      1  0.5048080000000  0.4729890000000  0.5628430000000 1.0
C      1  0.5039590000000  0.4582140000000  0.4402560000000 1.0
C      1  0.5043770000000  0.5664660000000  0.4941400000000 1.0
C      1  0.4584820000000  0.5137890000000  0.5220610000000 1.0
C      1  0.4653540000000  0.4772110000000  0.4986890000000 1.0
C      1  0.4593620000000  0.5160670000000  0.4780930000000 1.0
C      1  0.5251140000000  0.5423800000000  0.4593270000000 1.0
C      1  0.5245480000000  0.5162980000000  0.5678600000000 1.0
C      1  0.5286020000000  0.4355540000000  0.4746470000000 1.0
C      1  0.4558690000000  0.5624090000000  0.4859120000000 1.0
C      1  0.4553270000000  0.4799060000000  0.5603910000000 1.0
C      1  0.4560460000000  0.4599300000000  0.4535260000000 1.0
C      1  0.4523830000000  0.4550660000000  0.4812160000000 1.0
C      1  0.4491730000000  0.5422340000000  0.4676430000000 1.0
C      1  0.4490000000000  0.5068790000000  0.5526610000000 1.0
C      1  0.4630350000000  0.5436780000000  0.5249360000000 1.0
C      1  0.4701770000000  0.4616500000000  0.5234700000000 1.0
C      1  0.4708640000000  0.5010280000000  0.4549390000000 1.0
C      1  0.5556880000000  0.5308290000000  0.4890740000000 1.0
C      1  0.5534000000000  0.4969300000000  0.5403620000000 1.0
C      1  0.5574820000000  0.4679980000000  0.4655720000000 1.0
C      1  0.5495750000000  0.5507620000000  0.5079030000000 1.0
C      1  0.5522040000000  0.4692110000000  0.5430320000000 1.0
C      1  0.5508870000000  0.4779750000000  0.4403600000000 1.0
C      1  0.5076320000000  0.4322330000000  0.4548950000000 1.0
C      1  0.5096540000000  0.5665740000000  0.4650030000000 1.0
C      1  0.5070890000000  0.4972590000000  0.5802900000000 1.0
C      1  0.4877940000000  0.4743030000000  0.4774140000000 1.0
C      1  0.4818770000000  0.5292160000000  0.4938130000000 1.0
C      1  0.4827030000000  0.4970120000000  0.5339530000000 1.0
C      1  0.5533070000000  0.5426050000000  0.4637530000000 1.0
C      1  0.5517470000000  0.5088600000000  0.5659030000000 1.0
C      1  0.5550620000000  0.4398280000000  0.4653630000000 1.0
C      1  0.5125840000000  0.5488550000000  0.5400720000000 1.0
C      1  0.5160090000000  0.4464770000000  0.5197130000000 1.0
C      1  0.5118010000000  0.5053960000000  0.4409490000000 1.0
C      1  0.4995550000000  0.4234700000000  0.5225920000000 1.0
C      1  0.4980370000000  0.5201720000000  0.4209540000000 1.0
C      1  0.4942560000000  0.5632150000000  0.5563480000000 1.0
C      1  0.4844600000000  0.4219620000000  0.4675520000000 1.0
C      1  0.4861790000000  0.5659410000000  0.4491400000000 1.0
C      1  0.4832970000000  0.5115630000000  0.5856540000000 1.0
C      1  0.4770860000000  0.5707640000000  0.5017940000000 1.0
C      1  0.4778970000000  0.4636140000000  0.5611330000000 1.0
C      1  0.4769060000000  0.4672580000000  0.4370080000000 1.0
END
