TITL C-38198-1686-178 3.49459834907232e-06 125000 -363.475269027541 0 0 60 (C2) n - 1
REM
REM in /home/bkarasulu/CARBON/AIRSS/Generating-Clusters/EDIP-Nigel-Params/Higher-Symm/Box-15A/Only-C60/SD-CG/FIRE-HFTN
REM
REM
REM
REM
REM
REM ./C.cell (414f73aa93bd7a1190c7fd0f31ff2f98)
REM
REM compiler GCC version 9.2.1 20190827 (Red Hat 9.2.1-1)
REM options -cpp -mtune=generic -march=x86-64 -g -O0 -fpre-include=/usr/include/finclude/math-vector-fortran.h
REM seed 2055997890 -1737612675 -1952454011 1933762553 -1761007095 502592260 336162730 777604560 -205207814 1576658302 276702742 -1104399432 -1693277232 1664103576 -525812850 -1965805641 703849756 1688687568 1782333094 -61138765 -511037021 -645852636 -792182422 -1345626306 1249936771 1465765474 752100548 279234313 761316173 1400101383 1421674472 1779270215 -386514753
REM
CELL 1.54180   50.00000   50.00000   50.00000   90.00000   90.00000   90.00000
LATT -1
SFAC C  
C      1  0.5467040000000  0.4506890000000  0.5014380000000 1.0
C      1  0.4749700000000  0.4496820000000  0.5401110000000 1.0
C      1  0.4767990000000  0.4493240000000  0.4576650000000 1.0
C      1  0.4532960000000  0.5493110000000  0.5014380000000 1.0
C      1  0.5250300000000  0.5503180000000  0.5401110000000 1.0
C      1  0.5232010000000  0.5506760000000  0.4576650000000 1.0
C      1  0.5461980000000  0.4763840000000  0.4853620000000 1.0
C      1  0.4906760000000  0.4747760000000  0.5481360000000 1.0
C      1  0.4612240000000  0.4740090000000  0.4666280000000 1.0
C      1  0.4538020000000  0.5236160000000  0.4853620000000 1.0
C      1  0.5093240000000  0.5252240000000  0.5481360000000 1.0
C      1  0.5387760000000  0.5259910000000  0.4666280000000 1.0
C      1  0.4794660000000  0.5624080000000  0.5083340000000 1.0
C      1  0.5042150000000  0.5635510000000  0.4775010000000 1.0
C      1  0.5184990000000  0.5639240000000  0.5141240000000 1.0
C      1  0.5205340000000  0.4375920000000  0.5083340000000 1.0
C      1  0.4957850000000  0.4364490000000  0.4775010000000 1.0
C      1  0.4815010000000  0.4360760000000  0.5141240000000 1.0
C      1  0.5187740000000  0.4748120000000  0.5603030000000 1.0
C      1  0.4369590000000  0.4744420000000  0.4859180000000 1.0
C      1  0.5415900000000  0.4755770000000  0.4555090000000 1.0
C      1  0.4812260000000  0.5251880000000  0.5603030000000 1.0
C      1  0.5630410000000  0.5255580000000  0.4859180000000 1.0
C      1  0.4584100000000  0.5244230000000  0.4555090000000 1.0
C      1  0.4647620000000  0.5468580000000  0.5473470000000 1.0
C      1  0.4769370000000  0.5464910000000  0.4468940000000 1.0
C      1  0.5592200000000  0.5472990000000  0.5067810000000 1.0
C      1  0.5352380000000  0.4531420000000  0.5473470000000 1.0
C      1  0.5230630000000  0.4535090000000  0.4468940000000 1.0
C      1  0.4407800000000  0.4527010000000  0.5067810000000 1.0
C      1  0.5564780000000  0.4611790000000  0.5275510000000 1.0
C      1  0.4485060000000  0.4616000000000  0.5340140000000 1.0
C      1  0.4957040000000  0.4611290000000  0.4376710000000 1.0
C      1  0.4435220000000  0.5388210000000  0.5275510000000 1.0
C      1  0.5514940000000  0.5384000000000  0.5340140000000 1.0
C      1  0.5042960000000  0.5388710000000  0.4376710000000 1.0
C      1  0.4979960000000  0.5152100000000  0.5206140000000 1.0
C      1  0.4808000000000  0.5112130000000  0.4917170000000 1.0
C      1  0.5193720000000  0.5185270000000  0.4880040000000 1.0
C      1  0.5020040000000  0.4847900000000  0.5206140000000 1.0
C      1  0.5192000000000  0.4887870000000  0.4917170000000 1.0
C      1  0.4806280000000  0.4814730000000  0.4880040000000 1.0
C      1  0.5424950000000  0.5691480000000  0.4988020000000 1.0
C      1  0.4805870000000  0.5682300000000  0.5365380000000 1.0
C      1  0.4787220000000  0.5688120000000  0.4647500000000 1.0
C      1  0.4575050000000  0.4308520000000  0.4988020000000 1.0
C      1  0.5194130000000  0.4317700000000  0.5365380000000 1.0
C      1  0.5212780000000  0.4311880000000  0.4647500000000 1.0
C      1  0.4477070000000  0.4902190000000  0.5417480000000 1.0
C      1  0.4890270000000  0.4899470000000  0.4324160000000 1.0
C      1  0.5662160000000  0.4898940000000  0.5248270000000 1.0
C      1  0.5522930000000  0.5097810000000  0.5417480000000 1.0
C      1  0.5109730000000  0.5100530000000  0.4324160000000 1.0
C      1  0.4337840000000  0.5101060000000  0.5248270000000 1.0
C      1  0.4628490000000  0.4964270000000  0.4452160000000 1.0
C      1  0.5678170000000  0.4965500000000  0.4953120000000 1.0
C      1  0.4710550000000  0.4967220000000  0.5587690000000 1.0
C      1  0.5371510000000  0.5035730000000  0.4452160000000 1.0
C      1  0.4321830000000  0.5034500000000  0.4953120000000 1.0
C      1  0.5289450000000  0.5032780000000  0.5587690000000 1.0
END
