TITL C-38189-4514-81 1.23246512860913e-05 125000 -370.313197922925 0 0 60 (C1) n - 1
REM
REM in /home/bkarasulu/CARBON/AIRSS/Generating-Clusters/EDIP-Nigel-Params/Higher-Symm/Box-15A/Only-C60/SD-CG/FIRE-HFTN
REM
REM
REM
REM
REM
REM ./C.cell (414f73aa93bd7a1190c7fd0f31ff2f98)
REM
REM compiler GCC version 9.2.1 20190827 (Red Hat 9.2.1-1)
REM options -cpp -mtune=generic -march=x86-64 -g -O0 -fpre-include=/usr/include/finclude/math-vector-fortran.h
REM seed 362548232 -1451669696 2128509731 -1222533637 897818997 1701962577 -1284670106 893437003 1558664492 2089664820 -1531430991 -1281786496 2127127290 998464753 1412861583 -870060698 -1642211943 -1481647627 -971677787 -443366784 1285724398 -173219682 -1158533052 -429832596 -1606048535 130189215 246295549 -416487313 243000798 -157667394 841715990 -796696131 1345697063
REM
CELL 1.54180   50.00000   50.00000   50.00000   90.00000   90.00000   90.00000
LATT -1
SFAC C  
C      1  0.4640030000000  0.4717440000000  0.4617640000000 1.0
C      1  0.5078270000000  0.4717220000000  0.4390930000000 1.0
C      1  0.5475160000000  0.4709150000000  0.4702230000000 1.0
C      1  0.5476970000000  0.4707220000000  0.5196190000000 1.0
C      1  0.5178740000000  0.4711850000000  0.5591390000000 1.0
C      1  0.4701190000000  0.4728420000000  0.5469930000000 1.0
C      1  0.4432020000000  0.4695970000000  0.5067160000000 1.0
C      1  0.4673170000000  0.5846850000000  0.4891250000000 1.0
C      1  0.4890330000000  0.5847240000000  0.4690270000000 1.0
C      1  0.5184320000000  0.5848600000000  0.4728090000000 1.0
C      1  0.5341480000000  0.5849640000000  0.4978530000000 1.0
C      1  0.5233280000000  0.5845500000000  0.5253060000000 1.0
C      1  0.4951340000000  0.5848730000000  0.5343330000000 1.0
C      1  0.4700770000000  0.5849110000000  0.5184640000000 1.0
C      1  0.5307570000000  0.5159830000000  0.4536890000000 1.0
C      1  0.5572250000000  0.5153950000000  0.4956720000000 1.0
C      1  0.5388140000000  0.5152680000000  0.5412720000000 1.0
C      1  0.4916220000000  0.5162460000000  0.5577750000000 1.0
C      1  0.4505060000000  0.5157200000000  0.5306800000000 1.0
C      1  0.4464230000000  0.5150470000000  0.4810030000000 1.0
C      1  0.4813200000000  0.5160780000000  0.4463180000000 1.0
C      1  0.4613900000000  0.5411510000000  0.4848100000000 1.0
C      1  0.4846420000000  0.5413000000000  0.4625880000000 1.0
C      1  0.5232340000000  0.5412370000000  0.4683520000000 1.0
C      1  0.5409740000000  0.5411560000000  0.4973390000000 1.0
C      1  0.5290590000000  0.5409150000000  0.5285010000000 1.0
C      1  0.4920050000000  0.5414200000000  0.5412140000000 1.0
C      1  0.4649870000000  0.5413840000000  0.5236970000000 1.0
C      1  0.4463500000000  0.5665490000000  0.4812140000000 1.0
C      1  0.4820480000000  0.5668270000000  0.4476260000000 1.0
C      1  0.5305480000000  0.5664670000000  0.4543710000000 1.0
C      1  0.5564300000000  0.5667010000000  0.4957930000000 1.0
C      1  0.5385680000000  0.5660760000000  0.5412030000000 1.0
C      1  0.4921070000000  0.5668760000000  0.5565570000000 1.0
C      1  0.4509750000000  0.5668030000000  0.5301450000000 1.0
C      1  0.5294300000000  0.4331030000000  0.4936730000000 1.0
C      1  0.5209510000000  0.4312010000000  0.5315150000000 1.0
C      1  0.4929140000000  0.4318580000000  0.5428680000000 1.0
C      1  0.4682550000000  0.4307420000000  0.5255470000000 1.0
C      1  0.4737650000000  0.4331790000000  0.4891100000000 1.0
C      1  0.4900530000000  0.4315140000000  0.4614670000000 1.0
C      1  0.5199810000000  0.4314020000000  0.4644430000000 1.0
C      1  0.5495300000000  0.5006830000000  0.4707360000000 1.0
C      1  0.5546220000000  0.4997390000000  0.5212830000000 1.0
C      1  0.5159110000000  0.5001190000000  0.5522150000000 1.0
C      1  0.4661740000000  0.5016060000000  0.5519200000000 1.0
C      1  0.4464950000000  0.4993570000000  0.5061880000000 1.0
C      1  0.4582660000000  0.5005930000000  0.4575690000000 1.0
C      1  0.5066330000000  0.5006160000000  0.4464210000000 1.0
C      1  0.5361260000000  0.4550150000000  0.5419010000000 1.0
C      1  0.4914660000000  0.4570800000000  0.5590900000000 1.0
C      1  0.4526600000000  0.4555800000000  0.5311960000000 1.0
C      1  0.4530490000000  0.4549900000000  0.4829470000000 1.0
C      1  0.4830250000000  0.4562600000000  0.4454990000000 1.0
C      1  0.5307890000000  0.4559580000000  0.4504350000000 1.0
C      1  0.5503150000000  0.4552140000000  0.4948520000000 1.0
C      1  0.4989650000000  0.5270520000000  0.5010110000000 1.0
C      1  0.5009410000000  0.4460840000000  0.5018850000000 1.0
C      1  0.4996630000000  0.5010330000000  0.5007530000000 1.0
C      1  0.5010400000000  0.4744510000000  0.5008350000000 1.0
END
