TITL C-38187-2739-517 1.30868357884488e-05 125000 -358.885705247405 0 0 60 (C5) n - 1
REM
REM in /home/bkarasulu/CARBON/AIRSS/Generating-Clusters/EDIP-Nigel-Params/Higher-Symm/Box-15A/Only-C60/SD-CG/FIRE-HFTN
REM
REM
REM
REM
REM
REM ./C.cell (414f73aa93bd7a1190c7fd0f31ff2f98)
REM
REM compiler GCC version 9.2.1 20190827 (Red Hat 9.2.1-1)
REM options -cpp -mtune=generic -march=x86-64 -g -O0 -fpre-include=/usr/include/finclude/math-vector-fortran.h
REM seed 789413410 -887232188 -1302226907 1740261499 -2012091447 -472199301 -130012455 276051281 498516646 -1234428135 -78499213 -2084920572 -324437595 1764716109 2119580296 -292413471 -756710201 -1536297853 893098456 -2023519953 -1291280091 -1716770546 -1929408704 1826208427 1539209907 -651037595 1389384127 -772927360 1148363039 1970167695 -1460281355 1909960944 -1916032777
REM
CELL 1.54180   50.00000   50.00000   50.00000   90.00000   90.00000   90.00000
LATT -1
SFAC C  
C      1  0.4366070000000  0.4930070000000  0.5295240000000 1.0
C      1  0.5084900000000  0.4930070000000  0.5694140000000 1.0
C      1  0.5686400000000  0.4930070000000  0.5133760000000 1.0
C      1  0.5339320000000  0.4930070000000  0.4388520000000 1.0
C      1  0.4523310000000  0.4930070000000  0.4488330000000 1.0
C      1  0.5291920000000  0.5457140000000  0.5473540000000 1.0
C      1  0.5540570000000  0.5457140000000  0.4868700000000 1.0
C      1  0.5042170000000  0.5457140000000  0.4445310000000 1.0
C      1  0.4485490000000  0.5457140000000  0.4788490000000 1.0
C      1  0.4639850000000  0.5457140000000  0.5423960000000 1.0
C      1  0.5314080000000  0.5421350000000  0.4379210000000 1.0
C      1  0.4506650000000  0.5421350000000  0.4509460000000 1.0
C      1  0.4381010000000  0.5421350000000  0.5317620000000 1.0
C      1  0.5110800000000  0.5421350000000  0.5686840000000 1.0
C      1  0.5687460000000  0.5421350000000  0.5106870000000 1.0
C      1  0.5494510000000  0.4705150000000  0.4446640000000 1.0
C      1  0.4626530000000  0.4705150000000  0.4358700000000 1.0
C      1  0.4274680000000  0.4705150000000  0.5157010000000 1.0
C      1  0.4925190000000  0.4705150000000  0.5738340000000 1.0
C      1  0.5679090000000  0.4705150000000  0.5299310000000 1.0
C      1  0.5683470000000  0.5193300000000  0.5274310000000 1.0
C      1  0.5472090000000  0.5193300000000  0.4434750000000 1.0
C      1  0.4608300000000  0.5193300000000  0.4376340000000 1.0
C      1  0.4285820000000  0.5193300000000  0.5179810000000 1.0
C      1  0.4950320000000  0.5193300000000  0.5734790000000 1.0
C      1  0.4981610000000  0.4415610000000  0.4535700000000 1.0
C      1  0.4552740000000  0.4415610000000  0.4874020000000 1.0
C      1  0.4741970000000  0.4415610000000  0.5386440000000 1.0
C      1  0.5287790000000  0.4415610000000  0.5364820000000 1.0
C      1  0.5435890000000  0.4415610000000  0.4839030000000 1.0
C      1  0.4697440000000  0.5194640000000  0.5579340000000 1.0
C      1  0.5457490000000  0.5194650000000  0.5466780000000 1.0
C      1  0.5585300000000  0.5194640000000  0.4709140000000 1.0
C      1  0.4904250000000  0.5194640000000  0.4353460000000 1.0
C      1  0.4355520000000  0.5194640000000  0.4891280000000 1.0
C      1  0.4755940000000  0.5548740000000  0.4909470000000 1.0
C      1  0.4838490000000  0.5548740000000  0.5204140000000 1.0
C      1  0.5144240000000  0.5548740000000  0.5216690000000 1.0
C      1  0.5250660000000  0.5548740000000  0.4929780000000 1.0
C      1  0.5010680000000  0.5548740000000  0.4739910000000 1.0
C      1  0.5052830000000  0.4934150000000  0.4492030000000 1.0
C      1  0.4533220000000  0.4934150000000  0.4792790000000 1.0
C      1  0.4658680000000  0.4934150000000  0.5379900000000 1.0
C      1  0.5255840000000  0.4934150000000  0.5442010000000 1.0
C      1  0.5499430000000  0.4934150000000  0.4893270000000 1.0
C      1  0.4781220000000  0.5071150000000  0.4892390000000 1.0
C      1  0.4830050000000  0.5071150000000  0.5174820000000 1.0
C      1  0.5113750000000  0.5071150000000  0.5215650000000 1.0
C      1  0.5240250000000  0.5071150000000  0.4958460000000 1.0
C      1  0.5034730000000  0.5071150000000  0.4758670000000 1.0
C      1  0.4790690000000  0.4494380000000  0.4361970000000 1.0
C      1  0.4328520000000  0.4494380000000  0.5001900000000 1.0
C      1  0.4794310000000  0.4494380000000  0.5639200000000 1.0
C      1  0.5544360000000  0.4494380000000  0.5393150000000 1.0
C      1  0.5542120000000  0.4494380000000  0.4603780000000 1.0
C      1  0.5000010000000  0.4634320000000  0.4724180000000 1.0
C      1  0.4737680000000  0.4634320000000  0.4914760000000 1.0
C      1  0.4837870000000  0.4634320000000  0.5223140000000 1.0
C      1  0.5162110000000  0.4634320000000  0.5223150000000 1.0
C      1  0.5262320000000  0.4634320000000  0.4914780000000 1.0
END
