TITL C-38196-2854-199 -6.41384342401838e-06 125000 -362.293557377298 0 0 60 (C1) n - 1
REM
REM in /home/bkarasulu/CARBON/AIRSS/Generating-Clusters/EDIP-Nigel-Params/Higher-Symm/Box-15A/Only-C60/SD-CG/FIRE-HFTN
REM
REM
REM
REM
REM
REM ./C.cell (414f73aa93bd7a1190c7fd0f31ff2f98)
REM
REM compiler GCC version 9.2.1 20190827 (Red Hat 9.2.1-1)
REM options -cpp -mtune=generic -march=x86-64 -g -O0 -fpre-include=/usr/include/finclude/math-vector-fortran.h
REM seed 704391444 971193952 1509806361 -2054869523 1164821175 714258501 46354286 1895386909 -1206758169 -1135613395 -557279137 -1526218139 543656970 -2102684730 -1839202072 -1400991205 448892580 129191793 -1224239977 870121559 32282711 -1230190184 -1819515681 1628322225 709284740 175983607 -1286924987 115937125 699914767 1407401278 1343270350 -430758365 -1528059248
REM
CELL 1.54180   50.00000   50.00000   50.00000   90.00000   90.00000   90.00000
LATT -1
SFAC C  
C      1  0.4645390000000  0.5545050000000  0.4613570000000 1.0
C      1  0.5121890000000  0.5427490000000  0.4656710000000 1.0
C      1  0.4709100000000  0.4358900000000  0.4696210000000 1.0
C      1  0.5553360000000  0.4916150000000  0.4836030000000 1.0
C      1  0.5399190000000  0.4349300000000  0.4666540000000 1.0
C      1  0.5185890000000  0.5724290000000  0.5355880000000 1.0
C      1  0.4837300000000  0.5248030000000  0.4279810000000 1.0
C      1  0.4460100000000  0.5082580000000  0.5422010000000 1.0
C      1  0.4884680000000  0.5724500000000  0.5343050000000 1.0
C      1  0.4530070000000  0.5272130000000  0.4660500000000 1.0
C      1  0.5705620000000  0.4714840000000  0.4669880000000 1.0
C      1  0.4825220000000  0.5351300000000  0.5052450000000 1.0
C      1  0.4798340000000  0.5123560000000  0.5773890000000 1.0
C      1  0.5403940000000  0.5447570000000  0.4610350000000 1.0
C      1  0.5412240000000  0.4738590000000  0.5552060000000 1.0
C      1  0.4676050000000  0.5711950000000  0.4845720000000 1.0
C      1  0.4750730000000  0.4575700000000  0.5291260000000 1.0
C      1  0.5543430000000  0.5378780000000  0.5413860000000 1.0
C      1  0.5060960000000  0.5090700000000  0.4207580000000 1.0
C      1  0.5150800000000  0.4984530000000  0.4663600000000 1.0
C      1  0.4738530000000  0.4899990000000  0.4895880000000 1.0
C      1  0.4916270000000  0.4508990000000  0.4529330000000 1.0
C      1  0.5473270000000  0.4696690000000  0.5047900000000 1.0
C      1  0.4402930000000  0.5071260000000  0.5132520000000 1.0
C      1  0.5035070000000  0.4892270000000  0.4905910000000 1.0
C      1  0.5213090000000  0.4478470000000  0.4492860000000 1.0
C      1  0.5339530000000  0.5546040000000  0.5535420000000 1.0
C      1  0.5129140000000  0.5359560000000  0.5603020000000 1.0
C      1  0.4461400000000  0.4528390000000  0.4705520000000 1.0
C      1  0.5348710000000  0.4693130000000  0.4333210000000 1.0
C      1  0.4599790000000  0.4793110000000  0.4644040000000 1.0
C      1  0.4996680000000  0.4221550000000  0.5089240000000 1.0
C      1  0.5298020000000  0.5501000000000  0.5071720000000 1.0
C      1  0.4673990000000  0.5247550000000  0.5533050000000 1.0
C      1  0.5172510000000  0.4664430000000  0.5033240000000 1.0
C      1  0.4298860000000  0.4816370000000  0.5062800000000 1.0
C      1  0.4555930000000  0.4399370000000  0.5153030000000 1.0
C      1  0.4613730000000  0.5099150000000  0.4417850000000 1.0
C      1  0.4682370000000  0.4692420000000  0.5554880000000 1.0
C      1  0.5582460000000  0.5134520000000  0.5259940000000 1.0
C      1  0.5632130000000  0.5170010000000  0.4971760000000 1.0
C      1  0.5233920000000  0.4964060000000  0.4390710000000 1.0
C      1  0.4435550000000  0.4834450000000  0.5559810000000 1.0
C      1  0.5048760000000  0.5488500000000  0.4930260000000 1.0
C      1  0.4620700000000  0.5170880000000  0.4940010000000 1.0
C      1  0.5544600000000  0.4837700000000  0.5317730000000 1.0
C      1  0.4769430000000  0.5790760000000  0.5091720000000 1.0
C      1  0.5011830000000  0.5303120000000  0.5861290000000 1.0
C      1  0.4903600000000  0.4838510000000  0.5698400000000 1.0
C      1  0.5023240000000  0.4477150000000  0.5214960000000 1.0
C      1  0.5626220000000  0.4686870000000  0.4399140000000 1.0
C      1  0.4901480000000  0.5479950000000  0.4460630000000 1.0
C      1  0.4737290000000  0.5519740000000  0.5476650000000 1.0
C      1  0.5506600000000  0.5428310000000  0.4879280000000 1.0
C      1  0.5600250000000  0.4475990000000  0.4824930000000 1.0
C      1  0.5158900000000  0.4863920000000  0.5535060000000 1.0
C      1  0.4350090000000  0.4545140000000  0.4984250000000 1.0
C      1  0.4736790000000  0.4239790000000  0.4973200000000 1.0
C      1  0.5188500000000  0.5128200000000  0.5462570000000 1.0
C      1  0.4783550000000  0.4746740000000  0.4415320000000 1.0
END
