TITL C-38186-4112-294 4.47498694361758e-05 125000 -357.677590236977 0 0 60 (C1) n - 1
REM
REM in /home/bkarasulu/CARBON/AIRSS/Generating-Clusters/EDIP-Nigel-Params/Higher-Symm/Box-15A/Only-C60/SD-CG/FIRE-HFTN
REM
REM
REM
REM
REM
REM ./C.cell (414f73aa93bd7a1190c7fd0f31ff2f98)
REM
REM compiler GCC version 9.2.1 20190827 (Red Hat 9.2.1-1)
REM options -cpp -mtune=generic -march=x86-64 -g -O0 -fpre-include=/usr/include/finclude/math-vector-fortran.h
REM seed 722349598 1625694453 -1199716092 2073241783 1708148153 188402489 -919136236 -414652330 2122552835 -1339240750 1896581585 285055284 247312481 1735125334 1023008285 -2085766299 -2001558245 25143860 1952988260 -1752581137 1388953721 525331662 1847989641 287804839 1822433641 -1382195855 -1700747800 -557727060 -1551953054 -556230487 370265113 -587174579 1933270464
REM
CELL 1.54180   50.00000   50.00000   50.00000   90.00000   90.00000   90.00000
LATT -1
SFAC C  
C      1  0.4519240000000  0.4876720000000  0.4495440000000 1.0
C      1  0.4818780000000  0.4904110000000  0.5678890000000 1.0
C      1  0.5700960000000  0.4889180000000  0.4806240000000 1.0
C      1  0.4642930000000  0.5309110000000  0.5421320000000 1.0
C      1  0.5553130000000  0.5313200000000  0.5100120000000 1.0
C      1  0.4801400000000  0.5338420000000  0.4516410000000 1.0
C      1  0.4432340000000  0.5218440000000  0.5226850000000 1.0
C      1  0.5476480000000  0.5210040000000  0.5368310000000 1.0
C      1  0.5085090000000  0.5299360000000  0.4438220000000 1.0
C      1  0.4994910000000  0.4684910000000  0.5681500000000 1.0
C      1  0.5626980000000  0.4657300000000  0.4658260000000 1.0
C      1  0.4384650000000  0.4678890000000  0.4652810000000 1.0
C      1  0.4833590000000  0.4773760000000  0.5162720000000 1.0
C      1  0.5297730000000  0.4848140000000  0.4979580000000 1.0
C      1  0.4912660000000  0.4767850000000  0.4665510000000 1.0
C      1  0.5114670000000  0.4873220000000  0.5206080000000 1.0
C      1  0.5188390000000  0.4863300000000  0.4692750000000 1.0
C      1  0.4716850000000  0.4821780000000  0.4899180000000 1.0
C      1  0.5163700000000  0.4161450000000  0.4898770000000 1.0
C      1  0.4714810000000  0.4197510000000  0.5112890000000 1.0
C      1  0.4994760000000  0.4261190000000  0.5097920000000 1.0
C      1  0.5429010000000  0.4607810000000  0.5084530000000 1.0
C      1  0.4931350000000  0.4494350000000  0.4575520000000 1.0
C      1  0.4713710000000  0.4537560000000  0.5298340000000 1.0
C      1  0.5255200000000  0.4752800000000  0.5548520000000 1.0
C      1  0.5370070000000  0.4696450000000  0.4508850000000 1.0
C      1  0.4291730000000  0.4760150000000  0.4935390000000 1.0
C      1  0.4586280000000  0.4486220000000  0.4748080000000 1.0
C      1  0.4888960000000  0.4449490000000  0.5534440000000 1.0
C      1  0.5578710000000  0.4406540000000  0.4804900000000 1.0
C      1  0.4300470000000  0.5448730000000  0.5121730000000 1.0
C      1  0.5314420000000  0.5435320000000  0.5620360000000 1.0
C      1  0.5411440000000  0.5473040000000  0.4509120000000 1.0
C      1  0.5343510000000  0.4260040000000  0.4705510000000 1.0
C      1  0.4496670000000  0.4331170000000  0.4980470000000 1.0
C      1  0.5104640000000  0.4335420000000  0.5358130000000 1.0
C      1  0.5478920000000  0.5762470000000  0.4896970000000 1.0
C      1  0.4566570000000  0.5677090000000  0.4777480000000 1.0
C      1  0.4944010000000  0.5624270000000  0.5343520000000 1.0
C      1  0.5156920000000  0.5657640000000  0.5530860000000 1.0
C      1  0.5554650000000  0.5697840000000  0.4626430000000 1.0
C      1  0.4330350000000  0.5499790000000  0.4841000000000 1.0
C      1  0.5053150000000  0.5331850000000  0.5714380000000 1.0
C      1  0.5641820000000  0.5322700000000  0.4607680000000 1.0
C      1  0.4366330000000  0.5218150000000  0.4733040000000 1.0
C      1  0.5647350000000  0.5166160000000  0.4851070000000 1.0
C      1  0.4557450000000  0.5159330000000  0.4512120000000 1.0
C      1  0.4841360000000  0.5169440000000  0.5591830000000 1.0
C      1  0.4439580000000  0.5033010000000  0.4966030000000 1.0
C      1  0.5235300000000  0.5047320000000  0.5431900000000 1.0
C      1  0.5243550000000  0.5066630000000  0.4489850000000 1.0
C      1  0.5336530000000  0.4524070000000  0.5356990000000 1.0
C      1  0.5210130000000  0.4439250000000  0.4510880000000 1.0
C      1  0.4369690000000  0.4546810000000  0.5130050000000 1.0
C      1  0.4993140000000  0.5674610000000  0.5065960000000 1.0
C      1  0.5246950000000  0.5604700000000  0.4967220000000 1.0
C      1  0.4797380000000  0.5555960000000  0.4903300000000 1.0
C      1  0.4708070000000  0.5610630000000  0.4528690000000 1.0
C      1  0.4676470000000  0.5590660000000  0.5431750000000 1.0
C      1  0.5614070000000  0.5596640000000  0.5097340000000 1.0
END
