TITL C-38186-4112-34 1.91985293431331e-05 125000 -359.740669881378 0 0 60 (C1) n - 1
REM
REM in /home/bkarasulu/CARBON/AIRSS/Generating-Clusters/EDIP-Nigel-Params/Higher-Symm/Box-15A/Only-C60/SD-CG/FIRE-HFTN
REM
REM
REM
REM
REM
REM ./C.cell (414f73aa93bd7a1190c7fd0f31ff2f98)
REM
REM compiler GCC version 9.2.1 20190827 (Red Hat 9.2.1-1)
REM options -cpp -mtune=generic -march=x86-64 -g -O0 -fpre-include=/usr/include/finclude/math-vector-fortran.h
REM seed 170163960 -503446348 -1971947268 1755136851 1334068454 -1051726652 -2086286071 -1387967934 -121038780 -1163325929 621126479 450646679 1073437604 -207945416 283858609 -1841641944 -526308179 1968081420 -94264734 1937646465 -437118226 -654922545 -129883947 1567267065 516361444 -1622792118 1524237415 637275028 711499269 1934787291 -73231849 722129931 1773229879
REM
CELL 1.54180   50.00000   50.00000   50.00000   90.00000   90.00000   90.00000
LATT -1
SFAC C  
C      1  0.5132910000000  0.5784810000000  0.5128110000000 1.0
C      1  0.4861610000000  0.4220160000000  0.5116280000000 1.0
C      1  0.5127940000000  0.4226730000000  0.5116720000000 1.0
C      1  0.4866850000000  0.5789540000000  0.5137900000000 1.0
C      1  0.5568670000000  0.4842740000000  0.5531780000000 1.0
C      1  0.4434980000000  0.5157260000000  0.5539660000000 1.0
C      1  0.5570000000000  0.5141880000000  0.5528350000000 1.0
C      1  0.4433000000000  0.4858160000000  0.5525600000000 1.0
C      1  0.4393780000000  0.5639180000000  0.5114060000000 1.0
C      1  0.5596540000000  0.4374060000000  0.5065600000000 1.0
C      1  0.4390220000000  0.4375360000000  0.5080390000000 1.0
C      1  0.5593010000000  0.5632030000000  0.5043060000000 1.0
C      1  0.5363300000000  0.5280170000000  0.4370240000000 1.0
C      1  0.4635440000000  0.4708410000000  0.4305410000000 1.0
C      1  0.5438780000000  0.4681520000000  0.4365390000000 1.0
C      1  0.4672680000000  0.5231390000000  0.4381690000000 1.0
C      1  0.4852580000000  0.4473770000000  0.4637110000000 1.0
C      1  0.5105120000000  0.5574160000000  0.4635710000000 1.0
C      1  0.4834970000000  0.5564750000000  0.4646440000000 1.0
C      1  0.5122760000000  0.4459270000000  0.4638200000000 1.0
C      1  0.4409780000000  0.5353000000000  0.4765190000000 1.0
C      1  0.5573930000000  0.4696050000000  0.4731520000000 1.0
C      1  0.4416340000000  0.4669080000000  0.4738100000000 1.0
C      1  0.5539410000000  0.5301660000000  0.4718570000000 1.0
C      1  0.5677780000000  0.4638890000000  0.4998430000000 1.0
C      1  0.4313830000000  0.5380040000000  0.5029100000000 1.0
C      1  0.5665100000000  0.5365260000000  0.4974320000000 1.0
C      1  0.4315330000000  0.4637580000000  0.5000160000000 1.0
C      1  0.4725450000000  0.4694310000000  0.5202090000000 1.0
C      1  0.5276360000000  0.5312600000000  0.5208280000000 1.0
C      1  0.4729160000000  0.5313200000000  0.5215580000000 1.0
C      1  0.5271860000000  0.4700050000000  0.5202850000000 1.0
C      1  0.5364010000000  0.5483890000000  0.4570450000000 1.0
C      1  0.4612040000000  0.4586670000000  0.4552760000000 1.0
C      1  0.5394730000000  0.4515430000000  0.4590580000000 1.0
C      1  0.4609840000000  0.5415300000000  0.4577050000000 1.0
C      1  0.5336500000000  0.5600380000000  0.5153940000000 1.0
C      1  0.4661420000000  0.4407220000000  0.5150540000000 1.0
C      1  0.5330800000000  0.4411060000000  0.5150910000000 1.0
C      1  0.4666860000000  0.5602840000000  0.5174410000000 1.0
C      1  0.5550990000000  0.5186240000000  0.5214190000000 1.0
C      1  0.4454490000000  0.4821950000000  0.5212810000000 1.0
C      1  0.5545990000000  0.4824680000000  0.5217350000000 1.0
C      1  0.4457270000000  0.5187440000000  0.5227830000000 1.0
C      1  0.5337020000000  0.4748970000000  0.5670570000000 1.0
C      1  0.4667270000000  0.5246540000000  0.5680850000000 1.0
C      1  0.5345090000000  0.5241420000000  0.5673300000000 1.0
C      1  0.4658900000000  0.4755900000000  0.5667930000000 1.0
C      1  0.4842550000000  0.4833970000000  0.4171500000000 1.0
C      1  0.5157070000000  0.5083490000000  0.4355200000000 1.0
C      1  0.4885310000000  0.5111650000000  0.4247730000000 1.0
C      1  0.5216360000000  0.4819190000000  0.4256050000000 1.0
C      1  0.4859760000000  0.5275670000000  0.5477830000000 1.0
C      1  0.5143740000000  0.4727620000000  0.5467630000000 1.0
C      1  0.4852480000000  0.4722090000000  0.5467360000000 1.0
C      1  0.5151410000000  0.5283180000000  0.5474870000000 1.0
C      1  0.5147560000000  0.4848480000000  0.4973120000000 1.0
C      1  0.4847240000000  0.5170770000000  0.4980090000000 1.0
C      1  0.5147250000000  0.5166530000000  0.4978920000000 1.0
C      1  0.4846580000000  0.4844350000000  0.4972350000000 1.0
END
