TITL C-38187-2739-455 -0.000226557170848852 125000 -359.16010156527 0 0 60 (Cs) n - 1
REM
REM in /home/bkarasulu/CARBON/AIRSS/Generating-Clusters/EDIP-Nigel-Params/Higher-Symm/Box-15A/Only-C60/SD-CG/FIRE-HFTN
REM
REM
REM
REM
REM
REM ./C.cell (414f73aa93bd7a1190c7fd0f31ff2f98)
REM
REM compiler GCC version 9.2.1 20190827 (Red Hat 9.2.1-1)
REM options -cpp -mtune=generic -march=x86-64 -g -O0 -fpre-include=/usr/include/finclude/math-vector-fortran.h
REM seed 1919024400 1397075295 1993553297 1325820493 -360478890 -745922661 1334360122 -2003263507 -1819485695 -1559791864 947696886 1307591058 -482601710 -1441942110 1790965528 -1941314015 -697686507 -1375921944 -206123958 -1891664621 441403150 1718729353 -1248282175 633190578 991163492 -933102474 447525434 778924961 1275364497 1750067204 -2061148369 1017011369 -1964641405
REM
CELL 1.54180   50.00000   50.00000   50.00000   90.00000   90.00000   90.00000
LATT -1
SFAC C  
C      1  0.4135340000000  0.5387520000000  0.5251080000000 1.0
C      1  0.4134240000000  0.4612740000000  0.4750260000000 1.0
C      1  0.4134230000000  0.5387260000000  0.4750260000000 1.0
C      1  0.4135340000000  0.4612470000000  0.5251080000000 1.0
C      1  0.4071110000000  0.4867080000000  0.5299710000000 1.0
C      1  0.4068050000000  0.5132920000000  0.4702720000000 1.0
C      1  0.4068050000000  0.4867080000000  0.4702720000000 1.0
C      1  0.4071110000000  0.5132910000000  0.5299710000000 1.0
C      1  0.5573280000000  0.4735400000000  0.5627450000000 1.0
C      1  0.5570630000000  0.5262450000000  0.4374060000000 1.0
C      1  0.5570630000000  0.4737550000000  0.4374060000000 1.0
C      1  0.5573280000000  0.5264600000000  0.5627450000000 1.0
C      1  0.4304330000000  0.4416400000000  0.5146290000000 1.0
C      1  0.4309690000000  0.5580300000000  0.4851730000000 1.0
C      1  0.4309690000000  0.4419690000000  0.4851730000000 1.0
C      1  0.4304320000000  0.5583590000000  0.5146290000000 1.0
C      1  0.5081630000000  0.5637340000000  0.5251490000000 1.0
C      1  0.5080150000000  0.4368190000000  0.4750610000000 1.0
C      1  0.5080140000000  0.5631810000000  0.4750610000000 1.0
C      1  0.5081640000000  0.4362660000000  0.5251490000000 1.0
C      1  0.4838480000000  0.4272750000000  0.5146520000000 1.0
C      1  0.4834050000000  0.5719160000000  0.4851470000000 1.0
C      1  0.4834060000000  0.4280840000000  0.4851480000000 1.0
C      1  0.4838470000000  0.5727250000000  0.5146520000000 1.0
C      1  0.5275090000000  0.5437210000000  0.4701770000000 1.0
C      1  0.5277390000000  0.4557040000000  0.5301260000000 1.0
C      1  0.5277390000000  0.5442960000000  0.5301250000000 1.0
C      1  0.5275090000000  0.4562790000000  0.4701770000000 1.0
C      1  0.5755880000000  0.4852730000000  0.4549700000000 1.0
C      1  0.5755610000000  0.5147270000000  0.5450250000000 1.0
C      1  0.5755610000000  0.4852730000000  0.5450250000000 1.0
C      1  0.5755880000000  0.5147280000000  0.4549700000000 1.0
C      1  0.4604870000000  0.5523380000000  0.4784460000000 1.0
C      1  0.4605960000000  0.4473330000000  0.5171290000000 1.0
C      1  0.4605960000000  0.5526670000000  0.5171290000000 1.0
C      1  0.4604870000000  0.4476620000000  0.4784460000000 1.0
C      1  0.4975460000000  0.4849460000000  0.5167040000000 1.0
C      1  0.4969050000000  0.5151190000000  0.4842060000000 1.0
C      1  0.4969050000000  0.4848810000000  0.4842060000000 1.0
C      1  0.4975460000000  0.5150540000000  0.5167040000000 1.0
C      1  0.5305110000000  0.4668610000000  0.4428330000000 1.0
C      1  0.5307610000000  0.5334210000000  0.5574150000000 1.0
C      1  0.5307620000000  0.4665790000000  0.5574160000000 1.0
C      1  0.5305100000000  0.5331390000000  0.4428320000000 1.0
C      1  0.5529200000000  0.5458770000000  0.5146680000000 1.0
C      1  0.5527950000000  0.4542930000000  0.4853800000000 1.0
C      1  0.5527950000000  0.5457070000000  0.4853800000000 1.0
C      1  0.5529210000000  0.4541230000000  0.5146690000000 1.0
C      1  0.5748550000000  0.5272620000000  0.5192460000000 1.0
C      1  0.5747630000000  0.4728520000000  0.4808130000000 1.0
C      1  0.5747630000000  0.5271480000000  0.4808130000000 1.0
C      1  0.5748560000000  0.4727390000000  0.5192460000000 1.0
C      1  0.4682050000000  0.4766670000000  0.5167790000000 1.0
C      1  0.4675590000000  0.5236700000000  0.4857030000000 1.0
C      1  0.4675590000000  0.4763290000000  0.4857030000000 1.0
C      1  0.4682050000000  0.5233330000000  0.5167790000000 1.0
C      1  0.5129960000000  0.4864430000000  0.5660930000000 1.0
C      1  0.5126050000000  0.5135410000000  0.4339480000000 1.0
C      1  0.5126060000000  0.4864590000000  0.4339480000000 1.0
C      1  0.5129960000000  0.5135570000000  0.5660930000000 1.0
END
