TITL C-38189-4514-647 3.40077994681439e-06 125000 -359.321699075206 0 0 60 (C1) n - 1
REM
REM in /home/bkarasulu/CARBON/AIRSS/Generating-Clusters/EDIP-Nigel-Params/Higher-Symm/Box-15A/Only-C60/SD-CG/FIRE-HFTN
REM
REM
REM
REM
REM
REM ./C.cell (414f73aa93bd7a1190c7fd0f31ff2f98)
REM
REM compiler GCC version 9.2.1 20190827 (Red Hat 9.2.1-1)
REM options -cpp -mtune=generic -march=x86-64 -g -O0 -fpre-include=/usr/include/finclude/math-vector-fortran.h
REM seed 54293967 620854503 -1245692711 616728021 -801072885 549466317 -747270915 1388074227 -1986780620 -1414063240 92567097 511458689 344380799 1384070592 1684930413 -897351497 972846811 -374105480 614393201 -1015067223 974606094 -2057215636 -915530250 -486631138 549528514 1759223577 -1005095974 -718441581 823770495 -48584117 -1302122895 -2027399471 -2052415795
REM
CELL 1.54180   50.00000   50.00000   50.00000   90.00000   90.00000   90.00000
LATT -1
SFAC C  
C      1  0.5129080000000  0.5744140000000  0.4891160000000 1.0
C      1  0.5800380000000  0.4953960000000  0.5134710000000 1.0
C      1  0.4942230000000  0.5098460000000  0.5757920000000 1.0
C      1  0.5096780000000  0.4283120000000  0.5064770000000 1.0
C      1  0.4931430000000  0.5743910000000  0.5080900000000 1.0
C      1  0.4894400000000  0.4275000000000  0.4882830000000 1.0
C      1  0.5824160000000  0.5164240000000  0.4966340000000 1.0
C      1  0.4220440000000  0.4928050000000  0.4849060000000 1.0
C      1  0.4247380000000  0.5091750000000  0.5060610000000 1.0
C      1  0.4832520000000  0.4999260000000  0.4356430000000 1.0
C      1  0.5113020000000  0.5009620000000  0.4320980000000 1.0
C      1  0.5091420000000  0.4862820000000  0.5781910000000 1.0
C      1  0.5197440000000  0.5443010000000  0.4518620000000 1.0
C      1  0.5468400000000  0.4590990000000  0.5119020000000 1.0
C      1  0.4557090000000  0.5108700000000  0.5432170000000 1.0
C      1  0.5215870000000  0.4494340000000  0.5488110000000 1.0
C      1  0.4828800000000  0.5520090000000  0.5506760000000 1.0
C      1  0.4814380000000  0.4518750000000  0.4467550000000 1.0
C      1  0.5560570000000  0.5537160000000  0.4782400000000 1.0
C      1  0.4486010000000  0.4533140000000  0.4836320000000 1.0
C      1  0.4521330000000  0.5483610000000  0.5130930000000 1.0
C      1  0.4419160000000  0.4768730000000  0.4436140000000 1.0
C      1  0.5533720000000  0.5086180000000  0.4594400000000 1.0
C      1  0.5518320000000  0.4882000000000  0.5523940000000 1.0
C      1  0.5044940000000  0.5321960000000  0.5256730000000 1.0
C      1  0.5199750000000  0.5232240000000  0.4844910000000 1.0
C      1  0.5147260000000  0.5099610000000  0.5427500000000 1.0
C      1  0.5025650000000  0.4748750000000  0.4784060000000 1.0
C      1  0.4884100000000  0.5278530000000  0.4788730000000 1.0
C      1  0.4889660000000  0.4774500000000  0.5276940000000 1.0
C      1  0.5187490000000  0.4835990000000  0.5232070000000 1.0
C      1  0.4809740000000  0.5238730000000  0.5075930000000 1.0
C      1  0.4729560000000  0.4824350000000  0.4825260000000 1.0
C      1  0.5233660000000  0.4918410000000  0.4908420000000 1.0
C      1  0.4720410000000  0.5072210000000  0.4629650000000 1.0
C      1  0.4707170000000  0.4944850000000  0.5115720000000 1.0
C      1  0.4759100000000  0.5247080000000  0.5586100000000 1.0
C      1  0.5309820000000  0.5634900000000  0.4699960000000 1.0
C      1  0.5627740000000  0.4777690000000  0.5268610000000 1.0
C      1  0.4680240000000  0.4741590000000  0.4330980000000 1.0
C      1  0.5303700000000  0.5190000000000  0.4426980000000 1.0
C      1  0.5293420000000  0.4718210000000  0.5644780000000 1.0
C      1  0.5286790000000  0.4405840000000  0.5231730000000 1.0
C      1  0.4735450000000  0.5635520000000  0.5256120000000 1.0
C      1  0.4706080000000  0.4397630000000  0.4711270000000 1.0
C      1  0.5682650000000  0.5283750000000  0.4756090000000 1.0
C      1  0.4323880000000  0.4720340000000  0.4694630000000 1.0
C      1  0.4400540000000  0.5243950000000  0.5235720000000 1.0
C      1  0.4704880000000  0.4419890000000  0.5616200000000 1.0
C      1  0.4744740000000  0.5522260000000  0.4685150000000 1.0
C      1  0.5437940000000  0.4607350000000  0.4575110000000 1.0
C      1  0.4480610000000  0.5248720000000  0.4598800000000 1.0
C      1  0.5488430000000  0.4829230000000  0.4745730000000 1.0
C      1  0.5433360000000  0.5173410000000  0.5487850000000 1.0
C      1  0.4788290000000  0.4513560000000  0.5358600000000 1.0
C      1  0.5518320000000  0.5312470000000  0.5253360000000 1.0
C      1  0.5162750000000  0.4569340000000  0.4598720000000 1.0
C      1  0.5287720000000  0.5388530000000  0.5098510000000 1.0
C      1  0.4515170000000  0.4489760000000  0.5438690000000 1.0
C      1  0.4504630000000  0.5517830000000  0.4550440000000 1.0
END
