TITL C-38185-7677-552 2.51923984890276e-06 125000 -368.349098100854 0 0 60 (C1) n - 1
REM
REM in /home/bkarasulu/CARBON/AIRSS/Generating-Clusters/EDIP-Nigel-Params/Higher-Symm/Box-15A/Only-C60/SD-CG/FIRE-HFTN
REM
REM
REM
REM
REM
REM ./C.cell (414f73aa93bd7a1190c7fd0f31ff2f98)
REM
REM compiler GCC version 9.2.1 20190827 (Red Hat 9.2.1-1)
REM options -cpp -mtune=generic -march=x86-64 -g -O0 -fpre-include=/usr/include/finclude/math-vector-fortran.h
REM seed 535889347 1806030653 930889155 -860457920 1754778840 2072449621 -1609376176 -798307337 -611330608 -932017052 -1254786802 1149785862 -60564068 -1647533988 1968876647 1599899894 -714387450 1299217669 -1134084878 -59237020 -272676015 -2067771801 -2107809003 655323121 2081430388 1593880010 -1692893443 149262593 -221655835 1591143331 411800028 1530128033 -798482896
REM
CELL 1.54180   50.00000   50.00000   50.00000   90.00000   90.00000   90.00000
LATT -1
SFAC C  
C      1  0.4448920000000  0.5312560000000  0.5098570000000 1.0
C      1  0.5388900000000  0.5332610000000  0.5418650000000 1.0
C      1  0.5174060000000  0.5327850000000  0.4470550000000 1.0
C      1  0.4711230000000  0.5029180000000  0.5050950000000 1.0
C      1  0.5196120000000  0.5047240000000  0.5235870000000 1.0
C      1  0.5106710000000  0.5047550000000  0.4733330000000 1.0
C      1  0.4445010000000  0.4658390000000  0.4842280000000 1.0
C      1  0.5157270000000  0.4674600000000  0.5560360000000 1.0
C      1  0.5390860000000  0.4658880000000  0.4617330000000 1.0
C      1  0.5501550000000  0.5499140000000  0.4792700000000 1.0
C      1  0.4431410000000  0.5532880000000  0.4650680000000 1.0
C      1  0.4968650000000  0.5539440000000  0.5545260000000 1.0
C      1  0.5280230000000  0.4982420000000  0.4958630000000 1.0
C      1  0.4822690000000  0.4973150000000  0.4790520000000 1.0
C      1  0.4913000000000  0.4993100000000  0.5272300000000 1.0
C      1  0.4771280000000  0.5431410000000  0.5707590000000 1.0
C      1  0.5757940000000  0.5407120000000  0.4840710000000 1.0
C      1  0.4510130000000  0.5447920000000  0.4405730000000 1.0
C      1  0.4632180000000  0.4799160000000  0.4633860000000 1.0
C      1  0.4880840000000  0.4804400000000  0.5502320000000 1.0
C      1  0.5496120000000  0.4793450000000  0.4877450000000 1.0
C      1  0.4469670000000  0.4417210000000  0.4981450000000 1.0
C      1  0.5276760000000  0.4428340000000  0.5509370000000 1.0
C      1  0.5240710000000  0.4429860000000  0.4579670000000 1.0
C      1  0.4529730000000  0.5532160000000  0.4911650000000 1.0
C      1  0.5205380000000  0.5563360000000  0.5401930000000 1.0
C      1  0.5231940000000  0.5466160000000  0.4733050000000 1.0
C      1  0.4842530000000  0.4246350000000  0.4753620000000 1.0
C      1  0.4904050000000  0.4300560000000  0.5022030000000 1.0
C      1  0.5174960000000  0.4323130000000  0.5071730000000 1.0
C      1  0.4482060000000  0.5119560000000  0.5429730000000 1.0
C      1  0.5659870000000  0.5125840000000  0.5241830000000 1.0
C      1  0.4886060000000  0.5130770000000  0.4321560000000 1.0
C      1  0.4691950000000  0.4458570000000  0.5150340000000 1.0
C      1  0.5357120000000  0.4440120000000  0.5241190000000 1.0
C      1  0.4962980000000  0.4404770000000  0.4554100000000 1.0
C      1  0.4429950000000  0.4871820000000  0.5053590000000 1.0
C      1  0.5337100000000  0.4895190000000  0.5474480000000 1.0
C      1  0.5235900000000  0.4888310000000  0.4497470000000 1.0
C      1  0.4649200000000  0.4629280000000  0.5402330000000 1.0
C      1  0.5556190000000  0.4641780000000  0.5140930000000 1.0
C      1  0.4812560000000  0.4640880000000  0.4442300000000 1.0
C      1  0.5654060000000  0.5154500000000  0.4564970000000 1.0
C      1  0.4264470000000  0.5108300000000  0.4674720000000 1.0
C      1  0.5057250000000  0.5177890000000  0.5781730000000 1.0
C      1  0.5609510000000  0.4852430000000  0.5347850000000 1.0
C      1  0.4992260000000  0.4849690000000  0.4318930000000 1.0
C      1  0.4426710000000  0.4831730000000  0.5356590000000 1.0
C      1  0.4792200000000  0.5610700000000  0.4917970000000 1.0
C      1  0.5183930000000  0.5685420000000  0.5154600000000 1.0
C      1  0.5065710000000  0.5619000000000  0.4913650000000 1.0
C      1  0.4268790000000  0.5109520000000  0.4957350000000 1.0
C      1  0.5318160000000  0.5143350000000  0.5651710000000 1.0
C      1  0.5406370000000  0.5126040000000  0.4409860000000 1.0
C      1  0.4620160000000  0.5180930000000  0.5679300000000 1.0
C      1  0.5806260000000  0.5160200000000  0.4991790000000 1.0
C      1  0.4602270000000  0.5190610000000  0.4343580000000 1.0
C      1  0.5724190000000  0.4968940000000  0.4782710000000 1.0
C      1  0.4451300000000  0.4993490000000  0.4494660000000 1.0
C      1  0.4834640000000  0.4990810000000  0.5738050000000 1.0
END
