TITL C-38186-4112-380 5.26296921415216e-06 125000 -369.756840247623 0 0 60 (Ci) n - 1
REM
REM in /home/bkarasulu/CARBON/AIRSS/Generating-Clusters/EDIP-Nigel-Params/Higher-Symm/Box-15A/Only-C60/SD-CG/FIRE-HFTN
REM
REM
REM
REM
REM
REM ./C.cell (414f73aa93bd7a1190c7fd0f31ff2f98)
REM
REM compiler GCC version 9.2.1 20190827 (Red Hat 9.2.1-1)
REM options -cpp -mtune=generic -march=x86-64 -g -O0 -fpre-include=/usr/include/finclude/math-vector-fortran.h
REM seed -617596789 -465217156 -1165308781 512819664 1857683574 -2100199088 -289461329 1951642421 -154218812 580753038 -1456114950 -249525262 -959730770 -1609717929 602709362 1653684347 1367294705 -2127620193 1534996801 -827528424 176506846 -1319897640 -2094865722 -1512415248 -1114935206 -1090059954 922850940 1448356931 1364674265 -2126519079 691976600 1801727799 1996388166
REM
CELL 1.54180   50.00000   50.00000   50.00000   90.00000   90.00000   90.00000
LATT -1
SFAC C  
C      1  0.4772580000000  0.5135840000000  0.4803290000000 1.0
C      1  0.5227420000000  0.4864160000000  0.5196710000000 1.0
C      1  0.4453770000000  0.4522960000000  0.5186400000000 1.0
C      1  0.5546230000000  0.5477040000000  0.4813600000000 1.0
C      1  0.5688490000000  0.5025990000000  0.4987750000000 1.0
C      1  0.4311510000000  0.4974010000000  0.5012250000000 1.0
C      1  0.5572990000000  0.4589630000000  0.4769640000000 1.0
C      1  0.4427010000000  0.5410370000000  0.5230360000000 1.0
C      1  0.4529870000000  0.4967900000000  0.5429790000000 1.0
C      1  0.5470130000000  0.5032100000000  0.4570210000000 1.0
C      1  0.4938430000000  0.5039250000000  0.5593140000000 1.0
C      1  0.5061570000000  0.4960750000000  0.4406860000000 1.0
C      1  0.4587980000000  0.4551230000000  0.4488770000000 1.0
C      1  0.5412020000000  0.5448770000000  0.5511230000000 1.0
C      1  0.4618850000000  0.4374630000000  0.4712710000000 1.0
C      1  0.5381150000000  0.5625370000000  0.5287290000000 1.0
C      1  0.4353360000000  0.4806880000000  0.5252650000000 1.0
C      1  0.5646640000000  0.5193120000000  0.4747350000000 1.0
C      1  0.5068510000000  0.5678220000000  0.4897340000000 1.0
C      1  0.4931490000000  0.4321780000000  0.5102660000000 1.0
C      1  0.5246570000000  0.5480730000000  0.4755520000000 1.0
C      1  0.4753430000000  0.4519270000000  0.5244480000000 1.0
C      1  0.5438010000000  0.5097440000000  0.5142810000000 1.0
C      1  0.4561990000000  0.4902560000000  0.4857190000000 1.0
C      1  0.4810650000000  0.4764020000000  0.5073140000000 1.0
C      1  0.5189350000000  0.5235980000000  0.4926860000000 1.0
C      1  0.5226450000000  0.4359860000000  0.5149510000000 1.0
C      1  0.4773550000000  0.5640140000000  0.4850490000000 1.0
C      1  0.4873000000000  0.5360610000000  0.4434500000000 1.0
C      1  0.5127000000000  0.4639390000000  0.5565500000000 1.0
C      1  0.4539330000000  0.5264310000000  0.5458180000000 1.0
C      1  0.5460670000000  0.4735690000000  0.4541820000000 1.0
C      1  0.4824910000000  0.5106690000000  0.4311610000000 1.0
C      1  0.5175090000000  0.4893310000000  0.5688390000000 1.0
C      1  0.5057540000000  0.4996990000000  0.4732400000000 1.0
C      1  0.4942460000000  0.5003010000000  0.5267600000000 1.0
C      1  0.4868550000000  0.5593270000000  0.5346860000000 1.0
C      1  0.5131450000000  0.4406730000000  0.4653140000000 1.0
C      1  0.5615310000000  0.5565090000000  0.5098960000000 1.0
C      1  0.4384690000000  0.4434910000000  0.4901040000000 1.0
C      1  0.5562820000000  0.5238080000000  0.5390290000000 1.0
C      1  0.4437180000000  0.4761920000000  0.4609710000000 1.0
C      1  0.4221510000000  0.4625210000000  0.4750740000000 1.0
C      1  0.5778490000000  0.5374790000000  0.5249260000000 1.0
C      1  0.5330210000000  0.4442170000000  0.4870670000000 1.0
C      1  0.4669790000000  0.5557830000000  0.5129330000000 1.0
C      1  0.5723640000000  0.4754510000000  0.4933690000000 1.0
C      1  0.4276360000000  0.5245490000000  0.5066310000000 1.0
C      1  0.4793500000000  0.5389860000000  0.5546350000000 1.0
C      1  0.5206500000000  0.4610140000000  0.4453650000000 1.0
C      1  0.4837220000000  0.4589690000000  0.5526440000000 1.0
C      1  0.5162780000000  0.5410310000000  0.4473560000000 1.0
C      1  0.4887380000000  0.4380650000000  0.4818740000000 1.0
C      1  0.5112620000000  0.5619350000000  0.5181260000000 1.0
C      1  0.5287890000000  0.5157270000000  0.4384130000000 1.0
C      1  0.4712110000000  0.4842730000000  0.5615870000000 1.0
C      1  0.4692180000000  0.5467370000000  0.4630650000000 1.0
C      1  0.5307820000000  0.4532630000000  0.5369350000000 1.0
C      1  0.5097860000000  0.4751110000000  0.4922040000000 1.0
C      1  0.4902140000000  0.5248890000000  0.5077960000000 1.0
END
