TITL C-38197-8510-628 1.21509779436396 125000 -357.909712217606 0 0 60 (C1) n - 1
REM
REM in /home/bkarasulu/CARBON/AIRSS/Generating-Clusters/EDIP-Nigel-Params/Higher-Symm/Box-15A/Only-C60/SD-CG/FIRE-HFTN
REM
REM
REM
REM
REM
REM ./C.cell (414f73aa93bd7a1190c7fd0f31ff2f98)
REM
REM compiler GCC version 9.2.1 20190827 (Red Hat 9.2.1-1)
REM options -cpp -mtune=generic -march=x86-64 -g -O0 -fpre-include=/usr/include/finclude/math-vector-fortran.h
REM seed -612294099 -1538831671 311994737 1882980119 441768159 -1283306576 -580066262 -1374003798 -540554423 -1483249108 -576808143 -956514957 84865037 877205420 684346388 -1836860173 1977086593 -1995673449 385480210 -292531541 2132573354 1957232834 -1594670233 714725200 1319975682 -1260971956 1952505282 -137757460 -207661517 683011727 1083781995 -322923391 -641434707
REM
CELL 1.54180   50.00000   50.00000   50.00000   90.00000   90.00000   90.00000
LATT -1
SFAC C  
C      1  0.4812670000000  0.5648850000000  0.4519490000000 1.0
C      1  0.5058790000000  0.5755570000000  0.5318210000000 1.0
C      1  0.5347820000000  0.4309080000000  0.4114220000000 1.0
C      1  0.4271700000000  0.5042820000000  0.5351370000000 1.0
C      1  0.5536590000000  0.4066200000000  0.3695060000000 1.0
C      1  0.4825680000000  0.4966610000000  0.4282160000000 1.0
C      1  0.4698720000000  0.4828240000000  0.4483970000000 1.0
C      1  0.4935320000000  0.4485580000000  0.5203400000000 1.0
C      1  0.5087210000000  0.5586130000000  0.4462410000000 1.0
C      1  0.4469810000000  0.5080570000000  0.5543790000000 1.0
C      1  0.5380750000000  0.4368870000000  0.5312390000000 1.0
C      1  0.5099410000000  0.5800880000000  0.5037290000000 1.0
C      1  0.5443530000000  0.4185160000000  0.3901390000000 1.0
C      1  0.5197280000000  0.4419020000000  0.5065550000000 1.0
C      1  0.4740290000000  0.5152100000000  0.5107580000000 1.0
C      1  0.4740810000000  0.4426470000000  0.5626490000000 1.0
C      1  0.5185720000000  0.4929700000000  0.5312480000000 1.0
C      1  0.5650240000000  0.5107060000000  0.4849520000000 1.0
C      1  0.4275290000000  0.5087830000000  0.5073250000000 1.0
C      1  0.4697010000000  0.4493520000000  0.5021420000000 1.0
C      1  0.4892870000000  0.5304710000000  0.5676750000000 1.0
C      1  0.5419600000000  0.4551010000000  0.4516820000000 1.0
C      1  0.5374240000000  0.5198200000000  0.5710840000000 1.0
C      1  0.5492690000000  0.4379970000000  0.5024930000000 1.0
C      1  0.4367730000000  0.4852550000000  0.4903860000000 1.0
C      1  0.5248120000000  0.4436110000000  0.4335100000000 1.0
C      1  0.4456620000000  0.5535430000000  0.5131680000000 1.0
C      1  0.4766270000000  0.5868840000000  0.4681120000000 1.0
C      1  0.4663930000000  0.5295530000000  0.5515380000000 1.0
C      1  0.5186880000000  0.4306740000000  0.5540430000000 1.0
C      1  0.5225030000000  0.5596140000000  0.5470610000000 1.0
C      1  0.4497860000000  0.5279750000000  0.5001640000000 1.0
C      1  0.4975780000000  0.4451090000000  0.4374390000000 1.0
C      1  0.5510280000000  0.4651000000000  0.4756040000000 1.0
C      1  0.4509760000000  0.5263330000000  0.4697010000000 1.0
C      1  0.4901740000000  0.4289210000000  0.5430680000000 1.0
C      1  0.5375110000000  0.4709230000000  0.5795090000000 1.0
C      1  0.4904270000000  0.4662660000000  0.5662440000000 1.0
C      1  0.4940930000000  0.4763080000000  0.5369790000000 1.0
C      1  0.5286430000000  0.5721630000000  0.4604290000000 1.0
C      1  0.4691280000000  0.4427540000000  0.4751910000000 1.0
C      1  0.5310260000000  0.4972390000000  0.5887080000000 1.0
C      1  0.5675740000000  0.5358810000000  0.4933140000000 1.0
C      1  0.5160090000000  0.5388770000000  0.5646440000000 1.0
C      1  0.4896490000000  0.5935370000000  0.4905360000000 1.0
C      1  0.4628120000000  0.5443320000000  0.4521000000000 1.0
C      1  0.4760150000000  0.4550380000000  0.4514750000000 1.0
C      1  0.4535380000000  0.4718200000000  0.5108570000000 1.0
C      1  0.5404140000000  0.4959620000000  0.5509950000000 1.0
C      1  0.4687300000000  0.4920010000000  0.5276830000000 1.0
C      1  0.4516850000000  0.4969790000000  0.4664470000000 1.0
C      1  0.4598070000000  0.5544140000000  0.5374330000000 1.0
C      1  0.5014570000000  0.5144050000000  0.4221430000000 1.0
C      1  0.5136590000000  0.5365510000000  0.4304360000000 1.0
C      1  0.5156320000000  0.4525970000000  0.5754090000000 1.0
C      1  0.5332280000000  0.5735260000000  0.4879550000000 1.0
C      1  0.5449360000000  0.4917750000000  0.4843940000000 1.0
C      1  0.5265190000000  0.4939950000000  0.5048370000000 1.0
C      1  0.4791850000000  0.5743860000000  0.5394580000000 1.0
C      1  0.5539210000000  0.5582830000000  0.4979540000000 1.0
END
