TITL C-38185-7677-572 1.10876668882464e-05 125000 -368.695482247055 0 0 60 (C1) n - 1
REM
REM in /home/bkarasulu/CARBON/AIRSS/Generating-Clusters/EDIP-Nigel-Params/Higher-Symm/Box-15A/Only-C60/SD-CG/FIRE-HFTN
REM
REM
REM
REM
REM
REM ./C.cell (414f73aa93bd7a1190c7fd0f31ff2f98)
REM
REM compiler GCC version 9.2.1 20190827 (Red Hat 9.2.1-1)
REM options -cpp -mtune=generic -march=x86-64 -g -O0 -fpre-include=/usr/include/finclude/math-vector-fortran.h
REM seed -64681751 950098342 774685393 -722377093 1952625982 1452389265 209676062 -257449714 1415262660 330915549 1616637405 -1273957801 2052521799 1477940484 1371126595 931602763 -161916160 -712523755 -508673772 1836940110 1975026687 -565918512 -2058412476 165975157 -1789556932 1437301711 -470830218 -1452348031 669878602 1358968653 -677483349 -1727268926 890481297
REM
CELL 1.54180   50.00000   50.00000   50.00000   90.00000   90.00000   90.00000
LATT -1
SFAC C  
C      1  0.4407220000000  0.5549630000000  0.5243380000000 1.0
C      1  0.5162410000000  0.5500930000000  0.5284950000000 1.0
C      1  0.5678840000000  0.5425670000000  0.5217900000000 1.0
C      1  0.5609380000000  0.4762630000000  0.5251560000000 1.0
C      1  0.5091610000000  0.4236710000000  0.5186730000000 1.0
C      1  0.4666700000000  0.4637080000000  0.5237890000000 1.0
C      1  0.4224610000000  0.5001360000000  0.5297700000000 1.0
C      1  0.5036340000000  0.4698840000000  0.4192870000000 1.0
C      1  0.4831090000000  0.4853980000000  0.4075890000000 1.0
C      1  0.4690320000000  0.5085320000000  0.4158250000000 1.0
C      1  0.4881890000000  0.5318780000000  0.4178820000000 1.0
C      1  0.5138420000000  0.5230800000000  0.4101600000000 1.0
C      1  0.5313610000000  0.5043920000000  0.4218410000000 1.0
C      1  0.5293200000000  0.4782290000000  0.4122080000000 1.0
C      1  0.5252870000000  0.4332970000000  0.4733740000000 1.0
C      1  0.4768400000000  0.4423360000000  0.4823490000000 1.0
C      1  0.4289790000000  0.4920950000000  0.4772920000000 1.0
C      1  0.4497210000000  0.5369550000000  0.4794050000000 1.0
C      1  0.4934290000000  0.5619240000000  0.4888630000000 1.0
C      1  0.5543620000000  0.5413440000000  0.4769020000000 1.0
C      1  0.5645090000000  0.4904800000000  0.4798700000000 1.0
C      1  0.4731330000000  0.5512620000000  0.4694500000000 1.0
C      1  0.5237070000000  0.5434990000000  0.4821920000000 1.0
C      1  0.5578690000000  0.5138630000000  0.4636590000000 1.0
C      1  0.5418770000000  0.4602730000000  0.4787690000000 1.0
C      1  0.4986090000000  0.4399640000000  0.4615520000000 1.0
C      1  0.4588080000000  0.4681820000000  0.4774350000000 1.0
C      1  0.4410010000000  0.5145840000000  0.4630150000000 1.0
C      1  0.5679470000000  0.4975930000000  0.5074490000000 1.0
C      1  0.5221870000000  0.4154470000000  0.4952230000000 1.0
C      1  0.4857600000000  0.4434780000000  0.5116600000000 1.0
C      1  0.4136550000000  0.4973960000000  0.5015430000000 1.0
C      1  0.4338900000000  0.5476730000000  0.4993740000000 1.0
C      1  0.4895010000000  0.5598410000000  0.5189200000000 1.0
C      1  0.5729480000000  0.5513920000000  0.4959830000000 1.0
C      1  0.4723840000000  0.4806530000000  0.5463930000000 1.0
C      1  0.4526490000000  0.5038030000000  0.5474460000000 1.0
C      1  0.4694950000000  0.5287520000000  0.5536180000000 1.0
C      1  0.5206540000000  0.5359970000000  0.5550040000000 1.0
C      1  0.5480680000000  0.5197050000000  0.5485270000000 1.0
C      1  0.5467800000000  0.4877180000000  0.5493970000000 1.0
C      1  0.5200510000000  0.4742210000000  0.5485040000000 1.0
C      1  0.5133170000000  0.5271120000000  0.4603320000000 1.0
C      1  0.5314340000000  0.5061180000000  0.4518290000000 1.0
C      1  0.5202540000000  0.4811100000000  0.4670390000000 1.0
C      1  0.4994450000000  0.4672660000000  0.4491060000000 1.0
C      1  0.4736080000000  0.4800280000000  0.4552750000000 1.0
C      1  0.4650720000000  0.5067690000000  0.4465040000000 1.0
C      1  0.4864890000000  0.5324300000000  0.4494770000000 1.0
C      1  0.4637120000000  0.4835240000000  0.5029990000000 1.0
C      1  0.4481600000000  0.5081370000000  0.5125530000000 1.0
C      1  0.4664130000000  0.5447410000000  0.5293040000000 1.0
C      1  0.5235510000000  0.5283850000000  0.5092500000000 1.0
C      1  0.5514710000000  0.5202120000000  0.5191300000000 1.0
C      1  0.5439500000000  0.4578230000000  0.5097790000000 1.0
C      1  0.5206570000000  0.4516930000000  0.5269450000000 1.0
C      1  0.4974200000000  0.5177170000000  0.5598340000000 1.0
C      1  0.5045310000000  0.5053620000000  0.5125170000000 1.0
C      1  0.5055730000000  0.4894710000000  0.4901520000000 1.0
C      1  0.4990480000000  0.4940750000000  0.5411110000000 1.0
END
