TITL C-38186-4112-486 -3.3355203290575e-05 125000 -365.475472911788 0 0 60 (S4) n - 1
REM
REM in /home/bkarasulu/CARBON/AIRSS/Generating-Clusters/EDIP-Nigel-Params/Higher-Symm/Box-15A/Only-C60/SD-CG/FIRE-HFTN
REM
REM
REM
REM
REM
REM ./C.cell (414f73aa93bd7a1190c7fd0f31ff2f98)
REM
REM compiler GCC version 9.2.1 20190827 (Red Hat 9.2.1-1)
REM options -cpp -mtune=generic -march=x86-64 -g -O0 -fpre-include=/usr/include/finclude/math-vector-fortran.h
REM seed 2121947994 1521599966 -1443242956 -1861378706 1355255771 -695027924 1509959963 -717046688 587418021 -640063887 919737260 1057573265 -699495505 -333704864 -2087594273 622456895 -463482984 -1627045413 -2019514446 -352124569 -1071773564 -346931992 -105234816 1765447897 -1309123568 1797916005 -410856592 873817821 777487531 -1976312656 -335822262 1501330134 443207672
REM
CELL 1.54180   50.00000   50.00000   50.00000   90.00000   90.00000   90.00000
LATT -1
SFAC C  
C      1  0.5102340000000  0.5100010000000  0.5610410000000 1.0
C      1  0.5100010000000  0.4897660000000  0.4389590000000 1.0
C      1  0.4897660000000  0.4899990000000  0.5610410000000 1.0
C      1  0.4899990000000  0.5102340000000  0.4389590000000 1.0
C      1  0.5267930000000  0.5701560000000  0.4563180000000 1.0
C      1  0.5701560000000  0.4732070000000  0.5436820000000 1.0
C      1  0.4732070000000  0.4298440000000  0.4563180000000 1.0
C      1  0.4298440000000  0.5267930000000  0.5436820000000 1.0
C      1  0.5053940000000  0.4787720000000  0.4993260000000 1.0
C      1  0.4787720000000  0.4946060000000  0.5006740000000 1.0
C      1  0.4946060000000  0.5212280000000  0.4993260000000 1.0
C      1  0.5212280000000  0.5053940000000  0.5006740000000 1.0
C      1  0.4633070000000  0.4980170000000  0.5626340000000 1.0
C      1  0.4980170000000  0.5366930000000  0.4373660000000 1.0
C      1  0.5366930000000  0.5019830000000  0.5626340000000 1.0
C      1  0.5019830000000  0.4633070000000  0.4373660000000 1.0
C      1  0.5142740000000  0.5604220000000  0.5212300000000 1.0
C      1  0.5604220000000  0.4857260000000  0.4787700000000 1.0
C      1  0.4857260000000  0.4395780000000  0.5212300000000 1.0
C      1  0.4395780000000  0.5142740000000  0.4787700000000 1.0
C      1  0.4534230000000  0.4889070000000  0.4853410000000 1.0
C      1  0.4889070000000  0.5465770000000  0.5146590000000 1.0
C      1  0.5465770000000  0.5110930000000  0.4853410000000 1.0
C      1  0.5110930000000  0.4534230000000  0.5146590000000 1.0
C      1  0.5771090000000  0.4735920000000  0.4973190000000 1.0
C      1  0.4735920000000  0.4228910000000  0.5026810000000 1.0
C      1  0.4228910000000  0.5264080000000  0.4973190000000 1.0
C      1  0.5264080000000  0.5771090000000  0.5026810000000 1.0
C      1  0.4700490000000  0.5862390000000  0.4851500000000 1.0
C      1  0.5862390000000  0.5299510000000  0.5148500000000 1.0
C      1  0.5299510000000  0.4137610000000  0.4851500000000 1.0
C      1  0.4137610000000  0.4700490000000  0.5148500000000 1.0
C      1  0.5027240000000  0.5375480000000  0.5573720000000 1.0
C      1  0.5375480000000  0.4972760000000  0.4426280000000 1.0
C      1  0.4972760000000  0.4624520000000  0.5573720000000 1.0
C      1  0.4624520000000  0.5027240000000  0.4426280000000 1.0
C      1  0.4136230000000  0.5194810000000  0.5225350000000 1.0
C      1  0.5194810000000  0.5863770000000  0.4774650000000 1.0
C      1  0.5863770000000  0.4805190000000  0.5225350000000 1.0
C      1  0.4805190000000  0.4136230000000  0.4774650000000 1.0
C      1  0.4716300000000  0.5639370000000  0.4999590000000 1.0
C      1  0.5639370000000  0.5283700000000  0.5000410000000 1.0
C      1  0.5283700000000  0.4360630000000  0.4999590000000 1.0
C      1  0.4360630000000  0.4716300000000  0.5000410000000 1.0
C      1  0.4752190000000  0.5421320000000  0.5493230000000 1.0
C      1  0.5421320000000  0.5247810000000  0.4506770000000 1.0
C      1  0.5247810000000  0.4578680000000  0.5493230000000 1.0
C      1  0.4578680000000  0.4752190000000  0.4506770000000 1.0
C      1  0.4546250000000  0.5233440000000  0.5554790000000 1.0
C      1  0.5233440000000  0.5453750000000  0.4445210000000 1.0
C      1  0.5453750000000  0.4766560000000  0.5554790000000 1.0
C      1  0.4766560000000  0.4546250000000  0.4445210000000 1.0
C      1  0.4934470000000  0.5958430000000  0.4761410000000 1.0
C      1  0.5958430000000  0.5065530000000  0.5238590000000 1.0
C      1  0.5065530000000  0.4041570000000  0.4761410000000 1.0
C      1  0.4041570000000  0.4934470000000  0.5238590000000 1.0
C      1  0.4780140000000  0.4440310000000  0.5477660000000 1.0
C      1  0.4440310000000  0.5219860000000  0.4522340000000 1.0
C      1  0.5219860000000  0.5559690000000  0.5477660000000 1.0
C      1  0.5559690000000  0.4780140000000  0.4522340000000 1.0
END
