TITL C-38196-2854-382 -9.32636870472519e-06 125000 -358.607734683691 0 0 60 (C1) n - 1
REM
REM in /home/bkarasulu/CARBON/AIRSS/Generating-Clusters/EDIP-Nigel-Params/Higher-Symm/Box-15A/Only-C60/SD-CG/FIRE-HFTN
REM
REM
REM
REM
REM
REM ./C.cell (414f73aa93bd7a1190c7fd0f31ff2f98)
REM
REM compiler GCC version 9.2.1 20190827 (Red Hat 9.2.1-1)
REM options -cpp -mtune=generic -march=x86-64 -g -O0 -fpre-include=/usr/include/finclude/math-vector-fortran.h
REM seed 1263552426 -169123390 800427651 1977711106 1612524512 1770875411 -1036798548 -1354708244 1225718468 -1301438121 -951180629 528449971 -80139369 1457056024 2125200742 1359482803 172117290 -1342047732 1548454052 -1273793182 -2039425138 -444517771 -1054182595 952806711 991327014 -1227213168 -309975316 -657349014 1749853506 -1324535723 -964160012 908265976 302409585
REM
CELL 1.54180   50.00000   50.00000   50.00000   90.00000   90.00000   90.00000
LATT -1
SFAC C  
C      1  0.5242610000000  0.4681320000000  0.5017690000000 1.0
C      1  0.5209180000000  0.5432630000000  0.5493830000000 1.0
C      1  0.4749640000000  0.4975670000000  0.4265230000000 1.0
C      1  0.5690170000000  0.5286990000000  0.4900900000000 1.0
C      1  0.4727860000000  0.5255380000000  0.5524150000000 1.0
C      1  0.5347800000000  0.5630390000000  0.5064620000000 1.0
C      1  0.5442710000000  0.5502440000000  0.5639400000000 1.0
C      1  0.4867860000000  0.4989590000000  0.4723960000000 1.0
C      1  0.5716410000000  0.5217840000000  0.4620810000000 1.0
C      1  0.4658970000000  0.5423900000000  0.5276030000000 1.0
C      1  0.5678560000000  0.4966580000000  0.4517940000000 1.0
C      1  0.5423480000000  0.4544460000000  0.5448740000000 1.0
C      1  0.4912100000000  0.5437460000000  0.5115450000000 1.0
C      1  0.5046100000000  0.4558370000000  0.4334240000000 1.0
C      1  0.5137330000000  0.5579110000000  0.5244680000000 1.0
C      1  0.4545870000000  0.5742050000000  0.4801410000000 1.0
C      1  0.4388920000000  0.5524700000000  0.4872130000000 1.0
C      1  0.4259750000000  0.5004220000000  0.4772680000000 1.0
C      1  0.5834210000000  0.5212810000000  0.5129600000000 1.0
C      1  0.4774090000000  0.5406810000000  0.4483880000000 1.0
C      1  0.5442460000000  0.5487250000000  0.4596690000000 1.0
C      1  0.4437640000000  0.4625400000000  0.5164020000000 1.0
C      1  0.5532780000000  0.5532850000000  0.4874120000000 1.0
C      1  0.5023660000000  0.4573000000000  0.5206960000000 1.0
C      1  0.5534130000000  0.4763530000000  0.5580510000000 1.0
C      1  0.4920590000000  0.4373640000000  0.4496810000000 1.0
C      1  0.5357070000000  0.4244620000000  0.5094350000000 1.0
C      1  0.5310070000000  0.4620650000000  0.4382530000000 1.0
C      1  0.5636130000000  0.5174610000000  0.5325880000000 1.0
C      1  0.5019120000000  0.5231310000000  0.5599200000000 1.0
C      1  0.4356080000000  0.5071880000000  0.5038800000000 1.0
C      1  0.4987650000000  0.5140010000000  0.5169950000000 1.0
C      1  0.4408600000000  0.5358760000000  0.5109640000000 1.0
C      1  0.5289540000000  0.4978780000000  0.4981840000000 1.0
C      1  0.5129260000000  0.5114440000000  0.4752200000000 1.0
C      1  0.5026470000000  0.5425090000000  0.4367670000000 1.0
C      1  0.5527230000000  0.4764230000000  0.4436060000000 1.0
C      1  0.4570000000000  0.4999180000000  0.5598250000000 1.0
C      1  0.4278510000000  0.4869230000000  0.5237130000000 1.0
C      1  0.4350140000000  0.4531290000000  0.4896760000000 1.0
C      1  0.4889110000000  0.4752320000000  0.4216810000000 1.0
C      1  0.5366940000000  0.5112300000000  0.5233000000000 1.0
C      1  0.4525910000000  0.4366850000000  0.4758810000000 1.0
C      1  0.4738490000000  0.4732260000000  0.5169200000000 1.0
C      1  0.4916930000000  0.4184970000000  0.4929670000000 1.0
C      1  0.5146900000000  0.4649000000000  0.5489830000000 1.0
C      1  0.5204660000000  0.5330330000000  0.4561530000000 1.0
C      1  0.5641200000000  0.5345930000000  0.5545490000000 1.0
C      1  0.4317420000000  0.4953880000000  0.5499020000000 1.0
C      1  0.5076560000000  0.4282120000000  0.5132620000000 1.0
C      1  0.5385340000000  0.4923330000000  0.5743210000000 1.0
C      1  0.5459420000000  0.4505160000000  0.5153150000000 1.0
C      1  0.4777100000000  0.4267630000000  0.4707750000000 1.0
C      1  0.4743200000000  0.5560700000000  0.4726740000000 1.0
C      1  0.4800450000000  0.4880850000000  0.5438180000000 1.0
C      1  0.5114640000000  0.4971880000000  0.5701160000000 1.0
C      1  0.4208630000000  0.4730200000000  0.4757160000000 1.0
C      1  0.4415000000000  0.5102910000000  0.4567060000000 1.0
C      1  0.4786090000000  0.4976530000000  0.5005190000000 1.0
C      1  0.4695290000000  0.5118390000000  0.4507670000000 1.0
END
