TITL C-38185-7677-344 2.68848735807811e-05 125000 -347.512356231039 0 0 60 (C1) n - 1
REM
REM in /home/bkarasulu/CARBON/AIRSS/Generating-Clusters/EDIP-Nigel-Params/Higher-Symm/Box-15A/Only-C60/SD-CG/FIRE-HFTN
REM
REM
REM
REM
REM
REM ./C.cell (414f73aa93bd7a1190c7fd0f31ff2f98)
REM
REM compiler GCC version 9.2.1 20190827 (Red Hat 9.2.1-1)
REM options -cpp -mtune=generic -march=x86-64 -g -O0 -fpre-include=/usr/include/finclude/math-vector-fortran.h
REM seed 896176953 -1428085968 -1457910548 -1163960952 598128230 -562794888 -1914205821 1469808399 -1737683647 -1431470568 401114170 1812412051 -885304228 1980481160 577907821 873272118 -828242477 -968559694 879124945 -1302240203 -1275551363 -1582786386 285942515 -1041457691 -1494337279 977434580 867196310 -1397072444 147581531 671701641 13569703 930041381 2041625017
REM
CELL 1.54180   50.00000   50.00000   50.00000   90.00000   90.00000   90.00000
LATT -1
SFAC C  
C      1  0.4196870000000  0.5456480000000  0.4968200000000 1.0
C      1  0.5008340000000  0.4176530000000  0.5431630000000 1.0
C      1  0.5369180000000  0.4983110000000  0.4157300000000 1.0
C      1  0.5778170000000  0.5362170000000  0.4937220000000 1.0
C      1  0.4183000000000  0.4668620000000  0.5007610000000 1.0
C      1  0.5777940000000  0.4634690000000  0.4929020000000 1.0
C      1  0.5078960000000  0.4215840000000  0.4723000000000 1.0
C      1  0.4961700000000  0.5768050000000  0.4694090000000 1.0
C      1  0.5068460000000  0.5712770000000  0.5370600000000 1.0
C      1  0.4552910000000  0.4932220000000  0.5773430000000 1.0
C      1  0.5302400000000  0.5003920000000  0.5767330000000 1.0
C      1  0.4697540000000  0.5068340000000  0.4223970000000 1.0
C      1  0.4980690000000  0.5156580000000  0.4638810000000 1.0
C      1  0.4586450000000  0.4955860000000  0.5139560000000 1.0
C      1  0.5152150000000  0.4635870000000  0.5004120000000 1.0
C      1  0.4984240000000  0.5105520000000  0.5368200000000 1.0
C      1  0.4804660000000  0.4873710000000  0.5324200000000 1.0
C      1  0.5174380000000  0.4946390000000  0.4626990000000 1.0
C      1  0.5309360000000  0.4861900000000  0.4876860000000 1.0
C      1  0.4619520000000  0.5182050000000  0.4967540000000 1.0
C      1  0.5341370000000  0.5101240000000  0.5051560000000 1.0
C      1  0.4954030000000  0.4636510000000  0.5216790000000 1.0
C      1  0.5098840000000  0.5250750000000  0.5135530000000 1.0
C      1  0.4890480000000  0.5285870000000  0.4895620000000 1.0
C      1  0.5429610000000  0.5234640000000  0.4088140000000 1.0
C      1  0.4155480000000  0.5541640000000  0.5218620000000 1.0
C      1  0.5263550000000  0.4121470000000  0.5491320000000 1.0
C      1  0.4479320000000  0.5185450000000  0.5813940000000 1.0
C      1  0.5450820000000  0.4783830000000  0.5784360000000 1.0
C      1  0.4612710000000  0.4817200000000  0.4195940000000 1.0
C      1  0.5817010000000  0.5466720000000  0.4694920000000 1.0
C      1  0.4196950000000  0.4553250000000  0.4767780000000 1.0
C      1  0.5828160000000  0.4535910000000  0.5171530000000 1.0
C      1  0.4849160000000  0.4204670000000  0.4588660000000 1.0
C      1  0.5173180000000  0.5811150000000  0.4537870000000 1.0
C      1  0.4829920000000  0.5767930000000  0.5475650000000 1.0
C      1  0.5666860000000  0.4536180000000  0.5398720000000 1.0
C      1  0.5397120000000  0.5650790000000  0.4497140000000 1.0
C      1  0.4520080000000  0.5412210000000  0.5657090000000 1.0
C      1  0.4391610000000  0.4564750000000  0.4569240000000 1.0
C      1  0.5635190000000  0.5462830000000  0.4483830000000 1.0
C      1  0.4319450000000  0.5486690000000  0.5438080000000 1.0
C      1  0.4582250000000  0.5641420000000  0.5465810000000 1.0
C      1  0.5468940000000  0.4306600000000  0.5449390000000 1.0
C      1  0.4626070000000  0.4369960000000  0.4571070000000 1.0
C      1  0.5414500000000  0.5446610000000  0.4269960000000 1.0
C      1  0.4616340000000  0.4596180000000  0.4365010000000 1.0
C      1  0.5470280000000  0.4553810000000  0.5629690000000 1.0
C      1  0.5587340000000  0.5225850000000  0.5063360000000 1.0
C      1  0.5172500000000  0.5511850000000  0.5227930000000 1.0
C      1  0.5122820000000  0.5116250000000  0.5606630000000 1.0
C      1  0.4393110000000  0.5305430000000  0.4866560000000 1.0
C      1  0.5571190000000  0.4761420000000  0.4815830000000 1.0
C      1  0.4341540000000  0.4828920000000  0.5149680000000 1.0
C      1  0.4866190000000  0.5566050000000  0.4840680000000 1.0
C      1  0.5196690000000  0.4387910000000  0.4889620000000 1.0
C      1  0.4888330000000  0.4388610000000  0.5321040000000 1.0
C      1  0.4835170000000  0.5202950000000  0.4408620000000 1.0
C      1  0.5273300000000  0.4870420000000  0.4380100000000 1.0
C      1  0.4685580000000  0.4807450000000  0.5577030000000 1.0
END
