TITL C-38192-7909-462 -2.96824031508965e-07 125000 -377.778565828272 0 0 60 (C6v) n - 1
REM
REM in /home/bkarasulu/CARBON/AIRSS/Generating-Clusters/EDIP-Nigel-Params/Higher-Symm/Box-15A/Only-C60/SD-CG/FIRE-HFTN
REM
REM
REM
REM
REM
REM ./C.cell (414f73aa93bd7a1190c7fd0f31ff2f98)
REM
REM compiler GCC version 9.2.1 20190827 (Red Hat 9.2.1-1)
REM options -cpp -mtune=generic -march=x86-64 -g -O0 -fpre-include=/usr/include/finclude/math-vector-fortran.h
REM seed 1064512797 570361494 560880732 1238196572 -865494566 -1923863071 -424359721 1953336743 1309850589 -798549710 -1633020839 -523161613 1914283723 120613828 -596934592 -64509201 242052512 -1805784857 774999936 -1842756651 -1154388539 -1714382984 -1715721123 -1044308266 -459044327 1657961827 1291325579 -632908759 1687604597 -1891723305 1827743450 340735967 -2120203312
REM
CELL 1.54180   50.00000   50.00000   50.00000   90.00000   90.00000   90.00000
LATT -1
SFAC C  
C      1  0.5599750000000  0.5299410000000  0.4950420000000 1.0
C      1  0.5599750000000  0.5192640000000  0.5234510000000 1.0
C      1  0.5599750000000  0.4893230000000  0.5284090000000 1.0
C      1  0.5599750000000  0.4700590000000  0.5049580000000 1.0
C      1  0.5599750000000  0.4807360000000  0.4765490000000 1.0
C      1  0.5599750000000  0.5106770000000  0.4715910000000 1.0
C      1  0.5386660000000  0.5508940000000  0.4915730000000 1.0
C      1  0.5386660000000  0.5327450000000  0.5398620000000 1.0
C      1  0.5386660000000  0.4818510000000  0.5482890000000 1.0
C      1  0.5386660000000  0.4491060000000  0.5084270000000 1.0
C      1  0.5386660000000  0.4672550000000  0.4601380000000 1.0
C      1  0.5386660000000  0.5181490000000  0.4517110000000 1.0
C      1  0.4514080000000  0.5380800000000  0.4687190000000 1.0
C      1  0.4514080000000  0.5461310000000  0.5173380000000 1.0
C      1  0.4514080000000  0.5080510000000  0.5486190000000 1.0
C      1  0.4514080000000  0.4619200000000  0.5312810000000 1.0
C      1  0.4514080000000  0.4538690000000  0.4826620000000 1.0
C      1  0.4514080000000  0.4919490000000  0.4513810000000 1.0
C      1  0.5222240000000  0.5398730000000  0.4672460000000 1.0
C      1  0.5222240000000  0.5483030000000  0.5181540000000 1.0
C      1  0.5222240000000  0.5084300000000  0.5509080000000 1.0
C      1  0.5222240000000  0.4601270000000  0.5327540000000 1.0
C      1  0.5222240000000  0.4516970000000  0.4818460000000 1.0
C      1  0.5222240000000  0.4915700000000  0.4490920000000 1.0
C      1  0.4583000000000  0.5346440000000  0.5421730000000 1.0
C      1  0.4583000000000  0.4807990000000  0.5510890000000 1.0
C      1  0.4583000000000  0.4461550000000  0.5089160000000 1.0
C      1  0.4583000000000  0.4653560000000  0.4578270000000 1.0
C      1  0.4583000000000  0.5192010000000  0.4489110000000 1.0
C      1  0.4583000000000  0.5538450000000  0.4910840000000 1.0
C      1  0.4768990000000  0.4509160000000  0.4402490000000 1.0
C      1  0.4768990000000  0.5272040000000  0.4276170000000 1.0
C      1  0.4768990000000  0.5762880000000  0.4873680000000 1.0
C      1  0.4768990000000  0.5490840000000  0.5597510000000 1.0
C      1  0.4768990000000  0.4727960000000  0.5723830000000 1.0
C      1  0.4768990000000  0.4237120000000  0.5126320000000 1.0
C      1  0.4915630000000  0.4214860000000  0.5358310000000 1.0
C      1  0.4915630000000  0.4297130000000  0.4499210000000 1.0
C      1  0.4915630000000  0.5082260000000  0.4140900000000 1.0
C      1  0.4915630000000  0.5785140000000  0.4641690000000 1.0
C      1  0.4915630000000  0.5702870000000  0.5500790000000 1.0
C      1  0.4915630000000  0.4917740000000  0.5859100000000 1.0
C      1  0.4915630000000  0.5354790000000  0.5786730000000 1.0
C      1  0.4915630000000  0.4496060000000  0.5700620000000 1.0
C      1  0.4915630000000  0.4141270000000  0.4913890000000 1.0
C      1  0.4915630000000  0.4645210000000  0.4213270000000 1.0
C      1  0.4915630000000  0.5503940000000  0.4299380000000 1.0
C      1  0.4915630000000  0.5858730000000  0.5086110000000 1.0
C      1  0.5020430000000  0.4726820000000  0.4897330000000 1.0
C      1  0.5020430000000  0.4952330000000  0.4712080000000 1.0
C      1  0.5020430000000  0.5225510000000  0.4814750000000 1.0
C      1  0.5020430000000  0.5273180000000  0.5102670000000 1.0
C      1  0.5020430000000  0.5047670000000  0.5287920000000 1.0
C      1  0.5020430000000  0.4774490000000  0.5185250000000 1.0
C      1  0.5073610000000  0.5734780000000  0.5276160000000 1.0
C      1  0.5073610000000  0.5128230000000  0.5774410000000 1.0
C      1  0.5073610000000  0.4393450000000  0.5498260000000 1.0
C      1  0.5073610000000  0.4265220000000  0.4723840000000 1.0
C      1  0.5073610000000  0.4871770000000  0.4225590000000 1.0
C      1  0.5073610000000  0.5606550000000  0.4501740000000 1.0
END
