TITL C-38185-7677-584 8.65818337985021e-05 125000 -359.372175484889 0 0 60 (C2) n - 1
REM
REM in /home/bkarasulu/CARBON/AIRSS/Generating-Clusters/EDIP-Nigel-Params/Higher-Symm/Box-15A/Only-C60/SD-CG/FIRE-HFTN
REM
REM
REM
REM
REM
REM ./C.cell (414f73aa93bd7a1190c7fd0f31ff2f98)
REM
REM compiler GCC version 9.2.1 20190827 (Red Hat 9.2.1-1)
REM options -cpp -mtune=generic -march=x86-64 -g -O0 -fpre-include=/usr/include/finclude/math-vector-fortran.h
REM seed 733006836 1193672444 -554515883 1971949735 -630201565 372679514 -2064754939 1723485376 1820664367 948967972 1421038472 1810579115 748462388 -1217720860 475281726 -2031035808 771862144 1612281112 450780431 -1559082317 -694042480 97488722 1538821524 -71975488 2133659733 1955287191 962942482 604862933 1724479175 513466495 1364309523 -938024776 2133619507
REM
CELL 1.54180   50.00000   50.00000   50.00000   90.00000   90.00000   90.00000
LATT -1
SFAC C  
C      1  0.5495070000000  0.4749550000000  0.4259280000000 1.0
C      1  0.4504930000000  0.4749550000000  0.5740720000000 1.0
C      1  0.4500100000000  0.5247270000000  0.4254780000000 1.0
C      1  0.5499900000000  0.5247270000000  0.5745220000000 1.0
C      1  0.4631040000000  0.5248480000000  0.5543390000000 1.0
C      1  0.5368960000000  0.5248480000000  0.4456610000000 1.0
C      1  0.5368250000000  0.4752540000000  0.5539900000000 1.0
C      1  0.4631750000000  0.4752540000000  0.4460100000000 1.0
C      1  0.4373710000000  0.5103950000000  0.5408330000000 1.0
C      1  0.5626290000000  0.5103950000000  0.4591670000000 1.0
C      1  0.5628120000000  0.4896660000000  0.5408280000000 1.0
C      1  0.4371880000000  0.4896660000000  0.4591720000000 1.0
C      1  0.4522350000000  0.5297510000000  0.4703800000000 1.0
C      1  0.5477650000000  0.5297510000000  0.5296200000000 1.0
C      1  0.5479620000000  0.4703040000000  0.4708250000000 1.0
C      1  0.4520380000000  0.4703040000000  0.5291750000000 1.0
C      1  0.5225180000000  0.4348080000000  0.4928900000000 1.0
C      1  0.4774820000000  0.4348080000000  0.5071100000000 1.0
C      1  0.4781650000000  0.5649160000000  0.4923380000000 1.0
C      1  0.5218350000000  0.5649160000000  0.5076620000000 1.0
C      1  0.5189330000000  0.4676830000000  0.4632030000000 1.0
C      1  0.4810670000000  0.4676830000000  0.5367970000000 1.0
C      1  0.4810350000000  0.5323870000000  0.4621400000000 1.0
C      1  0.5189650000000  0.5323870000000  0.5378600000000 1.0
C      1  0.5639640000000  0.5183030000000  0.5505660000000 1.0
C      1  0.4360360000000  0.5183030000000  0.4494340000000 1.0
C      1  0.4361500000000  0.4816850000000  0.5504270000000 1.0
C      1  0.5638500000000  0.4816850000000  0.4495730000000 1.0
C      1  0.5305670000000  0.4744770000000  0.5247890000000 1.0
C      1  0.4694330000000  0.4744770000000  0.4752110000000 1.0
C      1  0.4697930000000  0.5256630000000  0.5252410000000 1.0
C      1  0.5302070000000  0.5256630000000  0.4747590000000 1.0
C      1  0.5386630000000  0.5515520000000  0.4892040000000 1.0
C      1  0.4613370000000  0.5515520000000  0.5107960000000 1.0
C      1  0.4605860000000  0.4485220000000  0.4890400000000 1.0
C      1  0.5394140000000  0.4485220000000  0.5109600000000 1.0
C      1  0.4868080000000  0.4392860000000  0.5326300000000 1.0
C      1  0.5131920000000  0.4392860000000  0.4673700000000 1.0
C      1  0.5131540000000  0.5607770000000  0.5335180000000 1.0
C      1  0.4868460000000  0.5607770000000  0.4664820000000 1.0
C      1  0.5227270000000  0.5211500000000  0.5666910000000 1.0
C      1  0.4772730000000  0.5211500000000  0.4333090000000 1.0
C      1  0.4776300000000  0.4787510000000  0.5658490000000 1.0
C      1  0.5223700000000  0.4787510000000  0.4341510000000 1.0
C      1  0.5197150000000  0.4927350000000  0.5682960000000 1.0
C      1  0.4802850000000  0.4927350000000  0.4317040000000 1.0
C      1  0.4805140000000  0.5071930000000  0.5681420000000 1.0
C      1  0.5194860000000  0.5071930000000  0.4318580000000 1.0
C      1  0.5686360000000  0.5120280000000  0.4905320000000 1.0
C      1  0.4313640000000  0.5120280000000  0.5094680000000 1.0
C      1  0.4307320000000  0.4880300000000  0.4905120000000 1.0
C      1  0.5692680000000  0.4880300000000  0.5094880000000 1.0
C      1  0.4982850000000  0.4843800000000  0.4822750000000 1.0
C      1  0.5017150000000  0.4843800000000  0.5177250000000 1.0
C      1  0.5013200000000  0.5159010000000  0.4804430000000 1.0
C      1  0.4986800000000  0.5159010000000  0.5195570000000 1.0
C      1  0.5610360000000  0.4628790000000  0.4960380000000 1.0
C      1  0.4389640000000  0.4628790000000  0.5039620000000 1.0
C      1  0.4398110000000  0.5369940000000  0.4959630000000 1.0
C      1  0.5601890000000  0.5369940000000  0.5040370000000 1.0
END
