TITL C-38187-2739-169 -2.81217344349922e-06 125000 -368.995603733794 0 0 60 (C1) n - 1
REM
REM in /home/bkarasulu/CARBON/AIRSS/Generating-Clusters/EDIP-Nigel-Params/Higher-Symm/Box-15A/Only-C60/SD-CG/FIRE-HFTN
REM
REM
REM
REM
REM
REM ./C.cell (414f73aa93bd7a1190c7fd0f31ff2f98)
REM
REM compiler GCC version 9.2.1 20190827 (Red Hat 9.2.1-1)
REM options -cpp -mtune=generic -march=x86-64 -g -O0 -fpre-include=/usr/include/finclude/math-vector-fortran.h
REM seed -1139644800 -276633610 1377639780 671872456 -505516700 -957731219 1419158044 863125430 1752778964 -370357018 938527468 -186514241 -2028323206 1682116532 -1558022961 -1626121193 1940169414 -604331125 -1435419900 1600584773 248846064 -1981615204 553220020 -949663240 -677767388 -473530428 923549230 1579501161 -1136624241 406145993 934132609 -924198236 2021752936
REM
CELL 1.54180   50.00000   50.00000   50.00000   90.00000   90.00000   90.00000
LATT -1
SFAC C  
C      1  0.5364700000000  0.4634030000000  0.5377890000000 1.0
C      1  0.5143170000000  0.4635480000000  0.4470340000000 1.0
C      1  0.4467590000000  0.4610610000000  0.5151200000000 1.0
C      1  0.5539800000000  0.4853370000000  0.4698950000000 1.0
C      1  0.4430730000000  0.4840850000000  0.4687830000000 1.0
C      1  0.4952000000000  0.4868980000000  0.5590840000000 1.0
C      1  0.5503440000000  0.5543690000000  0.4951490000000 1.0
C      1  0.4746490000000  0.5526370000000  0.4598810000000 1.0
C      1  0.4782840000000  0.5529390000000  0.5441920000000 1.0
C      1  0.4674050000000  0.5261210000000  0.4457930000000 1.0
C      1  0.4669960000000  0.5288250000000  0.5584380000000 1.0
C      1  0.5652730000000  0.5281760000000  0.4978150000000 1.0
C      1  0.4905770000000  0.5255770000000  0.4920600000000 1.0
C      1  0.4960680000000  0.5201320000000  0.5201750000000 1.0
C      1  0.5180850000000  0.5266770000000  0.4826340000000 1.0
C      1  0.4768650000000  0.4599900000000  0.5558700000000 1.0
C      1  0.5566710000000  0.4634420000000  0.4913240000000 1.0
C      1  0.4645000000000  0.4640130000000  0.4584200000000 1.0
C      1  0.4535620000000  0.5024450000000  0.5375190000000 1.0
C      1  0.5541800000000  0.5053760000000  0.5262490000000 1.0
C      1  0.4929330000000  0.5047200000000  0.4431140000000 1.0
C      1  0.4924750000000  0.4751580000000  0.4833250000000 1.0
C      1  0.4893890000000  0.4714040000000  0.5147470000000 1.0
C      1  0.5213910000000  0.4775830000000  0.4990020000000 1.0
C      1  0.5327490000000  0.5070710000000  0.5011160000000 1.0
C      1  0.4825320000000  0.5023130000000  0.4741250000000 1.0
C      1  0.4842310000000  0.4963640000000  0.5312760000000 1.0
C      1  0.4907820000000  0.5151910000000  0.5714230000000 1.0
C      1  0.5641990000000  0.5135050000000  0.4710510000000 1.0
C      1  0.4431450000000  0.5140670000000  0.4619930000000 1.0
C      1  0.5164940000000  0.5288920000000  0.5607720000000 1.0
C      1  0.5482700000000  0.5299590000000  0.4506160000000 1.0
C      1  0.4429210000000  0.5287700000000  0.4885050000000 1.0
C      1  0.5585610000000  0.4746770000000  0.5214270000000 1.0
C      1  0.4874690000000  0.4745790000000  0.4395280000000 1.0
C      1  0.4506510000000  0.4700820000000  0.5438300000000 1.0
C      1  0.4695550000000  0.4388640000000  0.4752080000000 1.0
C      1  0.4908740000000  0.4393240000000  0.5371360000000 1.0
C      1  0.5376790000000  0.4394480000000  0.4863220000000 1.0
C      1  0.4620260000000  0.4388750000000  0.5036780000000 1.0
C      1  0.5194310000000  0.4429030000000  0.5265760000000 1.0
C      1  0.5156280000000  0.4417090000000  0.4666810000000 1.0
C      1  0.5353490000000  0.4839310000000  0.4476080000000 1.0
C      1  0.4367340000000  0.4824510000000  0.4976690000000 1.0
C      1  0.5248300000000  0.4825150000000  0.5565320000000 1.0
C      1  0.4387440000000  0.5084990000000  0.5106460000000 1.0
C      1  0.5379730000000  0.5083060000000  0.5534870000000 1.0
C      1  0.5294410000000  0.5106430000000  0.4375310000000 1.0
C      1  0.4649040000000  0.5655630000000  0.5215090000000 1.0
C      1  0.5322390000000  0.5619330000000  0.5169310000000 1.0
C      1  0.5011430000000  0.5648860000000  0.4573220000000 1.0
C      1  0.4930450000000  0.4249840000000  0.4684100000000 1.0
C      1  0.4738710000000  0.4212330000000  0.5221210000000 1.0
C      1  0.5312690000000  0.4243400000000  0.5090740000000 1.0
C      1  0.5058800000000  0.5429440000000  0.5363340000000 1.0
C      1  0.5328120000000  0.5489910000000  0.4700490000000 1.0
C      1  0.4677680000000  0.5464890000000  0.4891470000000 1.0
C      1  0.4813130000000  0.5836660000000  0.5070660000000 1.0
C      1  0.5086940000000  0.5748460000000  0.5056440000000 1.0
C      1  0.5073530000000  0.5832740000000  0.4782450000000 1.0
END
