TITL C-38186-4112-42 1.78611133105342e-05 125000 -383.012713878732 0 0 60 (Td) n - 1
REM
REM in /home/bkarasulu/CARBON/AIRSS/Generating-Clusters/EDIP-Nigel-Params/Higher-Symm/Box-15A/Only-C60/SD-CG/FIRE-HFTN
REM
REM
REM
REM
REM
REM ./C.cell (414f73aa93bd7a1190c7fd0f31ff2f98)
REM
REM compiler GCC version 9.2.1 20190827 (Red Hat 9.2.1-1)
REM options -cpp -mtune=generic -march=x86-64 -g -O0 -fpre-include=/usr/include/finclude/math-vector-fortran.h
REM seed 895951267 -1744482615 -1195619535 738609427 454566718 -1068357444 -1463240933 1580991890 1467135021 1035795723 -1590437120 -1957976358 -270907452 -1716424156 -120527137 -1642064337 -152922906 163623151 -14761505 510980805 1639830556 -1086153282 940386414 -1866849293 -428109746 -1238075713 1204898728 -274410376 -1908892607 -983840270 -1234911613 -2091154305 -599338671
REM
CELL 1.54180   50.00000   50.00000   50.00000   90.00000   90.00000   90.00000
LATT -1
SFAC C  
C      1  0.5365260000000  0.5775120000000  0.4981510000000 1.0
C      1  0.5775120000000  0.4981510000000  0.5365260000000 1.0
C      1  0.4981510000000  0.5365260000000  0.5775120000000 1.0
C      1  0.4634740000000  0.4224880000000  0.4981510000000 1.0
C      1  0.5365260000000  0.4224880000000  0.5018490000000 1.0
C      1  0.4634740000000  0.5775120000000  0.5018490000000 1.0
C      1  0.4224880000000  0.5018490000000  0.5365260000000 1.0
C      1  0.5775120000000  0.5018490000000  0.4634740000000 1.0
C      1  0.4224880000000  0.4981510000000  0.4634740000000 1.0
C      1  0.5018490000000  0.4634740000000  0.5775120000000 1.0
C      1  0.4981510000000  0.4634740000000  0.4224880000000 1.0
C      1  0.5018490000000  0.5365260000000  0.4224880000000 1.0
C      1  0.5775120000000  0.5365260000000  0.4981510000000 1.0
C      1  0.4981510000000  0.5775120000000  0.5365260000000 1.0
C      1  0.5365260000000  0.4981510000000  0.5775120000000 1.0
C      1  0.4224880000000  0.4634740000000  0.4981510000000 1.0
C      1  0.4224880000000  0.5365260000000  0.5018490000000 1.0
C      1  0.5775120000000  0.4634740000000  0.5018490000000 1.0
C      1  0.5018490000000  0.4224880000000  0.5365260000000 1.0
C      1  0.5018490000000  0.5775120000000  0.4634740000000 1.0
C      1  0.4981510000000  0.4224880000000  0.4634740000000 1.0
C      1  0.4634740000000  0.5018490000000  0.5775120000000 1.0
C      1  0.4634740000000  0.4981510000000  0.4224880000000 1.0
C      1  0.5365260000000  0.5018490000000  0.4224880000000 1.0
C      1  0.5398800000000  0.5600710000000  0.5196520000000 1.0
C      1  0.5600710000000  0.5196520000000  0.5398800000000 1.0
C      1  0.5196520000000  0.5398800000000  0.5600710000000 1.0
C      1  0.4601200000000  0.4399290000000  0.5196520000000 1.0
C      1  0.5398800000000  0.4399290000000  0.4803480000000 1.0
C      1  0.4601200000000  0.5600710000000  0.4803480000000 1.0
C      1  0.4399290000000  0.4803480000000  0.5398800000000 1.0
C      1  0.5600710000000  0.4803480000000  0.4601200000000 1.0
C      1  0.4399290000000  0.5196520000000  0.4601200000000 1.0
C      1  0.4803480000000  0.4601200000000  0.5600710000000 1.0
C      1  0.5196520000000  0.4601200000000  0.4399290000000 1.0
C      1  0.4803480000000  0.5398800000000  0.4399290000000 1.0
C      1  0.5600710000000  0.5398800000000  0.5196520000000 1.0
C      1  0.5196520000000  0.5600710000000  0.5398800000000 1.0
C      1  0.5398800000000  0.5196520000000  0.5600710000000 1.0
C      1  0.4399290000000  0.4601200000000  0.5196520000000 1.0
C      1  0.4399290000000  0.5398800000000  0.4803480000000 1.0
C      1  0.5600710000000  0.4601200000000  0.4803480000000 1.0
C      1  0.4803480000000  0.4399290000000  0.5398800000000 1.0
C      1  0.4803480000000  0.5600710000000  0.4601200000000 1.0
C      1  0.5196520000000  0.4399290000000  0.4601200000000 1.0
C      1  0.4601200000000  0.4803480000000  0.5600710000000 1.0
C      1  0.4601200000000  0.5196520000000  0.4399290000000 1.0
C      1  0.5398800000000  0.4803480000000  0.4399290000000 1.0
C      1  0.5816770000000  0.4898240000000  0.5101760000000 1.0
C      1  0.4898240000000  0.5101760000000  0.5816770000000 1.0
C      1  0.5101760000000  0.5816770000000  0.4898240000000 1.0
C      1  0.4183230000000  0.5101760000000  0.5101760000000 1.0
C      1  0.5816770000000  0.5101760000000  0.4898240000000 1.0
C      1  0.4183230000000  0.4898240000000  0.4898240000000 1.0
C      1  0.5101760000000  0.4898240000000  0.5816770000000 1.0
C      1  0.4898240000000  0.4898240000000  0.4183230000000 1.0
C      1  0.5101760000000  0.5101760000000  0.4183230000000 1.0
C      1  0.4898240000000  0.4183230000000  0.4898240000000 1.0
C      1  0.5101760000000  0.4183230000000  0.5101760000000 1.0
C      1  0.4898240000000  0.5816770000000  0.5101760000000 1.0
END
