TITL C-38195-9455-535 4.49319603202727e-07 125000 -372.336689117732 0 0 60 (C3) n - 1
REM
REM in /home/bkarasulu/CARBON/AIRSS/Generating-Clusters/EDIP-Nigel-Params/Higher-Symm/Box-15A/Only-C60/SD-CG/FIRE-HFTN
REM
REM
REM
REM
REM
REM ./C.cell (414f73aa93bd7a1190c7fd0f31ff2f98)
REM
REM compiler GCC version 9.2.1 20190827 (Red Hat 9.2.1-1)
REM options -cpp -mtune=generic -march=x86-64 -g -O0 -fpre-include=/usr/include/finclude/math-vector-fortran.h
REM seed 1197328687 -352582049 703359294 1424606465 -1013907787 -802676097 -1424167942 -2146009186 -1387150829 83056740 1344563266 685978574 1475236276 -127587500 522078035 -1497162356 613630524 -775212541 -1307021242 -1653352041 -1348017300 -1259126200 -1111658232 18838853 -1440954989 2026462240 -374435533 119015811 1021676247 -1309586472 2122152696 -85150610 1439693603
REM
CELL 1.54180   50.00000   50.00000   50.00000   90.00000   90.00000   90.00000
LATT -1
SFAC C  
C      1  0.5490690000000  0.4325450000000  0.5045800000000 1.0
C      1  0.4716750000000  0.4325440000000  0.5389540000000 1.0
C      1  0.4806030000000  0.4325450000000  0.4547420000000 1.0
C      1  0.4366850000000  0.5461270000000  0.4821850000000 1.0
C      1  0.5472590000000  0.5461300000000  0.4528270000000 1.0
C      1  0.5173970000000  0.5461280000000  0.5632660000000 1.0
C      1  0.4366450000000  0.4733690000000  0.4873020000000 1.0
C      1  0.5428490000000  0.4733710000000  0.4502320000000 1.0
C      1  0.5218500000000  0.4733700000000  0.5607420000000 1.0
C      1  0.5051600000000  0.4491160000000  0.5630740000000 1.0
C      1  0.4429710000000  0.4491150000000  0.4716810000000 1.0
C      1  0.5532140000000  0.4491170000000  0.4635210000000 1.0
C      1  0.4572090000000  0.4470750000000  0.4472420000000 1.0
C      1  0.5672600000000  0.4470760000000  0.4880710000000 1.0
C      1  0.4768760000000  0.4470740000000  0.5629630000000 1.0
C      1  0.5475190000000  0.5553000000000  0.5217530000000 1.0
C      1  0.4575750000000  0.5552990000000  0.5290280000000 1.0
C      1  0.4962460000000  0.5553000000000  0.4474970000000 1.0
C      1  0.5064460000000  0.5805140000000  0.4494170000000 1.0
C      1  0.5407560000000  0.5805140000000  0.5296270000000 1.0
C      1  0.4541370000000  0.5805130000000  0.5192350000000 1.0
C      1  0.5402820000000  0.5613970000000  0.4757820000000 1.0
C      1  0.5010060000000  0.5613960000000  0.5457470000000 1.0
C      1  0.4600520000000  0.5613960000000  0.4767500000000 1.0
C      1  0.5280340000000  0.4180380000000  0.4894030000000 1.0
C      1  0.4953360000000  0.4180370000000  0.5283250000000 1.0
C      1  0.4779770000000  0.4180370000000  0.4805460000000 1.0
C      1  0.4434840000000  0.4876490000000  0.5344690000000 1.0
C      1  0.4985810000000  0.4876510000000  0.4325720000000 1.0
C      1  0.5592780000000  0.4876510000000  0.5312360000000 1.0
C      1  0.4400870000000  0.4678790000000  0.5156010000000 1.0
C      1  0.5166200000000  0.4678810000000  0.4390630000000 1.0
C      1  0.5446370000000  0.4678800000000  0.5436120000000 1.0
C      1  0.4282930000000  0.4979450000000  0.4771840000000 1.0
C      1  0.5557870000000  0.4979470000000  0.4480590000000 1.0
C      1  0.5172630000000  0.4979450000000  0.5730340000000 1.0
C      1  0.5452880000000  0.5178440000000  0.4907740000000 1.0
C      1  0.4855200000000  0.5178430000000  0.5425840000000 1.0
C      1  0.4705350000000  0.5178430000000  0.4649190000000 1.0
C      1  0.5170960000000  0.4296370000000  0.5444040000000 1.0
C      1  0.4531720000000  0.4296360000000  0.4913520000000 1.0
C      1  0.5310780000000  0.4296380000000  0.4625190000000 1.0
C      1  0.4424950000000  0.5209550000000  0.4707010000000 1.0
C      1  0.5543000000000  0.5209570000000  0.4636000000000 1.0
C      1  0.5045470000000  0.5209560000000  0.5639770000000 1.0
C      1  0.5126380000000  0.5817500000000  0.5276260000000 1.0
C      1  0.4699290000000  0.5817500000000  0.4958850000000 1.0
C      1  0.5187720000000  0.5817510000000  0.4747680000000 1.0
C      1  0.4830750000000  0.5439010000000  0.4706420000000 1.0
C      1  0.5340610000000  0.5439020000000  0.4987730000000 1.0
C      1  0.4842050000000  0.5439010000000  0.5288630000000 1.0
C      1  0.4798430000000  0.5025350000000  0.4440820000000 1.0
C      1  0.5586780000000  0.5025360000000  0.5092530000000 1.0
C      1  0.4628210000000  0.5025340000000  0.5449410000000 1.0
C      1  0.5380370000000  0.4436050000000  0.5294140000000 1.0
C      1  0.4556830000000  0.4436040000000  0.5169830000000 1.0
C      1  0.5076260000000  0.4436050000000  0.4518780000000 1.0
C      1  0.5004490000000  0.4208930000000  0.4994250000000 1.0
C      1  0.5004460000000  0.5768440000000  0.4994260000000 1.0
C      1  0.5004470000000  0.5455960000000  0.4994260000000 1.0
END
