TITL C-38184-643-16 3.45480074536533e-06 125000 -363.771093813461 0 0 60 (S4) n - 1
REM
REM in /home/bkarasulu/CARBON/AIRSS/Generating-Clusters/EDIP-Nigel-Params/Higher-Symm/Box-15A/Only-C60/SD-CG/FIRE-HFTN
REM
REM
REM
REM
REM
REM ./C.cell (414f73aa93bd7a1190c7fd0f31ff2f98)
REM
REM compiler GCC version 9.2.1 20190827 (Red Hat 9.2.1-1)
REM options -cpp -mtune=generic -march=x86-64 -g -O0 -fpre-include=/usr/include/finclude/math-vector-fortran.h
REM seed -1563117779 -400101536 -910243013 -1821297085 -1629168462 1855859397 286706296 -1977929362 -517218849 -1840620819 1138854200 358548173 1777197964 451215411 -1925853419 1724514384 -65694621 -1105565673 1008390002 -1979638767 334308493 -1003332168 -55975869 -736510462 -861741388 -1174707646 -59929208 -192125203 -1668356527 630966663 2085571431 1660738622 2040120331
REM
CELL 1.54180   50.00000   50.00000   50.00000   90.00000   90.00000   90.00000
LATT -1
SFAC C  
C      1  0.4590430000000  0.4484440000000  0.5099960000000 1.0
C      1  0.4566520000000  0.4894060000000  0.4455780000000 1.0
C      1  0.4590420000000  0.5515550000000  0.4900030000000 1.0
C      1  0.4566510000000  0.5105920000000  0.5544210000000 1.0
C      1  0.5441050000000  0.4455790000000  0.5105930000000 1.0
C      1  0.5417140000000  0.4900040000000  0.4484450000000 1.0
C      1  0.5441040000000  0.5544220000000  0.4894070000000 1.0
C      1  0.5417120000000  0.5099970000000  0.5515560000000 1.0
C      1  0.4616140000000  0.5378860000000  0.4423020000000 1.0
C      1  0.4642410000000  0.5572340000000  0.5385850000000 1.0
C      1  0.4616140000000  0.4621130000000  0.5576980000000 1.0
C      1  0.4642430000000  0.4427650000000  0.4614140000000 1.0
C      1  0.5365140000000  0.5385860000000  0.4427660000000 1.0
C      1  0.5391400000000  0.5576990000000  0.5378870000000 1.0
C      1  0.5365130000000  0.4614150000000  0.5572350000000 1.0
C      1  0.5391430000000  0.4423020000000  0.4621140000000 1.0
C      1  0.5673470000000  0.4636360000000  0.5066210000000 1.0
C      1  0.5661390000000  0.4935790000000  0.4644920000000 1.0
C      1  0.5673460000000  0.5363650000000  0.4933800000000 1.0
C      1  0.5661380000000  0.5064230000000  0.5355090000000 1.0
C      1  0.4346170000000  0.4644910000000  0.5064210000000 1.0
C      1  0.4334090000000  0.4933790000000  0.4636350000000 1.0
C      1  0.4346170000000  0.5355080000000  0.4935770000000 1.0
C      1  0.4334080000000  0.5066190000000  0.5363640000000 1.0
C      1  0.4269520000000  0.5192340000000  0.4721320000000 1.0
C      1  0.4270110000000  0.5278970000000  0.5193160000000 1.0
C      1  0.4269520000000  0.4807650000000  0.5278670000000 1.0
C      1  0.4270120000000  0.4721010000000  0.4806820000000 1.0
C      1  0.5737440000000  0.5193180000000  0.4721030000000 1.0
C      1  0.5738030000000  0.5278680000000  0.5192350000000 1.0
C      1  0.5737440000000  0.4806840000000  0.5278980000000 1.0
C      1  0.5738040000000  0.4721330000000  0.4807660000000 1.0
C      1  0.5291390000000  0.5651840000000  0.5125600000000 1.0
C      1  0.5261200000000  0.4872680000000  0.5620220000000 1.0
C      1  0.5291410000000  0.4348160000000  0.4874400000000 1.0
C      1  0.5261200000000  0.5127330000000  0.4379790000000 1.0
C      1  0.4746350000000  0.5620210000000  0.5127320000000 1.0
C      1  0.4716160000000  0.4874400000000  0.5651840000000 1.0
C      1  0.4746360000000  0.4379780000000  0.4872670000000 1.0
C      1  0.4716160000000  0.5125600000000  0.4348160000000 1.0
C      1  0.5147580000000  0.4818790000000  0.4825270000000 1.0
C      1  0.5170560000000  0.5196270000000  0.4842670000000 1.0
C      1  0.5147580000000  0.5181210000000  0.5174730000000 1.0
C      1  0.5170560000000  0.4803740000000  0.5157330000000 1.0
C      1  0.4837000000000  0.4842670000000  0.4803730000000 1.0
C      1  0.4859980000000  0.5174730000000  0.4818790000000 1.0
C      1  0.4836990000000  0.5157330000000  0.5196260000000 1.0
C      1  0.4859980000000  0.4825270000000  0.5181210000000 1.0
C      1  0.5258430000000  0.5331410000000  0.5429250000000 1.0
C      1  0.5260310000000  0.4551170000000  0.5316180000000 1.0
C      1  0.5258450000000  0.4668590000000  0.4570750000000 1.0
C      1  0.5260300000000  0.5448840000000  0.4683820000000 1.0
C      1  0.4747240000000  0.5316170000000  0.5448830000000 1.0
C      1  0.4749120000000  0.4570750000000  0.5331410000000 1.0
C      1  0.4747260000000  0.4683820000000  0.4551160000000 1.0
C      1  0.4749110000000  0.5429250000000  0.4668590000000 1.0
C      1  0.5014680000000  0.5699230000000  0.5094480000000 1.0
C      1  0.5014700000000  0.4300770000000  0.4905520000000 1.0
C      1  0.4992860000000  0.4905520000000  0.5699230000000 1.0
C      1  0.4992870000000  0.5094480000000  0.4300770000000 1.0
END
