TITL C-38189-4514-593 2.5211680957263e-06 125000 -345.099018578347 0 0 60 (C1) n - 1
REM
REM in /home/bkarasulu/CARBON/AIRSS/Generating-Clusters/EDIP-Nigel-Params/Higher-Symm/Box-15A/Only-C60/SD-CG/FIRE-HFTN
REM
REM
REM
REM
REM
REM ./C.cell (414f73aa93bd7a1190c7fd0f31ff2f98)
REM
REM compiler GCC version 9.2.1 20190827 (Red Hat 9.2.1-1)
REM options -cpp -mtune=generic -march=x86-64 -g -O0 -fpre-include=/usr/include/finclude/math-vector-fortran.h
REM seed 1494320844 -370369537 1103965759 -1358121859 392935769 -1086804194 1563058254 -831590392 -147681304 721977983 -1053924688 -301742877 1221684558 -1824337618 1993234857 -667994450 -777464821 -1804473017 601843122 -1747311828 1959576698 -1471548191 -242691384 -1806736960 -565745469 -1229364358 902097198 -792889950 -485076847 728172840 693693856 -854674585 2010931462
REM
CELL 1.54180   50.00000   50.00000   50.00000   90.00000   90.00000   90.00000
LATT -1
SFAC C  
C      1  0.4720700000000  0.5068000000000  0.5594170000000 1.0
C      1  0.5054040000000  0.5611030000000  0.4728610000000 1.0
C      1  0.5607470000000  0.4716570000000  0.5076330000000 1.0
C      1  0.5263400000000  0.5062340000000  0.4390190000000 1.0
C      1  0.5281770000000  0.4934110000000  0.5592140000000 1.0
C      1  0.4710530000000  0.4922330000000  0.4410250000000 1.0
C      1  0.4932340000000  0.5601890000000  0.5289450000000 1.0
C      1  0.4936470000000  0.4399650000000  0.4723040000000 1.0
C      1  0.5084360000000  0.4405250000000  0.5275450000000 1.0
C      1  0.4391840000000  0.4728060000000  0.4938040000000 1.0
C      1  0.4406130000000  0.5285400000000  0.5073370000000 1.0
C      1  0.5605300000000  0.5268410000000  0.4939630000000 1.0
C      1  0.5605300000000  0.5059370000000  0.4730250000000 1.0
C      1  0.4718880000000  0.5600930000000  0.5082310000000 1.0
C      1  0.5073140000000  0.4722110000000  0.5587410000000 1.0
C      1  0.4404040000000  0.5074060000000  0.5282420000000 1.0
C      1  0.5605280000000  0.4926520000000  0.5287470000000 1.0
C      1  0.4398570000000  0.4936300000000  0.4726480000000 1.0
C      1  0.5267260000000  0.5609170000000  0.4934220000000 1.0
C      1  0.4731460000000  0.4390240000000  0.4937700000000 1.0
C      1  0.5292050000000  0.4404300000000  0.5062710000000 1.0
C      1  0.4922680000000  0.4713350000000  0.4408480000000 1.0
C      1  0.5051320000000  0.5269630000000  0.4389930000000 1.0
C      1  0.4929690000000  0.5280150000000  0.5596140000000 1.0
C      1  0.5090240000000  0.4712440000000  0.4180670000000 1.0
C      1  0.4715750000000  0.4156540000000  0.5098390000000 1.0
C      1  0.4169240000000  0.5101940000000  0.4697780000000 1.0
C      1  0.4896010000000  0.4721780000000  0.5807460000000 1.0
C      1  0.4885470000000  0.5289830000000  0.4160360000000 1.0
C      1  0.5088040000000  0.5304490000000  0.5831240000000 1.0
C      1  0.5286980000000  0.4183610000000  0.4886320000000 1.0
C      1  0.5298330000000  0.5840810000000  0.5095390000000 1.0
C      1  0.4713490000000  0.5826840000000  0.4912260000000 1.0
C      1  0.5839740000000  0.5085710000000  0.5314240000000 1.0
C      1  0.5826110000000  0.4883760000000  0.4729450000000 1.0
C      1  0.4177080000000  0.4905520000000  0.5282400000000 1.0
C      1  0.4158030000000  0.4707610000000  0.5097980000000 1.0
C      1  0.5100960000000  0.4170140000000  0.4689590000000 1.0
C      1  0.4703760000000  0.5089620000000  0.4182310000000 1.0
C      1  0.5843830000000  0.4691050000000  0.4919590000000 1.0
C      1  0.4185450000000  0.5285190000000  0.4896930000000 1.0
C      1  0.5825560000000  0.5270290000000  0.5115960000000 1.0
C      1  0.4915920000000  0.4178270000000  0.5280110000000 1.0
C      1  0.5105070000000  0.5825680000000  0.5285070000000 1.0
C      1  0.4890950000000  0.5842460000000  0.4707730000000 1.0
C      1  0.5273940000000  0.5107700000000  0.5814890000000 1.0
C      1  0.4696960000000  0.4905020000000  0.5826160000000 1.0
C      1  0.5287180000000  0.4897850000000  0.4160040000000 1.0
C      1  0.5347870000000  0.4667810000000  0.4934140000000 1.0
C      1  0.4664310000000  0.4935640000000  0.5332080000000 1.0
C      1  0.4929670000000  0.5348290000000  0.4653280000000 1.0
C      1  0.5341460000000  0.4939560000000  0.4653160000000 1.0
C      1  0.4663490000000  0.5062960000000  0.4669890000000 1.0
C      1  0.5066670000000  0.5339890000000  0.5336660000000 1.0
C      1  0.5063470000000  0.4665080000000  0.4667280000000 1.0
C      1  0.4946140000000  0.4665780000000  0.5323520000000 1.0
C      1  0.4652940000000  0.4650430000000  0.5065620000000 1.0
C      1  0.4670130000000  0.5339380000000  0.4945330000000 1.0
C      1  0.5344300000000  0.5066040000000  0.5331820000000 1.0
C      1  0.5341460000000  0.5345830000000  0.5058720000000 1.0
END
