TITL C-38186-4112-166 0.000314395550640788 125000 -361.907787567454 0 0 60 (C1) n - 1
REM
REM in /home/bkarasulu/CARBON/AIRSS/Generating-Clusters/EDIP-Nigel-Params/Higher-Symm/Box-15A/Only-C60/SD-CG/FIRE-HFTN
REM
REM
REM
REM
REM
REM ./C.cell (414f73aa93bd7a1190c7fd0f31ff2f98)
REM
REM compiler GCC version 9.2.1 20190827 (Red Hat 9.2.1-1)
REM options -cpp -mtune=generic -march=x86-64 -g -O0 -fpre-include=/usr/include/finclude/math-vector-fortran.h
REM seed -1431259431 985520430 1965918391 -256891710 591567912 1491575846 -1157875419 1600397886 -779758120 -191069398 1732836975 1834726198 -569155451 1286980406 217024515 524251618 -531353484 545517888 417096310 1917111301 -416187741 665810338 -191018365 153338550 -1225098927 -630848181 -793617080 233231366 1920186778 -1939051455 -306300318 2120159653 -538797647
REM
CELL 1.54180   50.00000   50.00000   50.00000   90.00000   90.00000   90.00000
LATT -1
SFAC C  
C      1  0.5122490000000  0.4575800000000  0.5510230000000 1.0
C      1  0.5488770000000  0.5068350000000  0.5542340000000 1.0
C      1  0.4946780000000  0.5526510000000  0.5542680000000 1.0
C      1  0.4576190000000  0.4864330000000  0.5499310000000 1.0
C      1  0.4902690000000  0.4503440000000  0.4508080000000 1.0
C      1  0.5507310000000  0.4900520000000  0.4491070000000 1.0
C      1  0.5083800000000  0.5509140000000  0.4485300000000 1.0
C      1  0.4497970000000  0.5093390000000  0.4489570000000 1.0
C      1  0.4649650000000  0.5338640000000  0.5302800000000 1.0
C      1  0.4666920000000  0.4647040000000  0.5295210000000 1.0
C      1  0.5333090000000  0.4657830000000  0.5296830000000 1.0
C      1  0.5331650000000  0.5376070000000  0.5293120000000 1.0
C      1  0.4677460000000  0.5443610000000  0.4801120000000 1.0
C      1  0.4547000000000  0.4698480000000  0.4804230000000 1.0
C      1  0.5312730000000  0.4544310000000  0.4807460000000 1.0
C      1  0.5437870000000  0.5309590000000  0.4794280000000 1.0
C      1  0.4990780000000  0.5269810000000  0.5671810000000 1.0
C      1  0.4784820000000  0.4946380000000  0.5682690000000 1.0
C      1  0.5051540000000  0.4828590000000  0.5662420000000 1.0
C      1  0.5208870000000  0.5072270000000  0.5633770000000 1.0
C      1  0.5020740000000  0.5225120000000  0.4418770000000 1.0
C      1  0.4784420000000  0.5029900000000  0.4449180000000 1.0
C      1  0.4975060000000  0.4787270000000  0.4459550000000 1.0
C      1  0.5222960000000  0.4975630000000  0.4427570000000 1.0
C      1  0.4803690000000  0.4855710000000  0.4854400000000 1.0
C      1  0.5195580000000  0.4827260000000  0.4839240000000 1.0
C      1  0.5169970000000  0.5158170000000  0.4825880000000 1.0
C      1  0.4830410000000  0.5178760000000  0.4865450000000 1.0
C      1  0.4868930000000  0.4779380000000  0.5128950000000 1.0
C      1  0.5156230000000  0.4849100000000  0.5145660000000 1.0
C      1  0.5145260000000  0.5150900000000  0.5206280000000 1.0
C      1  0.4870420000000  0.5222900000000  0.5148100000000 1.0
C      1  0.5036210000000  0.5767990000000  0.5156510000000 1.0
C      1  0.4267380000000  0.5000320000000  0.5140440000000 1.0
C      1  0.4978590000000  0.4242700000000  0.5166940000000 1.0
C      1  0.5730320000000  0.4947730000000  0.5173090000000 1.0
C      1  0.5106940000000  0.5700790000000  0.4881200000000 1.0
C      1  0.4274730000000  0.5111710000000  0.4870080000000 1.0
C      1  0.4877480000000  0.4288840000000  0.4893710000000 1.0
C      1  0.5686470000000  0.4879380000000  0.4892920000000 1.0
C      1  0.4449400000000  0.5098760000000  0.5356010000000 1.0
C      1  0.4878750000000  0.4424670000000  0.5393320000000 1.0
C      1  0.5567660000000  0.4829690000000  0.5390650000000 1.0
C      1  0.5169030000000  0.5618900000000  0.5376280000000 1.0
C      1  0.4450010000000  0.5350180000000  0.4629300000000 1.0
C      1  0.4644020000000  0.4463490000000  0.4645940000000 1.0
C      1  0.5540130000000  0.4637320000000  0.4635620000000 1.0
C      1  0.5345680000000  0.5541610000000  0.4625650000000 1.0
C      1  0.4356570000000  0.4904530000000  0.4674100000000 1.0
C      1  0.5086070000000  0.4364520000000  0.4695470000000 1.0
C      1  0.5632260000000  0.5091690000000  0.4691360000000 1.0
C      1  0.4893870000000  0.5632310000000  0.4687510000000 1.0
C      1  0.4209150000000  0.4722800000000  0.5152370000000 1.0
C      1  0.5260960000000  0.4214300000000  0.5164760000000 1.0
C      1  0.5694600000000  0.5233030000000  0.5259620000000 1.0
C      1  0.4754420000000  0.5712690000000  0.5263940000000 1.0
C      1  0.4451530000000  0.4601690000000  0.5080920000000 1.0
C      1  0.5394010000000  0.4447940000000  0.5088120000000 1.0
C      1  0.4569430000000  0.5542600000000  0.5075540000000 1.0
C      1  0.5532260000000  0.5413610000000  0.5064780000000 1.0
END
