TITL C-38198-1686-204 -3.75517225980244e-05 125000 -365.436413630412 0 0 60 (C2) n - 1
REM
REM in /home/bkarasulu/CARBON/AIRSS/Generating-Clusters/EDIP-Nigel-Params/Higher-Symm/Box-15A/Only-C60/SD-CG/FIRE-HFTN
REM
REM
REM
REM
REM
REM ./C.cell (414f73aa93bd7a1190c7fd0f31ff2f98)
REM
REM compiler GCC version 9.2.1 20190827 (Red Hat 9.2.1-1)
REM options -cpp -mtune=generic -march=x86-64 -g -O0 -fpre-include=/usr/include/finclude/math-vector-fortran.h
REM seed 1921219897 1298544212 -511371332 1140806419 761009500 -1546283142 343835285 -947783763 -1087441447 1926465748 -171421620 -1576696808 1142528064 698300717 1384750890 437100399 -1701716008 -1297693286 -1488435146 571673213 -1250120325 -60240378 1117399945 419094406 620170094 -351548732 41769538 1010400776 -1845314789 1802160017 -1901550345 -271546845 -1907993065
REM
CELL 1.54180   50.00000   50.00000   50.00000   90.00000   90.00000   90.00000
LATT -1
SFAC C  
C      1  0.5553180000000  0.5161890000000  0.4397130000000 1.0
C      1  0.4580270000000  0.5341390000000  0.4456230000000 1.0
C      1  0.4909760000000  0.4445290000000  0.4390460000000 1.0
C      1  0.4446820000000  0.5161890000000  0.5602870000000 1.0
C      1  0.5419730000000  0.5341390000000  0.5543770000000 1.0
C      1  0.5090240000000  0.4445290000000  0.5609540000000 1.0
C      1  0.4455930000000  0.4841990000000  0.5593900000000 1.0
C      1  0.5413240000000  0.4646890000000  0.5551500000000 1.0
C      1  0.5099970000000  0.5549260000000  0.5612410000000 1.0
C      1  0.5544070000000  0.4841990000000  0.4406100000000 1.0
C      1  0.4586760000000  0.4646890000000  0.4448500000000 1.0
C      1  0.4900030000000  0.5549270000000  0.4387590000000 1.0
C      1  0.4994530000000  0.5283220000000  0.4306640000000 1.0
C      1  0.4745910000000  0.4847850000000  0.4303140000000 1.0
C      1  0.5234890000000  0.4858720000000  0.4421210000000 1.0
C      1  0.5005470000000  0.5283220000000  0.5693360000000 1.0
C      1  0.5254090000000  0.4847850000000  0.5696860000000 1.0
C      1  0.4765110000000  0.4858720000000  0.5578790000000 1.0
C      1  0.4996390000000  0.4707730000000  0.5696820000000 1.0
C      1  0.5231310000000  0.5127770000000  0.5607350000000 1.0
C      1  0.4758900000000  0.5162090000000  0.5586520000000 1.0
C      1  0.5003610000000  0.4707730000000  0.4303180000000 1.0
C      1  0.4768690000000  0.5127770000000  0.4392650000000 1.0
C      1  0.5241100000000  0.5162090000000  0.4413480000000 1.0
C      1  0.4755910000000  0.5155670000000  0.4844900000000 1.0
C      1  0.5003910000000  0.4683020000000  0.4743510000000 1.0
C      1  0.5269380000000  0.5195630000000  0.4854050000000 1.0
C      1  0.5244090000000  0.5155670000000  0.5155100000000 1.0
C      1  0.4996090000000  0.4683020000000  0.5256490000000 1.0
C      1  0.4730620000000  0.5195630000000  0.5145950000000 1.0
C      1  0.5240720000000  0.4846230000000  0.5161250000000 1.0
C      1  0.5000050000000  0.5317570000000  0.5256980000000 1.0
C      1  0.4731320000000  0.4807260000000  0.5139800000000 1.0
C      1  0.4759280000000  0.4846230000000  0.4838750000000 1.0
C      1  0.4999950000000  0.5317570000000  0.4743020000000 1.0
C      1  0.5268680000000  0.4807260000000  0.4860200000000 1.0
C      1  0.5678630000000  0.4718160000000  0.4620110000000 1.0
C      1  0.5023760000000  0.5679170000000  0.4606960000000 1.0
C      1  0.4518240000000  0.4732610000000  0.4716070000000 1.0
C      1  0.4321370000000  0.4718160000000  0.5379890000000 1.0
C      1  0.4976240000000  0.5679170000000  0.5393040000000 1.0
C      1  0.5481760000000  0.4732610000000  0.5283930000000 1.0
C      1  0.4315210000000  0.5287680000000  0.5387850000000 1.0
C      1  0.4966680000000  0.4318830000000  0.5388780000000 1.0
C      1  0.5489120000000  0.5270470000000  0.5273450000000 1.0
C      1  0.5684790000000  0.5287680000000  0.4612150000000 1.0
C      1  0.5033320000000  0.4318830000000  0.4611220000000 1.0
C      1  0.4510880000000  0.5270470000000  0.4726550000000 1.0
C      1  0.5526880000000  0.5345550000000  0.4835100000000 1.0
C      1  0.4360190000000  0.5411130000000  0.4915710000000 1.0
C      1  0.4945040000000  0.4404470000000  0.4868590000000 1.0
C      1  0.4473120000000  0.5345550000000  0.5164900000000 1.0
C      1  0.5639810000000  0.5411130000000  0.5084290000000 1.0
C      1  0.5054960000000  0.4404470000000  0.5131410000000 1.0
C      1  0.4475430000000  0.4658240000000  0.5155940000000 1.0
C      1  0.5637270000000  0.4597570000000  0.5094470000000 1.0
C      1  0.5056690000000  0.5596650000000  0.5131190000000 1.0
C      1  0.5524570000000  0.4658240000000  0.4844060000000 1.0
C      1  0.4362730000000  0.4597570000000  0.4905530000000 1.0
C      1  0.4943310000000  0.5596650000000  0.4868810000000 1.0
END
