TITL C-38187-2739-39 -2.15802031020637e-05 125000 -361.080234677476 0 0 60 (C1) n - 1
REM
REM in /home/bkarasulu/CARBON/AIRSS/Generating-Clusters/EDIP-Nigel-Params/Higher-Symm/Box-15A/Only-C60/SD-CG/FIRE-HFTN
REM
REM
REM
REM
REM
REM ./C.cell (414f73aa93bd7a1190c7fd0f31ff2f98)
REM
REM compiler GCC version 9.2.1 20190827 (Red Hat 9.2.1-1)
REM options -cpp -mtune=generic -march=x86-64 -g -O0 -fpre-include=/usr/include/finclude/math-vector-fortran.h
REM seed 176188249 -995249926 2018982311 660064000 1603864960 427774286 9413059 -170140011 -1113232472 -1419157308 -745864502 -700701493 -65982668 -1532397464 768521233 2061240707 2144721843 -954690523 -1201284033 633706859 -1795562901 -986696843 713483084 2113288439 -1731694298 -1833294491 -647552649 -1570613422 160882763 -1550830895 -1505716605 62141865 -2066697490
REM
CELL 1.54180   50.00000   50.00000   50.00000   90.00000   90.00000   90.00000
LATT -1
SFAC C  
C      1  0.4684220000000  0.4387110000000  0.5029250000000 1.0
C      1  0.5016100000000  0.4282630000000  0.4723500000000 1.0
C      1  0.5288650000000  0.4952440000000  0.5637780000000 1.0
C      1  0.4752040000000  0.4299450000000  0.4616440000000 1.0
C      1  0.4961150000000  0.4793160000000  0.5316270000000 1.0
C      1  0.5437100000000  0.4365360000000  0.5182490000000 1.0
C      1  0.4784390000000  0.4496370000000  0.5494030000000 1.0
C      1  0.5184340000000  0.5243080000000  0.4201290000000 1.0
C      1  0.4319680000000  0.5103530000000  0.5206050000000 1.0
C      1  0.4851120000000  0.5575850000000  0.5479980000000 1.0
C      1  0.4978200000000  0.4992580000000  0.4806350000000 1.0
C      1  0.4489110000000  0.5559330000000  0.5156110000000 1.0
C      1  0.4262550000000  0.4872130000000  0.5344960000000 1.0
C      1  0.4646110000000  0.5536080000000  0.4890650000000 1.0
C      1  0.4055680000000  0.5025430000000  0.4782310000000 1.0
C      1  0.5507610000000  0.5292260000000  0.5450500000000 1.0
C      1  0.4363030000000  0.4627050000000  0.5316760000000 1.0
C      1  0.4189020000000  0.5257540000000  0.4738240000000 1.0
C      1  0.5128510000000  0.5607320000000  0.5521640000000 1.0
C      1  0.4717110000000  0.5318150000000  0.5492390000000 1.0
C      1  0.5317460000000  0.5352940000000  0.4732360000000 1.0
C      1  0.5098280000000  0.5247320000000  0.4905690000000 1.0
C      1  0.5388050000000  0.4823460000000  0.5376920000000 1.0
C      1  0.5012400000000  0.4991150000000  0.5537730000000 1.0
C      1  0.4125720000000  0.5182910000000  0.5007900000000 1.0
C      1  0.5437960000000  0.5182690000000  0.5701260000000 1.0
C      1  0.5324250000000  0.5497780000000  0.5354020000000 1.0
C      1  0.5427100000000  0.5099590000000  0.4602410000000 1.0
C      1  0.5095230000000  0.4611360000000  0.4368490000000 1.0
C      1  0.5450350000000  0.4872190000000  0.4805240000000 1.0
C      1  0.5517950000000  0.5073160000000  0.5237480000000 1.0
C      1  0.5132170000000  0.5751140000000  0.4999430000000 1.0
C      1  0.5603720000000  0.4435770000000  0.4927290000000 1.0
C      1  0.4850640000000  0.5753910000000  0.4992220000000 1.0
C      1  0.4613640000000  0.4522760000000  0.5273140000000 1.0
C      1  0.4830990000000  0.4702860000000  0.4375140000000 1.0
C      1  0.5756070000000  0.4659180000000  0.5099910000000 1.0
C      1  0.4621210000000  0.4758140000000  0.4559070000000 1.0
C      1  0.5283010000000  0.4783890000000  0.4259330000000 1.0
C      1  0.5579800000000  0.4584690000000  0.5342830000000 1.0
C      1  0.5056240000000  0.4445940000000  0.5455020000000 1.0
C      1  0.5515030000000  0.5488200000000  0.4899090000000 1.0
C      1  0.4960490000000  0.4291090000000  0.5010040000000 1.0
C      1  0.4800410000000  0.5119020000000  0.5671340000000 1.0
C      1  0.4784720000000  0.5352280000000  0.4428290000000 1.0
C      1  0.5186120000000  0.4498870000000  0.4619470000000 1.0
C      1  0.4622500000000  0.5271440000000  0.4643610000000 1.0
C      1  0.5202100000000  0.5114590000000  0.5167060000000 1.0
C      1  0.5664120000000  0.4928430000000  0.5005320000000 1.0
C      1  0.5357580000000  0.5616850000000  0.5092560000000 1.0
C      1  0.4478650000000  0.5317290000000  0.5322700000000 1.0
C      1  0.4714740000000  0.5744010000000  0.5272240000000 1.0
C      1  0.5338050000000  0.5046630000000  0.4327110000000 1.0
C      1  0.5151600000000  0.4416900000000  0.5188970000000 1.0
C      1  0.5036540000000  0.5431580000000  0.4341250000000 1.0
C      1  0.5458780000000  0.4586430000000  0.4707570000000 1.0
C      1  0.5132330000000  0.4826490000000  0.5028790000000 1.0
C      1  0.4690970000000  0.4992610000000  0.4743280000000 1.0
C      1  0.4566140000000  0.4501550000000  0.4691760000000 1.0
C      1  0.5201170000000  0.5536080000000  0.4539730000000 1.0
END
