TITL C-38197-8510-648 4.16091120492995e-06 125000 -358.179582376739 0 0 60 (C1) n - 1
REM
REM in /home/bkarasulu/CARBON/AIRSS/Generating-Clusters/EDIP-Nigel-Params/Higher-Symm/Box-15A/Only-C60/SD-CG/FIRE-HFTN
REM
REM
REM
REM
REM
REM ./C.cell (414f73aa93bd7a1190c7fd0f31ff2f98)
REM
REM compiler GCC version 9.2.1 20190827 (Red Hat 9.2.1-1)
REM options -cpp -mtune=generic -march=x86-64 -g -O0 -fpre-include=/usr/include/finclude/math-vector-fortran.h
REM seed -200660854 842954175 1543479806 565406749 1587795745 -748251018 1018345798 -478761375 -1783210001 1977600382 132991389 -574152795 445453550 1520248000 1916420971 -566912214 1267999967 1262783058 402796296 -1901251035 397254635 730741686 -580058276 -1585540191 1894517986 115039059 272835178 2121587468 -1828677666 -1047992028 1250983300 -1773445557 431626839
REM
CELL 1.54180   50.00000   50.00000   50.00000   90.00000   90.00000   90.00000
LATT -1
SFAC C  
C      1  0.4954090000000  0.4629150000000  0.4445130000000 1.0
C      1  0.4964050000000  0.4630150000000  0.5552980000000 1.0
C      1  0.4628160000000  0.4992610000000  0.4306810000000 1.0
C      1  0.4633410000000  0.4988400000000  0.5697760000000 1.0
C      1  0.4504180000000  0.4423230000000  0.4745330000000 1.0
C      1  0.4508060000000  0.4424110000000  0.5259950000000 1.0
C      1  0.4859510000000  0.4929730000000  0.4848030000000 1.0
C      1  0.4860620000000  0.4929210000000  0.5151750000000 1.0
C      1  0.5499170000000  0.5436300000000  0.5577230000000 1.0
C      1  0.5546160000000  0.5406090000000  0.4393130000000 1.0
C      1  0.4249190000000  0.5214000000000  0.5138570000000 1.0
C      1  0.4248540000000  0.5214350000000  0.4871140000000 1.0
C      1  0.5395820000000  0.4971610000000  0.4285250000000 1.0
C      1  0.5398920000000  0.4986620000000  0.5695790000000 1.0
C      1  0.4294280000000  0.4565080000000  0.5148160000000 1.0
C      1  0.4292270000000  0.4564950000000  0.4859530000000 1.0
C      1  0.5353890000000  0.5244180000000  0.4276320000000 1.0
C      1  0.5332320000000  0.5254270000000  0.5705160000000 1.0
C      1  0.5404030000000  0.5674220000000  0.4860070000000 1.0
C      1  0.5390640000000  0.5701110000000  0.5172570000000 1.0
C      1  0.4951930000000  0.5455010000000  0.4846310000000 1.0
C      1  0.4946530000000  0.5453160000000  0.5153530000000 1.0
C      1  0.4243550000000  0.5038670000000  0.5351810000000 1.0
C      1  0.4241550000000  0.5039560000000  0.4657500000000 1.0
C      1  0.5042910000000  0.5167320000000  0.5169780000000 1.0
C      1  0.5043590000000  0.5167080000000  0.4830030000000 1.0
C      1  0.4178960000000  0.4777990000000  0.4722770000000 1.0
C      1  0.4180930000000  0.4777220000000  0.5286200000000 1.0
C      1  0.4848300000000  0.4830490000000  0.5708460000000 1.0
C      1  0.4840810000000  0.4832250000000  0.4291490000000 1.0
C      1  0.5291910000000  0.4292630000000  0.4539400000000 1.0
C      1  0.5306610000000  0.4299860000000  0.5456170000000 1.0
C      1  0.5234540000000  0.4611950000000  0.4845510000000 1.0
C      1  0.5237410000000  0.4613790000000  0.5146970000000 1.0
C      1  0.5419840000000  0.4743640000000  0.4443930000000 1.0
C      1  0.5427180000000  0.4755260000000  0.5542690000000 1.0
C      1  0.5132960000000  0.5660550000000  0.4727410000000 1.0
C      1  0.5114400000000  0.5662430000000  0.5290120000000 1.0
C      1  0.5228050000000  0.4522630000000  0.4380600000000 1.0
C      1  0.5241540000000  0.4530870000000  0.5613070000000 1.0
C      1  0.5438300000000  0.4787980000000  0.5262720000000 1.0
C      1  0.5434090000000  0.4782970000000  0.4723020000000 1.0
C      1  0.5061930000000  0.5322470000000  0.5767630000000 1.0
C      1  0.5084000000000  0.5334150000000  0.4248840000000 1.0
C      1  0.4957160000000  0.5580210000000  0.4258190000000 1.0
C      1  0.4915890000000  0.5556580000000  0.5742270000000 1.0
C      1  0.5309040000000  0.4319460000000  0.4819610000000 1.0
C      1  0.5314340000000  0.4322210000000  0.5175120000000 1.0
C      1  0.4418120000000  0.5075470000000  0.4448530000000 1.0
C      1  0.4422110000000  0.5073540000000  0.5559220000000 1.0
C      1  0.5551470000000  0.5411630000000  0.4877040000000 1.0
C      1  0.5682600000000  0.5421790000000  0.5126390000000 1.0
C      1  0.5597750000000  0.5567290000000  0.5350830000000 1.0
C      1  0.5657940000000  0.5494980000000  0.4627490000000 1.0
C      1  0.5146480000000  0.5665990000000  0.4438650000000 1.0
C      1  0.5115180000000  0.5656730000000  0.5580220000000 1.0
C      1  0.4950630000000  0.4658810000000  0.5253670000000 1.0
C      1  0.4946300000000  0.4658430000000  0.4744470000000 1.0
C      1  0.4761720000000  0.4448770000000  0.4855680000000 1.0
C      1  0.4764150000000  0.4448800000000  0.5145990000000 1.0
END
