TITL C-38189-4514-639 3.94959248450504e-07 125000 -381.114139959504 0 0 60 (C4h) n - 1
REM
REM in /home/bkarasulu/CARBON/AIRSS/Generating-Clusters/EDIP-Nigel-Params/Higher-Symm/Box-15A/Only-C60/SD-CG/FIRE-HFTN
REM
REM
REM
REM
REM
REM ./C.cell (414f73aa93bd7a1190c7fd0f31ff2f98)
REM
REM compiler GCC version 9.2.1 20190827 (Red Hat 9.2.1-1)
REM options -cpp -mtune=generic -march=x86-64 -g -O0 -fpre-include=/usr/include/finclude/math-vector-fortran.h
REM seed 1728113728 1540295862 1019166696 2088002372 1118966598 -1672146947 -1392828951 -29042114 2012267001 241206704 -1120645233 1219784203 -813225990 1386510602 -37038774 -2084103986 2132751038 1999891099 -2105342862 -1696770079 -560506825 -201696886 -495873779 -1774731249 -1893553809 1764173839 594499677 -926138493 -209513795 603976288 258853429 -137214351 292916163
REM
CELL 1.54180   50.00000   50.00000   50.00000   90.00000   90.00000   90.00000
LATT -1
SFAC C  
C      1  0.5229610000000  0.5610080000000  0.5283950000000 1.0
C      1  0.5283950000000  0.5610080000000  0.4770390000000 1.0
C      1  0.4770390000000  0.5610080000000  0.4716050000000 1.0
C      1  0.4716050000000  0.5610080000000  0.5229610000000 1.0
C      1  0.5229610000000  0.4401990000000  0.5283950000000 1.0
C      1  0.5283950000000  0.4401990000000  0.4770390000000 1.0
C      1  0.4770390000000  0.4401990000000  0.4716050000000 1.0
C      1  0.4716050000000  0.4401990000000  0.5229610000000 1.0
C      1  0.4819790000000  0.5258440000000  0.4362080000000 1.0
C      1  0.4362080000000  0.5258440000000  0.5180210000000 1.0
C      1  0.5180210000000  0.5258440000000  0.5637920000000 1.0
C      1  0.5637920000000  0.5258440000000  0.4819790000000 1.0
C      1  0.4819790000000  0.4753630000000  0.4362080000000 1.0
C      1  0.4362080000000  0.4753630000000  0.5180210000000 1.0
C      1  0.5180210000000  0.4753630000000  0.5637920000000 1.0
C      1  0.5637920000000  0.4753630000000  0.4819790000000 1.0
C      1  0.4904190000000  0.5512900000000  0.4470110000000 1.0
C      1  0.4470110000000  0.5512900000000  0.5095810000000 1.0
C      1  0.5095810000000  0.5512900000000  0.5529890000000 1.0
C      1  0.5529890000000  0.5512900000000  0.4904190000000 1.0
C      1  0.4904190000000  0.4499170000000  0.4470110000000 1.0
C      1  0.4470110000000  0.4499170000000  0.5095810000000 1.0
C      1  0.5095810000000  0.4499170000000  0.5529890000000 1.0
C      1  0.5529890000000  0.4499170000000  0.4904190000000 1.0
C      1  0.5427140000000  0.5149140000000  0.5541200000000 1.0
C      1  0.5541200000000  0.5149140000000  0.4572860000000 1.0
C      1  0.4572860000000  0.5149140000000  0.4458800000000 1.0
C      1  0.4458800000000  0.5149140000000  0.5427140000000 1.0
C      1  0.5427140000000  0.4862930000000  0.5541200000000 1.0
C      1  0.5541200000000  0.4862930000000  0.4572860000000 1.0
C      1  0.4572860000000  0.4862930000000  0.4458800000000 1.0
C      1  0.4458800000000  0.4862930000000  0.5427140000000 1.0
C      1  0.4829390000000  0.4144040000000  0.5139710000000 1.0
C      1  0.5139710000000  0.4144040000000  0.5170610000000 1.0
C      1  0.5170610000000  0.4144040000000  0.4860290000000 1.0
C      1  0.4860290000000  0.4144040000000  0.4829390000000 1.0
C      1  0.4829390000000  0.5868030000000  0.5139710000000 1.0
C      1  0.5139710000000  0.5868030000000  0.5170610000000 1.0
C      1  0.5170610000000  0.5868030000000  0.4860290000000 1.0
C      1  0.4860290000000  0.5868030000000  0.4829390000000 1.0
C      1  0.5542330000000  0.4783110000000  0.5285900000000 1.0
C      1  0.5285900000000  0.4783110000000  0.4457670000000 1.0
C      1  0.4457670000000  0.4783110000000  0.4714100000000 1.0
C      1  0.4714100000000  0.4783110000000  0.5542330000000 1.0
C      1  0.5542330000000  0.5228960000000  0.5285900000000 1.0
C      1  0.5285900000000  0.5228960000000  0.4457670000000 1.0
C      1  0.4457670000000  0.5228960000000  0.4714100000000 1.0
C      1  0.4714100000000  0.5228960000000  0.5542330000000 1.0
C      1  0.5488780000000  0.4510990000000  0.5195910000000 1.0
C      1  0.5195910000000  0.4510990000000  0.4511220000000 1.0
C      1  0.4511220000000  0.4510990000000  0.4804090000000 1.0
C      1  0.4804090000000  0.4510990000000  0.5488780000000 1.0
C      1  0.5488780000000  0.5501070000000  0.5195910000000 1.0
C      1  0.5195910000000  0.5501070000000  0.4511220000000 1.0
C      1  0.4511220000000  0.5501070000000  0.4804090000000 1.0
C      1  0.4804090000000  0.5501070000000  0.5488780000000 1.0
C      1  0.5661340000000  0.5006030000000  0.5112150000000 1.0
C      1  0.5112150000000  0.5006030000000  0.4338660000000 1.0
C      1  0.4338660000000  0.5006030000000  0.4887850000000 1.0
C      1  0.4887850000000  0.5006030000000  0.5661340000000 1.0
END
