TITL C-38193-7935-384 -6.88018387384116e-07 125000 -359.570733053157 0 0 60 (D6h) n - 1
REM
REM in /home/bkarasulu/CARBON/AIRSS/Generating-Clusters/EDIP-Nigel-Params/Higher-Symm/Box-15A/Only-C60/SD-CG/FIRE-HFTN
REM
REM
REM
REM
REM
REM ./C.cell (414f73aa93bd7a1190c7fd0f31ff2f98)
REM
REM compiler GCC version 9.2.1 20190827 (Red Hat 9.2.1-1)
REM options -cpp -mtune=generic -march=x86-64 -g -O0 -fpre-include=/usr/include/finclude/math-vector-fortran.h
REM seed 934733315 -1943091475 -1215558329 -646025236 836557535 -1879253737 -836596104 1194369192 -580901401 429394753 295763858 -907769416 1317895850 -493374531 -721535760 73075122 -1479560265 1422787070 -571629005 -1277936713 1469320205 -286374622 1074225020 -335333472 -2047437198 341889883 2098401833 476532877 1726124639 -1797962291 -345465390 1295540404 -1619245549
REM
CELL 1.54180   50.00000   50.00000   50.00000   90.00000   90.00000   90.00000
LATT -1
SFAC C  
C      1  0.4779130000000  0.5184370000000  0.4779700000000 1.0
C      1  0.4779130000000  0.5282970000000  0.5049520000000 1.0
C      1  0.4779130000000  0.5098600000000  0.5269810000000 1.0
C      1  0.4779130000000  0.4815630000000  0.5220300000000 1.0
C      1  0.4779130000000  0.4717030000000  0.4950480000000 1.0
C      1  0.4779130000000  0.4901400000000  0.4730190000000 1.0
C      1  0.5220870000000  0.5184370000000  0.4779700000000 1.0
C      1  0.5220870000000  0.5282970000000  0.5049520000000 1.0
C      1  0.5220870000000  0.5098600000000  0.5269810000000 1.0
C      1  0.5220870000000  0.4815630000000  0.5220300000000 1.0
C      1  0.5220870000000  0.4717030000000  0.4950480000000 1.0
C      1  0.5220870000000  0.4901400000000  0.4730190000000 1.0
C      1  0.4472130000000  0.4495390000000  0.5184410000000 1.0
C      1  0.4472130000000  0.4587990000000  0.4655200000000 1.0
C      1  0.4472130000000  0.5092610000000  0.4470790000000 1.0
C      1  0.4472130000000  0.5504610000000  0.4815590000000 1.0
C      1  0.4472130000000  0.5412010000000  0.5344800000000 1.0
C      1  0.4472130000000  0.4907390000000  0.5529210000000 1.0
C      1  0.5527870000000  0.4495390000000  0.5184410000000 1.0
C      1  0.5527870000000  0.4587990000000  0.4655200000000 1.0
C      1  0.5527870000000  0.5092610000000  0.4470790000000 1.0
C      1  0.5527870000000  0.5504610000000  0.4815590000000 1.0
C      1  0.5527870000000  0.5412010000000  0.5344800000000 1.0
C      1  0.5527870000000  0.4907390000000  0.5529210000000 1.0
C      1  0.4633660000000  0.4468380000000  0.4906970000000 1.0
C      1  0.4633660000000  0.4814760000000  0.4493090000000 1.0
C      1  0.4633660000000  0.5346370000000  0.4586120000000 1.0
C      1  0.4633660000000  0.5531620000000  0.5093030000000 1.0
C      1  0.4633660000000  0.5185240000000  0.5506910000000 1.0
C      1  0.4633660000000  0.4653630000000  0.5413880000000 1.0
C      1  0.5366340000000  0.4468380000000  0.4906970000000 1.0
C      1  0.5366340000000  0.4814760000000  0.4493090000000 1.0
C      1  0.5366340000000  0.5346370000000  0.4586120000000 1.0
C      1  0.5366340000000  0.5531620000000  0.5093030000000 1.0
C      1  0.5366340000000  0.5185240000000  0.5506910000000 1.0
C      1  0.5366340000000  0.4653630000000  0.5413880000000 1.0
C      1  0.5734670000000  0.4710100000000  0.5105940000000 1.0
C      1  0.5734670000000  0.4763300000000  0.4801910000000 1.0
C      1  0.5734670000000  0.5053200000000  0.4695970000000 1.0
C      1  0.5734670000000  0.5289900000000  0.4894060000000 1.0
C      1  0.5734670000000  0.5236700000000  0.5198090000000 1.0
C      1  0.5734670000000  0.4946800000000  0.5304030000000 1.0
C      1  0.4265330000000  0.4710100000000  0.5105940000000 1.0
C      1  0.4265330000000  0.4763300000000  0.4801910000000 1.0
C      1  0.4265330000000  0.5053200000000  0.4695970000000 1.0
C      1  0.4265330000000  0.5289900000000  0.4894060000000 1.0
C      1  0.4265330000000  0.5236700000000  0.5198090000000 1.0
C      1  0.4265330000000  0.4946800000000  0.5304030000000 1.0
C      1  0.5137080000000  0.4751540000000  0.4320120000000 1.0
C      1  0.5137080000000  0.5464570000000  0.4444890000000 1.0
C      1  0.5137080000000  0.5713020000000  0.5124770000000 1.0
C      1  0.5137080000000  0.5248460000000  0.5679880000000 1.0
C      1  0.5137080000000  0.4535430000000  0.5555110000000 1.0
C      1  0.5137080000000  0.4286980000000  0.4875230000000 1.0
C      1  0.4862920000000  0.4751540000000  0.4320120000000 1.0
C      1  0.4862920000000  0.5464570000000  0.4444890000000 1.0
C      1  0.4862920000000  0.5713020000000  0.5124770000000 1.0
C      1  0.4862920000000  0.5248460000000  0.5679880000000 1.0
C      1  0.4862920000000  0.4535430000000  0.5555110000000 1.0
C      1  0.4862920000000  0.4286980000000  0.4875230000000 1.0
END
