TITL C-38197-8510-567 -1.21232209183079e-05 125000 -349.320428788979 0 0 60 (D2) n - 1
REM
REM in /home/bkarasulu/CARBON/AIRSS/Generating-Clusters/EDIP-Nigel-Params/Higher-Symm/Box-15A/Only-C60/SD-CG/FIRE-HFTN
REM
REM
REM
REM
REM
REM ./C.cell (414f73aa93bd7a1190c7fd0f31ff2f98)
REM
REM compiler GCC version 9.2.1 20190827 (Red Hat 9.2.1-1)
REM options -cpp -mtune=generic -march=x86-64 -g -O0 -fpre-include=/usr/include/finclude/math-vector-fortran.h
REM seed -1446380891 -1016740070 -116416059 -273881508 -1023982458 -1332071462 -568959882 986784795 33385727 -420956433 279016396 -1922033794 -1361829375 -800841117 1423202912 -1845542989 -1265662572 -1752351909 -1475845015 -1915208822 -1884679543 -635630392 1867283849 462347823 1324125404 1797091729 -945426130 1736658559 106547400 -50686558 64686029 2109672040 -1248311707
REM
CELL 1.54180   50.00000   50.00000   50.00000   90.00000   90.00000   90.00000
LATT -1
SFAC C  
C      1  0.5699650000000  0.4715500000000  0.5368920000000 1.0
C      1  0.4300350000000  0.4715500000000  0.4631080000000 1.0
C      1  0.4300350000000  0.5284500000000  0.5368920000000 1.0
C      1  0.5699650000000  0.5284500000000  0.4631080000000 1.0
C      1  0.5220550000000  0.4380160000000  0.5306910000000 1.0
C      1  0.4779450000000  0.4380160000000  0.4693090000000 1.0
C      1  0.4779450000000  0.5619840000000  0.5306910000000 1.0
C      1  0.5220550000000  0.5619840000000  0.4693090000000 1.0
C      1  0.5687120000000  0.5306920000000  0.4895800000000 1.0
C      1  0.4312880000000  0.5306920000000  0.5104200000000 1.0
C      1  0.4312880000000  0.4693080000000  0.4895800000000 1.0
C      1  0.5687120000000  0.4693080000000  0.5104200000000 1.0
C      1  0.4746280000000  0.5663110000000  0.4719690000000 1.0
C      1  0.5253720000000  0.5663110000000  0.5280310000000 1.0
C      1  0.5253720000000  0.4336890000000  0.4719690000000 1.0
C      1  0.4746280000000  0.4336890000000  0.5280310000000 1.0
C      1  0.5314690000000  0.5117690000000  0.5199650000000 1.0
C      1  0.4685310000000  0.5117690000000  0.4800350000000 1.0
C      1  0.4685310000000  0.4882310000000  0.5199650000000 1.0
C      1  0.5314690000000  0.4882310000000  0.4800350000000 1.0
C      1  0.5267620000000  0.5129550000000  0.4381610000000 1.0
C      1  0.4732380000000  0.5129550000000  0.5618390000000 1.0
C      1  0.4732380000000  0.4870450000000  0.4381610000000 1.0
C      1  0.5267620000000  0.4870450000000  0.5618390000000 1.0
C      1  0.5143300000000  0.5037290000000  0.4643610000000 1.0
C      1  0.4856700000000  0.5037290000000  0.5356390000000 1.0
C      1  0.4856700000000  0.4962710000000  0.4643610000000 1.0
C      1  0.5143300000000  0.4962710000000  0.5356390000000 1.0
C      1  0.4890290000000  0.4383240000000  0.4430240000000 1.0
C      1  0.5109710000000  0.4383240000000  0.5569760000000 1.0
C      1  0.5109710000000  0.5616760000000  0.4430240000000 1.0
C      1  0.4890290000000  0.5616760000000  0.5569760000000 1.0
C      1  0.4734410000000  0.5090400000000  0.4198540000000 1.0
C      1  0.5265590000000  0.5090400000000  0.5801460000000 1.0
C      1  0.5265590000000  0.4909600000000  0.4198540000000 1.0
C      1  0.4734410000000  0.4909600000000  0.5801460000000 1.0
C      1  0.5538600000000  0.5205110000000  0.4433720000000 1.0
C      1  0.4461400000000  0.5205110000000  0.5566280000000 1.0
C      1  0.4461400000000  0.4794890000000  0.4433720000000 1.0
C      1  0.5538600000000  0.4794890000000  0.5566280000000 1.0
C      1  0.4817280000000  0.4362700000000  0.5551470000000 1.0
C      1  0.5182720000000  0.4362700000000  0.4448530000000 1.0
C      1  0.5182720000000  0.5637300000000  0.5551470000000 1.0
C      1  0.4817280000000  0.5637300000000  0.4448530000000 1.0
C      1  0.4834990000000  0.5347400000000  0.4209130000000 1.0
C      1  0.5165010000000  0.5347400000000  0.5790870000000 1.0
C      1  0.5165010000000  0.4652600000000  0.4209130000000 1.0
C      1  0.4834990000000  0.4652600000000  0.5790870000000 1.0
C      1  0.4991960000000  0.5647330000000  0.4856220000000 1.0
C      1  0.5008040000000  0.5647330000000  0.5143780000000 1.0
C      1  0.5008040000000  0.4352670000000  0.4856220000000 1.0
C      1  0.4991960000000  0.4352670000000  0.5143780000000 1.0
C      1  0.4879720000000  0.5370670000000  0.5733500000000 1.0
C      1  0.5120280000000  0.5370670000000  0.4266500000000 1.0
C      1  0.5120280000000  0.4629330000000  0.5733500000000 1.0
C      1  0.4879720000000  0.4629330000000  0.4266500000000 1.0
C      1  0.5529240000000  0.4754470000000  0.4898280000000 1.0
C      1  0.4470760000000  0.4754470000000  0.5101720000000 1.0
C      1  0.4470760000000  0.5245530000000  0.4898280000000 1.0
C      1  0.5529240000000  0.5245530000000  0.5101720000000 1.0
END
