TITL C-38187-2739-189 2.27565332925497e-05 125000 -344.57679484 0 0 60 (C1) n - 1
REM
REM in /home/bkarasulu/CARBON/AIRSS/Generating-Clusters/EDIP-Nigel-Params/Higher-Symm/Box-15A/Only-C60/SD-CG/FIRE-HFTN
REM
REM
REM
REM
REM
REM ./C.cell (414f73aa93bd7a1190c7fd0f31ff2f98)
REM
REM compiler GCC version 9.2.1 20190827 (Red Hat 9.2.1-1)
REM options -cpp -mtune=generic -march=x86-64 -g -O0 -fpre-include=/usr/include/finclude/math-vector-fortran.h
REM seed -884972249 24686484 -1086594030 316989533 511331945 2083988245 579682997 -752419607 -126141594 1556287100 1104465987 -2002853154 -1766942786 -912360379 2139616262 -891010604 -1184749415 84850876 -872348115 1414506310 1555456860 1192327242 601044163 333923239 1164721801 437183863 -1293101301 -174751443 -822226465 -359254668 790073793 2103454385 -546786709
REM
CELL 1.54180   50.00000   50.00000   50.00000   90.00000   90.00000   90.00000
LATT -1
SFAC C  
C      1  0.5103410000000  0.4785040000000  0.5163390000000 1.0
C      1  0.5135370000000  0.5196350000000  0.5162170000000 1.0
C      1  0.4763390000000  0.5018350000000  0.5163550000000 1.0
C      1  0.5102070000000  0.4785310000000  0.4838560000000 1.0
C      1  0.5133990000000  0.5196420000000  0.4837350000000 1.0
C      1  0.4761780000000  0.5018530000000  0.4838720000000 1.0
C      1  0.5506300000000  0.4494500000000  0.5137300000000 1.0
C      1  0.5184170000000  0.5690030000000  0.5137160000000 1.0
C      1  0.4310920000000  0.4814200000000  0.5140530000000 1.0
C      1  0.5505140000000  0.4496050000000  0.4862130000000 1.0
C      1  0.5184310000000  0.5690630000000  0.4861990000000 1.0
C      1  0.4309170000000  0.4814580000000  0.4865360000000 1.0
C      1  0.4746510000000  0.5522460000000  0.4758640000000 1.0
C      1  0.4673230000000  0.4520130000000  0.4759020000000 1.0
C      1  0.5577990000000  0.4958180000000  0.4755910000000 1.0
C      1  0.4747640000000  0.5522130000000  0.5244120000000 1.0
C      1  0.4675060000000  0.4519490000000  0.5244530000000 1.0
C      1  0.5579580000000  0.4957600000000  0.5241400000000 1.0
C      1  0.5038770000000  0.5479780000000  0.4718680000000 1.0
C      1  0.4563730000000  0.4794650000000  0.4720390000000 1.0
C      1  0.5394200000000  0.4726740000000  0.4718350000000 1.0
C      1  0.5040020000000  0.5478910000000  0.5281570000000 1.0
C      1  0.4566630000000  0.4794240000000  0.5283300000000 1.0
C      1  0.5396660000000  0.4725680000000  0.5281250000000 1.0
C      1  0.4624930000000  0.5092570000000  0.5703520000000 1.0
C      1  0.5110510000000  0.4627180000000  0.5702920000000 1.0
C      1  0.5271020000000  0.5279970000000  0.5701330000000 1.0
C      1  0.4621220000000  0.5093050000000  0.4299400000000 1.0
C      1  0.5105680000000  0.4627130000000  0.4298820000000 1.0
C      1  0.5266660000000  0.5280080000000  0.4297240000000 1.0
C      1  0.5080350000000  0.4269720000000  0.5132200000000 1.0
C      1  0.5592200000000  0.5437510000000  0.5137650000000 1.0
C      1  0.4328170000000  0.5295680000000  0.5134290000000 1.0
C      1  0.5082690000000  0.4268910000000  0.4861540000000 1.0
C      1  0.5591880000000  0.5434380000000  0.4866990000000 1.0
C      1  0.4324690000000  0.5293800000000  0.4863640000000 1.0
C      1  0.4965290000000  0.4511930000000  0.5223950000000 1.0
C      1  0.5440870000000  0.5212750000000  0.5221800000000 1.0
C      1  0.4596010000000  0.5274490000000  0.5224480000000 1.0
C      1  0.4963530000000  0.4512640000000  0.4778440000000 1.0
C      1  0.5439470000000  0.5213320000000  0.4776290000000 1.0
C      1  0.4594830000000  0.5274880000000  0.4778960000000 1.0
C      1  0.4603110000000  0.4830130000000  0.5593540000000 1.0
C      1  0.5348220000000  0.4739320000000  0.5591810000000 1.0
C      1  0.5054240000000  0.5429960000000  0.5591930000000 1.0
C      1  0.4599220000000  0.4830810000000  0.4409790000000 1.0
C      1  0.5344260000000  0.4739390000000  0.4408080000000 1.0
C      1  0.5050960000000  0.5430380000000  0.4408190000000 1.0
C      1  0.4913970000000  0.4790640000000  0.5561110000000 1.0
C      1  0.5226470000000  0.5028300000000  0.5559200000000 1.0
C      1  0.4864470000000  0.5180410000000  0.5560720000000 1.0
C      1  0.4910410000000  0.4791300000000  0.4441800000000 1.0
C      1  0.5223360000000  0.5028620000000  0.4439900000000 1.0
C      1  0.4861310000000  0.5180710000000  0.4441420000000 1.0
C      1  0.4523010000000  0.4316430000000  0.5122780000000 1.0
C      1  0.5845040000000  0.4928690000000  0.5148040000000 1.0
C      1  0.4647160000000  0.5755120000000  0.5122480000000 1.0
C      1  0.4515550000000  0.4304380000000  0.4851810000000 1.0
C      1  0.5830190000000  0.4928350000000  0.4877100000000 1.0
C      1  0.4639020000000  0.5767080000000  0.4851520000000 1.0
END
