TITL C-38189-4514-222 -1.66206618711043e-05 125000 -359.486564016495 0 0 60 (Cs) n - 1
REM
REM in /home/bkarasulu/CARBON/AIRSS/Generating-Clusters/EDIP-Nigel-Params/Higher-Symm/Box-15A/Only-C60/SD-CG/FIRE-HFTN
REM
REM
REM
REM
REM
REM ./C.cell (414f73aa93bd7a1190c7fd0f31ff2f98)
REM
REM compiler GCC version 9.2.1 20190827 (Red Hat 9.2.1-1)
REM options -cpp -mtune=generic -march=x86-64 -g -O0 -fpre-include=/usr/include/finclude/math-vector-fortran.h
REM seed 1276633991 -693010373 -1811319310 -148674350 -1828278308 1086201469 93497894 1709030766 883109414 129809402 1071593437 1289354072 2083402642 -130775335 -645745012 -1367425116 1188317220 -1706152958 468673228 -456892709 -1593327258 1190345845 2051724369 -651439815 1260257042 1207398183 -2063708687 717769199 -526788662 1428809108 -1171240860 -864238918 -624717690
REM
CELL 1.54180   50.00000   50.00000   50.00000   90.00000   90.00000   90.00000
LATT -1
SFAC C  
C      1  0.5421690000000  0.5314750000000  0.5190480000000 1.0
C      1  0.4578340000000  0.5314790000000  0.5191790000000 1.0
C      1  0.4607000000000  0.5627980000000  0.5584690000000 1.0
C      1  0.5396100000000  0.5627780000000  0.5583550000000 1.0
C      1  0.4458540000000  0.5422810000000  0.5446340000000 1.0
C      1  0.5543630000000  0.5422690000000  0.5444030000000 1.0
C      1  0.5143570000000  0.4794570000000  0.4376950000000 1.0
C      1  0.4856670000000  0.4794610000000  0.4376520000000 1.0
C      1  0.4313110000000  0.4718120000000  0.4831350000000 1.0
C      1  0.5685690000000  0.4718930000000  0.4833610000000 1.0
C      1  0.5294320000000  0.5805900000000  0.4999800000000 1.0
C      1  0.4705180000000  0.5805690000000  0.5000520000000 1.0
C      1  0.4442290000000  0.5722800000000  0.4928650000000 1.0
C      1  0.5556910000000  0.5722880000000  0.4926910000000 1.0
C      1  0.5556900000000  0.4637350000000  0.4374610000000 1.0
C      1  0.4443610000000  0.4636700000000  0.4372880000000 1.0
C      1  0.5556920000000  0.4823520000000  0.4608390000000 1.0
C      1  0.4442580000000  0.4822880000000  0.4606640000000 1.0
C      1  0.5149240000000  0.4555190000000  0.5578540000000 1.0
C      1  0.4847490000000  0.4552900000000  0.5577790000000 1.0
C      1  0.5343570000000  0.5016460000000  0.5536850000000 1.0
C      1  0.4658390000000  0.5016070000000  0.5537340000000 1.0
C      1  0.4830520000000  0.4777960000000  0.5152510000000 1.0
C      1  0.5167830000000  0.4778260000000  0.5152800000000 1.0
C      1  0.4808900000000  0.4823560000000  0.5685060000000 1.0
C      1  0.5193960000000  0.4824860000000  0.5686400000000 1.0
C      1  0.5383320000000  0.4174210000000  0.4505730000000 1.0
C      1  0.4617340000000  0.4173760000000  0.4504520000000 1.0
C      1  0.4854270000000  0.5156730000000  0.4688470000000 1.0
C      1  0.5144440000000  0.5156810000000  0.4688730000000 1.0
C      1  0.5558220000000  0.4369140000000  0.4453170000000 1.0
C      1  0.4442370000000  0.4368490000000  0.4451410000000 1.0
C      1  0.4316220000000  0.4581170000000  0.5061020000000 1.0
C      1  0.5682190000000  0.4582520000000  0.5063620000000 1.0
C      1  0.4868620000000  0.5601780000000  0.5661570000000 1.0
C      1  0.5134640000000  0.5601990000000  0.5661080000000 1.0
C      1  0.5148570000000  0.4708220000000  0.4849620000000 1.0
C      1  0.4850450000000  0.4708180000000  0.4849260000000 1.0
C      1  0.5134730000000  0.5997350000000  0.4873940000000 1.0
C      1  0.4864220000000  0.5997370000000  0.4874330000000 1.0
C      1  0.4853180000000  0.5569160000000  0.5086030000000 1.0
C      1  0.5146660000000  0.5569430000000  0.5086190000000 1.0
C      1  0.5285000000000  0.5387760000000  0.4771370000000 1.0
C      1  0.4713370000000  0.5387300000000  0.4771950000000 1.0
C      1  0.4549250000000  0.5248980000000  0.5658450000000 1.0
C      1  0.5454860000000  0.5248860000000  0.5656860000000 1.0
C      1  0.5308560000000  0.5034200000000  0.5251790000000 1.0
C      1  0.4690610000000  0.5033880000000  0.5252030000000 1.0
C      1  0.5338880000000  0.4698360000000  0.4200000000000 1.0
C      1  0.4662100000000  0.4698010000000  0.4198980000000 1.0
C      1  0.5132990000000  0.4088670000000  0.4528540000000 1.0
C      1  0.4867690000000  0.4088510000000  0.4528120000000 1.0
C      1  0.5260610000000  0.4535800000000  0.5301360000000 1.0
C      1  0.4737160000000  0.4535180000000  0.5300300000000 1.0
C      1  0.5528990000000  0.5437130000000  0.4918110000000 1.0
C      1  0.4469990000000  0.5437030000000  0.4919820000000 1.0
C      1  0.4741440000000  0.4882470000000  0.4633980000000 1.0
C      1  0.5257870000000  0.4882690000000  0.4634680000000 1.0
C      1  0.4464430000000  0.4488560000000  0.5263640000000 1.0
C      1  0.5533810000000  0.4490260000000  0.5266330000000 1.0
END
