TITL C-38197-8510-31 -1.11797703646019e-06 125000 -358.194844436872 0 0 60 (C1) n - 1
REM
REM in /home/bkarasulu/CARBON/AIRSS/Generating-Clusters/EDIP-Nigel-Params/Higher-Symm/Box-15A/Only-C60/SD-CG/FIRE-HFTN
REM
REM
REM
REM
REM
REM ./C.cell (414f73aa93bd7a1190c7fd0f31ff2f98)
REM
REM compiler GCC version 9.2.1 20190827 (Red Hat 9.2.1-1)
REM options -cpp -mtune=generic -march=x86-64 -g -O0 -fpre-include=/usr/include/finclude/math-vector-fortran.h
REM seed 652527036 268297255 -2036239841 -1725505268 992971294 -1144416116 806047377 -1380408428 1246473610 1615089831 820725864 -1506636396 1448550564 -966457924 -1501343031 -113416410 426005505 -689939530 1345298152 -697389224 -2120309844 363209595 101957635 -940485845 -2060970152 1197853304 -1550367853 916071789 -996091383 -1949095134 -773429879 465115448 -2080488251
REM
CELL 1.54180   50.00000   50.00000   50.00000   90.00000   90.00000   90.00000
LATT -1
SFAC C  
C      1  0.4848690000000  0.4705280000000  0.5788960000000 1.0
C      1  0.5608920000000  0.4897570000000  0.4680310000000 1.0
C      1  0.4750320000000  0.5578270000000  0.4988730000000 1.0
C      1  0.4939090000000  0.5257470000000  0.4366160000000 1.0
C      1  0.4990130000000  0.5319900000000  0.5683520000000 1.0
C      1  0.5112970000000  0.4709850000000  0.4548530000000 1.0
C      1  0.5795820000000  0.5202100000000  0.5169260000000 1.0
C      1  0.4404290000000  0.5120290000000  0.4688210000000 1.0
C      1  0.4454260000000  0.4819930000000  0.5260270000000 1.0
C      1  0.4692590000000  0.4386760000000  0.5101340000000 1.0
C      1  0.5336250000000  0.4331920000000  0.4837810000000 1.0
C      1  0.5339520000000  0.5474120000000  0.5161470000000 1.0
C      1  0.5054160000000  0.4735130000000  0.5605900000000 1.0
C      1  0.4301390000000  0.4865070000000  0.4647700000000 1.0
C      1  0.5327130000000  0.5625450000000  0.4925210000000 1.0
C      1  0.5183790000000  0.5219090000000  0.4241480000000 1.0
C      1  0.4758300000000  0.5246800000000  0.5544300000000 1.0
C      1  0.4866930000000  0.4700770000000  0.4408610000000 1.0
C      1  0.4312820000000  0.5063020000000  0.5270110000000 1.0
C      1  0.5465860000000  0.5139430000000  0.4681050000000 1.0
C      1  0.5668220000000  0.4956730000000  0.5217710000000 1.0
C      1  0.5307310000000  0.4424830000000  0.5098800000000 1.0
C      1  0.4702780000000  0.4529520000000  0.4857910000000 1.0
C      1  0.4818260000000  0.5753730000000  0.5194080000000 1.0
C      1  0.5235630000000  0.5622520000000  0.5375030000000 1.0
C      1  0.5226620000000  0.5201900000000  0.5742080000000 1.0
C      1  0.5815830000000  0.5380990000000  0.4967480000000 1.0
C      1  0.5120810000000  0.4287720000000  0.4680810000000 1.0
C      1  0.4895850000000  0.4399730000000  0.5292950000000 1.0
C      1  0.4922290000000  0.5561110000000  0.4755690000000 1.0
C      1  0.5308280000000  0.4812890000000  0.4373860000000 1.0
C      1  0.4618480000000  0.4836050000000  0.5836380000000 1.0
C      1  0.4737010000000  0.5100290000000  0.4261040000000 1.0
C      1  0.5747580000000  0.4732910000000  0.4842710000000 1.0
C      1  0.4333520000000  0.4645910000000  0.5076990000000 1.0
C      1  0.4235010000000  0.5277340000000  0.4849440000000 1.0
C      1  0.5012300000000  0.5774700000000  0.5378740000000 1.0
C      1  0.4604310000000  0.5060040000000  0.5685560000000 1.0
C      1  0.4360390000000  0.5281930000000  0.5100390000000 1.0
C      1  0.4861780000000  0.4371930000000  0.4684750000000 1.0
C      1  0.5133660000000  0.4258340000000  0.5246090000000 1.0
C      1  0.5150590000000  0.5722300000000  0.4744670000000 1.0
C      1  0.4691940000000  0.4835370000000  0.4251120000000 1.0
C      1  0.5229800000000  0.4946030000000  0.5653350000000 1.0
C      1  0.5353050000000  0.5013790000000  0.4195970000000 1.0
C      1  0.4246240000000  0.4666560000000  0.4821040000000 1.0
C      1  0.5786200000000  0.4723990000000  0.5110040000000 1.0
C      1  0.5633980000000  0.5346920000000  0.4768390000000 1.0
C      1  0.5212370000000  0.4713250000000  0.5123110000000 1.0
C      1  0.4652640000000  0.5301340000000  0.5049700000000 1.0
C      1  0.4750570000000  0.4869900000000  0.5209410000000 1.0
C      1  0.4788300000000  0.4830030000000  0.4902140000000 1.0
C      1  0.5092230000000  0.4828860000000  0.4835640000000 1.0
C      1  0.4973760000000  0.4682220000000  0.5323210000000 1.0
C      1  0.4939280000000  0.5276330000000  0.4665460000000 1.0
C      1  0.4815000000000  0.5163140000000  0.5265280000000 1.0
C      1  0.5190440000000  0.5125410000000  0.4815990000000 1.0
C      1  0.5226730000000  0.5202210000000  0.5116460000000 1.0
C      1  0.5370080000000  0.4957840000000  0.5234690000000 1.0
C      1  0.4687680000000  0.5125200000000  0.4796920000000 1.0
END
