TITL C-38197-8510-328 -1.98743776428325e-07 125000 -368.077291412101 0 0 60 (C2) n - 1
REM
REM in /home/bkarasulu/CARBON/AIRSS/Generating-Clusters/EDIP-Nigel-Params/Higher-Symm/Box-15A/Only-C60/SD-CG/FIRE-HFTN
REM
REM
REM
REM
REM
REM ./C.cell (414f73aa93bd7a1190c7fd0f31ff2f98)
REM
REM compiler GCC version 9.2.1 20190827 (Red Hat 9.2.1-1)
REM options -cpp -mtune=generic -march=x86-64 -g -O0 -fpre-include=/usr/include/finclude/math-vector-fortran.h
REM seed 1091695961 1548865129 -1016127814 307136522 -57321567 -203979766 2048350770 -740165971 1396390603 -942472340 1661766641 -1545939165 1728679219 1523094782 -330843799 1703186611 -1053493346 -277559347 -1359386938 -349131051 -768022056 1653155546 -1162096667 -210757191 -850260154 -157918353 -430223096 -229496977 -257306408 -353254062 -1043954191 -411813024 -2108105767
REM
CELL 1.54180   50.00000   50.00000   50.00000   90.00000   90.00000   90.00000
LATT -1
SFAC C  
C      1  0.5036640000000  0.5156130000000  0.5312110000000 1.0
C      1  0.4963360000000  0.4843870000000  0.5312110000000 1.0
C      1  0.5395490000000  0.4875690000000  0.5140660000000 1.0
C      1  0.4604510000000  0.5124310000000  0.5140660000000 1.0
C      1  0.5081030000000  0.5261890000000  0.5596890000000 1.0
C      1  0.4918970000000  0.4738110000000  0.5596890000000 1.0
C      1  0.4521410000000  0.4662430000000  0.5078430000000 1.0
C      1  0.5478590000000  0.5337570000000  0.5078430000000 1.0
C      1  0.4572740000000  0.5291100000000  0.4682390000000 1.0
C      1  0.5427260000000  0.4708900000000  0.4682390000000 1.0
C      1  0.4943240000000  0.5616860000000  0.4783150000000 1.0
C      1  0.5056760000000  0.4383140000000  0.4783150000000 1.0
C      1  0.4758370000000  0.4860400000000  0.5068720000000 1.0
C      1  0.5241630000000  0.5139600000000  0.5068720000000 1.0
C      1  0.5353510000000  0.5048870000000  0.4316860000000 1.0
C      1  0.4646490000000  0.4951130000000  0.4316860000000 1.0
C      1  0.4613000000000  0.4534490000000  0.4635130000000 1.0
C      1  0.5387000000000  0.5465510000000  0.4635130000000 1.0
C      1  0.4694920000000  0.5523770000000  0.5651220000000 1.0
C      1  0.5305080000000  0.4476230000000  0.5651220000000 1.0
C      1  0.4965570000000  0.5346510000000  0.4382060000000 1.0
C      1  0.5034430000000  0.4653490000000  0.4382060000000 1.0
C      1  0.4622180000000  0.5061580000000  0.5610290000000 1.0
C      1  0.5377820000000  0.4938420000000  0.5610290000000 1.0
C      1  0.5342610000000  0.5602370000000  0.5098520000000 1.0
C      1  0.4657390000000  0.4397630000000  0.5098520000000 1.0
C      1  0.4460690000000  0.5015770000000  0.5381510000000 1.0
C      1  0.5539310000000  0.4984230000000  0.5381510000000 1.0
C      1  0.4798270000000  0.5263440000000  0.5714680000000 1.0
C      1  0.5201730000000  0.4736560000000  0.5714680000000 1.0
C      1  0.4805780000000  0.5322980000000  0.5212470000000 1.0
C      1  0.5194220000000  0.4677020000000  0.5212470000000 1.0
C      1  0.4881280000000  0.5352410000000  0.4674200000000 1.0
C      1  0.5118720000000  0.4647590000000  0.4674200000000 1.0
C      1  0.5729330000000  0.5090100000000  0.4679620000000 1.0
C      1  0.4270670000000  0.4909900000000  0.4679620000000 1.0
C      1  0.5061790000000  0.5130350000000  0.4814980000000 1.0
C      1  0.4938210000000  0.4869650000000  0.4814980000000 1.0
C      1  0.5286590000000  0.4466410000000  0.5376840000000 1.0
C      1  0.4713410000000  0.5533590000000  0.5376840000000 1.0
C      1  0.4186860000000  0.5086550000000  0.4888140000000 1.0
C      1  0.5813140000000  0.4913450000000  0.4888140000000 1.0
C      1  0.5158400000000  0.4859440000000  0.4229140000000 1.0
C      1  0.4841600000000  0.5140560000000  0.4229140000000 1.0
C      1  0.4777570000000  0.4366900000000  0.4823480000000 1.0
C      1  0.5222430000000  0.5633100000000  0.4823480000000 1.0
C      1  0.5607070000000  0.5339920000000  0.4792470000000 1.0
C      1  0.4392930000000  0.4660080000000  0.4792470000000 1.0
C      1  0.5181120000000  0.5525020000000  0.5565860000000 1.0
C      1  0.4818880000000  0.4474980000000  0.5565860000000 1.0
C      1  0.5541480000000  0.4923930000000  0.4509460000000 1.0
C      1  0.4458520000000  0.5076070000000  0.4509460000000 1.0
C      1  0.5220860000000  0.5669810000000  0.5340770000000 1.0
C      1  0.4779140000000  0.4330190000000  0.5340770000000 1.0
C      1  0.4367250000000  0.4756210000000  0.5312270000000 1.0
C      1  0.5632750000000  0.5243790000000  0.5312270000000 1.0
C      1  0.4424060000000  0.5238470000000  0.4932590000000 1.0
C      1  0.5575940000000  0.4761530000000  0.4932590000000 1.0
C      1  0.4739600000000  0.4675850000000  0.4395060000000 1.0
C      1  0.5260400000000  0.5324150000000  0.4395060000000 1.0
END
