TITL C-38185-7677-33 2.0625835958554e-06 125000 -367.486673366973 0 0 60 (C2) n - 1
REM
REM in /home/bkarasulu/CARBON/AIRSS/Generating-Clusters/EDIP-Nigel-Params/Higher-Symm/Box-15A/Only-C60/SD-CG/FIRE-HFTN
REM
REM
REM
REM
REM
REM ./C.cell (414f73aa93bd7a1190c7fd0f31ff2f98)
REM
REM compiler GCC version 9.2.1 20190827 (Red Hat 9.2.1-1)
REM options -cpp -mtune=generic -march=x86-64 -g -O0 -fpre-include=/usr/include/finclude/math-vector-fortran.h
REM seed 1266318533 -836307903 -824338969 1712785053 -716510957 -925101640 -257745314 1458112826 -270296631 -1527137557 -994768303 1582811834 75582056 492748736 -1654799480 -1066837326 -2054400490 603862983 830172618 1896739545 -1230594731 -756595926 -2141279169 1800197753 300478277 750418143 -186996234 57238762 -274583939 1878672129 1425732884 -1488512939 -1952549621
REM
CELL 1.54180   50.00000   50.00000   50.00000   90.00000   90.00000   90.00000
LATT -1
SFAC C  
C      1  0.4870920000000  0.5533860000000  0.4532330000000 1.0
C      1  0.4463110000000  0.5148930000000  0.4572980000000 1.0
C      1  0.4661970000000  0.4659810000000  0.4515110000000 1.0
C      1  0.5129000000000  0.4466170000000  0.4532280000000 1.0
C      1  0.5536810000000  0.4851090000000  0.4572880000000 1.0
C      1  0.5337950000000  0.5340220000000  0.4515070000000 1.0
C      1  0.4850230000000  0.4477620000000  0.4629530000000 1.0
C      1  0.4507740000000  0.4871220000000  0.4636380000000 1.0
C      1  0.4658390000000  0.5343750000000  0.4653530000000 1.0
C      1  0.5149710000000  0.5522400000000  0.4629540000000 1.0
C      1  0.5492200000000  0.5128800000000  0.4636310000000 1.0
C      1  0.5341550000000  0.4656260000000  0.4653450000000 1.0
C      1  0.4506670000000  0.4658100000000  0.5211710000000 1.0
C      1  0.5208390000000  0.4242010000000  0.5088160000000 1.0
C      1  0.5726650000000  0.4845540000000  0.5233120000000 1.0
C      1  0.5493370000000  0.5341890000000  0.5211650000000 1.0
C      1  0.4791630000000  0.5757990000000  0.5088240000000 1.0
C      1  0.4273390000000  0.5154450000000  0.5233250000000 1.0
C      1  0.4519110000000  0.5340350000000  0.5208010000000 1.0
C      1  0.5040470000000  0.5627540000000  0.5170530000000 1.0
C      1  0.5719370000000  0.5165130000000  0.5210590000000 1.0
C      1  0.5480920000000  0.4659640000000  0.5207900000000 1.0
C      1  0.4959560000000  0.4372450000000  0.5170500000000 1.0
C      1  0.4280660000000  0.4834860000000  0.5210700000000 1.0
C      1  0.5574270000000  0.5543930000000  0.4755670000000 1.0
C      1  0.4706260000000  0.5782420000000  0.4650670000000 1.0
C      1  0.4230360000000  0.5233230000000  0.4705970000000 1.0
C      1  0.4425680000000  0.4456090000000  0.4755740000000 1.0
C      1  0.5293680000000  0.4217600000000  0.4650580000000 1.0
C      1  0.5769590000000  0.4766780000000  0.4705820000000 1.0
C      1  0.5498380000000  0.4420140000000  0.4767600000000 1.0
C      1  0.4747300000000  0.4233820000000  0.4742690000000 1.0
C      1  0.4270760000000  0.4722680000000  0.4716940000000 1.0
C      1  0.4501580000000  0.5579870000000  0.4767720000000 1.0
C      1  0.5252660000000  0.5766190000000  0.4742690000000 1.0
C      1  0.5729190000000  0.5277340000000  0.4716830000000 1.0
C      1  0.5145900000000  0.4612760000000  0.5555000000000 1.0
C      1  0.5536850000000  0.4906430000000  0.5572790000000 1.0
C      1  0.5327940000000  0.5338930000000  0.5442390000000 1.0
C      1  0.4854200000000  0.5387210000000  0.5555050000000 1.0
C      1  0.4463250000000  0.5093540000000  0.5572890000000 1.0
C      1  0.4672140000000  0.4661050000000  0.5442420000000 1.0
C      1  0.5075790000000  0.5474280000000  0.5414260000000 1.0
C      1  0.5380270000000  0.5129920000000  0.5618080000000 1.0
C      1  0.5409300000000  0.4666430000000  0.5484130000000 1.0
C      1  0.4924280000000  0.4525690000000  0.5414240000000 1.0
C      1  0.4619840000000  0.4870040000000  0.5618130000000 1.0
C      1  0.4590780000000  0.5333540000000  0.5484220000000 1.0
C      1  0.5276100000000  0.5742660000000  0.5034580000000 1.0
C      1  0.4540970000000  0.5594910000000  0.5063630000000 1.0
C      1  0.4120610000000  0.4842120000000  0.4958450000000 1.0
C      1  0.4723900000000  0.4257340000000  0.5034580000000 1.0
C      1  0.5459040000000  0.4405080000000  0.5063520000000 1.0
C      1  0.5879380000000  0.5157880000000  0.4958310000000 1.0
C      1  0.5176020000000  0.4070360000000  0.4864150000000 1.0
C      1  0.4485630000000  0.4423500000000  0.5046300000000 1.0
C      1  0.4107500000000  0.5145720000000  0.4944960000000 1.0
C      1  0.4823950000000  0.5929650000000  0.4864230000000 1.0
C      1  0.5514370000000  0.5576490000000  0.5046250000000 1.0
C      1  0.5892490000000  0.4854290000000  0.4944800000000 1.0
END
