TITL C-38196-2854-262 7.87758118950092e-05 125000 -357.328911929818 0 0 60 (Ci) n - 1
REM
REM in /home/bkarasulu/CARBON/AIRSS/Generating-Clusters/EDIP-Nigel-Params/Higher-Symm/Box-15A/Only-C60/SD-CG/FIRE-HFTN
REM
REM
REM
REM
REM
REM ./C.cell (414f73aa93bd7a1190c7fd0f31ff2f98)
REM
REM compiler GCC version 9.2.1 20190827 (Red Hat 9.2.1-1)
REM options -cpp -mtune=generic -march=x86-64 -g -O0 -fpre-include=/usr/include/finclude/math-vector-fortran.h
REM seed -1936075640 -976372223 -1954464850 -1578245560 -460383170 2132673695 43934547 323020655 -1241466009 394533699 -1752116972 309719597 2123421318 -185349194 -1333384571 -458426917 1611402183 1036843827 1705066350 40170435 109509767 -1299295196 1128568568 -1477651394 -1721035437 -2017876941 -1194785862 -472466322 -2030763865 1485766874 2008717511 1160514455 -1195133638
REM
CELL 1.54180   50.00000   50.00000   50.00000   90.00000   90.00000   90.00000
LATT -1
SFAC C  
C      1  0.5091720000000  0.4380980000000  0.4794860000000 1.0
C      1  0.4908280000000  0.5619020000000  0.5205140000000 1.0
C      1  0.5477550000000  0.4294160000000  0.5559380000000 1.0
C      1  0.4522450000000  0.5705840000000  0.4440620000000 1.0
C      1  0.5378750000000  0.5604940000000  0.4715650000000 1.0
C      1  0.4621250000000  0.4395060000000  0.5284350000000 1.0
C      1  0.4625290000000  0.5552460000000  0.5240380000000 1.0
C      1  0.5374710000000  0.4447540000000  0.4759620000000 1.0
C      1  0.4553270000000  0.4855230000000  0.5775520000000 1.0
C      1  0.5446730000000  0.5144770000000  0.4224480000000 1.0
C      1  0.5552220000000  0.4548600000000  0.5539830000000 1.0
C      1  0.4447780000000  0.5451400000000  0.4460170000000 1.0
C      1  0.5542680000000  0.4441620000000  0.4985060000000 1.0
C      1  0.4457320000000  0.5558380000000  0.5014940000000 1.0
C      1  0.4974770000000  0.5750820000000  0.4957980000000 1.0
C      1  0.5025230000000  0.4249180000000  0.5042020000000 1.0
C      1  0.5392010000000  0.5405850000000  0.4929570000000 1.0
C      1  0.4607990000000  0.4594150000000  0.5070430000000 1.0
C      1  0.5249140000000  0.5768230000000  0.4894570000000 1.0
C      1  0.4750860000000  0.4231770000000  0.5105430000000 1.0
C      1  0.4864820000000  0.4492530000000  0.4642050000000 1.0
C      1  0.5135180000000  0.5507470000000  0.5357950000000 1.0
C      1  0.5190650000000  0.5185940000000  0.4931210000000 1.0
C      1  0.4809350000000  0.4814060000000  0.5068790000000 1.0
C      1  0.5626460000000  0.4750880000000  0.5364900000000 1.0
C      1  0.4373540000000  0.5249120000000  0.4635100000000 1.0
C      1  0.5204710000000  0.4101800000000  0.5192080000000 1.0
C      1  0.4795290000000  0.5898200000000  0.4807920000000 1.0
C      1  0.5602680000000  0.4867810000000  0.4634730000000 1.0
C      1  0.4397320000000  0.5132190000000  0.5365270000000 1.0
C      1  0.4422720000000  0.4925000000000  0.5544500000000 1.0
C      1  0.5577280000000  0.5075000000000  0.4455500000000 1.0
C      1  0.4842540000000  0.5068010000000  0.5905410000000 1.0
C      1  0.5157460000000  0.4931990000000  0.4094590000000 1.0
C      1  0.4269250000000  0.4831260000000  0.4952060000000 1.0
C      1  0.5730750000000  0.5168740000000  0.5047940000000 1.0
C      1  0.4960310000000  0.5192550000000  0.4781740000000 1.0
C      1  0.5039690000000  0.4807450000000  0.5218260000000 1.0
C      1  0.5405570000000  0.5510760000000  0.5222810000000 1.0
C      1  0.4594430000000  0.4489240000000  0.4777190000000 1.0
C      1  0.5109870000000  0.5432550000000  0.5623140000000 1.0
C      1  0.4890130000000  0.4567450000000  0.4376860000000 1.0
C      1  0.5219130000000  0.5007700000000  0.5159100000000 1.0
C      1  0.4780870000000  0.4992300000000  0.4840900000000 1.0
C      1  0.5660540000000  0.4677370000000  0.5087370000000 1.0
C      1  0.4339460000000  0.5322630000000  0.4912630000000 1.0
C      1  0.4343670000000  0.5086670000000  0.5080980000000 1.0
C      1  0.5656330000000  0.4913330000000  0.4919020000000 1.0
C      1  0.4992340000000  0.5270330000000  0.5797650000000 1.0
C      1  0.5007660000000  0.4729670000000  0.4202350000000 1.0
C      1  0.4827240000000  0.4816420000000  0.5790480000000 1.0
C      1  0.5172760000000  0.5183580000000  0.4209520000000 1.0
C      1  0.5481080000000  0.5018330000000  0.5303360000000 1.0
C      1  0.4518920000000  0.4981670000000  0.4696640000000 1.0
C      1  0.5356310000000  0.4110210000000  0.5410870000000 1.0
C      1  0.4643690000000  0.5889790000000  0.4589130000000 1.0
C      1  0.5617550000000  0.5302150000000  0.5293670000000 1.0
C      1  0.4382450000000  0.4697850000000  0.4706330000000 1.0
C      1  0.4534520000000  0.5367500000000  0.5428290000000 1.0
C      1  0.5465480000000  0.4632500000000  0.4571710000000 1.0
END
