TITL C-38192-7909-510 -6.56100562070187e-06 125000 -378.780791226618 0 0 60 (C1) n - 1
REM
REM in /home/bkarasulu/CARBON/AIRSS/Generating-Clusters/EDIP-Nigel-Params/Higher-Symm/Box-15A/Only-C60/SD-CG/FIRE-HFTN
REM
REM
REM
REM
REM
REM ./C.cell (414f73aa93bd7a1190c7fd0f31ff2f98)
REM
REM compiler GCC version 9.2.1 20190827 (Red Hat 9.2.1-1)
REM options -cpp -mtune=generic -march=x86-64 -g -O0 -fpre-include=/usr/include/finclude/math-vector-fortran.h
REM seed -66926813 -1899757613 -889251056 -568177086 1330840265 -1198874405 1752960832 281001300 1053404635 1382759433 -660508924 -242939152 -870952455 -789139965 1682009380 1325786458 -1298060716 -1792866324 -1873863884 1955247172 1402224792 1529822397 1451357065 -1961697787 1163991755 -299185250 2018007762 1418420613 1396606496 -1357830411 -247513976 293757515 -1446507858
REM
CELL 1.54180   50.00000   50.00000   50.00000   90.00000   90.00000   90.00000
LATT -1
SFAC C  
C      1  0.4651830000000  0.4433310000000  0.5184380000000 1.0
C      1  0.4290700000000  0.5056120000000  0.4711360000000 1.0
C      1  0.5239930000000  0.4635560000000  0.4258060000000 1.0
C      1  0.4596030000000  0.5707330000000  0.4806150000000 1.0
C      1  0.5314910000000  0.4293760000000  0.4841990000000 1.0
C      1  0.5375390000000  0.5583390000000  0.5194260000000 1.0
C      1  0.4354690000000  0.4994260000000  0.5376200000000 1.0
C      1  0.5656780000000  0.5002520000000  0.5372980000000 1.0
C      1  0.5712020000000  0.4945800000000  0.4748670000000 1.0
C      1  0.5105710000000  0.5249340000000  0.5809430000000 1.0
C      1  0.4930070000000  0.4763960000000  0.5805930000000 1.0
C      1  0.4779080000000  0.5362480000000  0.4250360000000 1.0
C      1  0.5224860000000  0.4195480000000  0.5089380000000 1.0
C      1  0.5573250000000  0.5164320000000  0.4633520000000 1.0
C      1  0.4975570000000  0.4570630000000  0.4318950000000 1.0
C      1  0.5243170000000  0.5738140000000  0.4995800000000 1.0
C      1  0.4770130000000  0.4268860000000  0.4984580000000 1.0
C      1  0.4627220000000  0.5697130000000  0.5081330000000 1.0
C      1  0.5690260000000  0.4747050000000  0.5273000000000 1.0
C      1  0.4269990000000  0.5258430000000  0.5332360000000 1.0
C      1  0.4442590000000  0.4837860000000  0.4613130000000 1.0
C      1  0.4882640000000  0.5382720000000  0.5694340000000 1.0
C      1  0.5167560000000  0.4653360000000  0.5703310000000 1.0
C      1  0.5033140000000  0.5424070000000  0.4345040000000 1.0
C      1  0.5303880000000  0.5273040000000  0.5609570000000 1.0
C      1  0.5207120000000  0.5442530000000  0.5389130000000 1.0
C      1  0.5703920000000  0.5221540000000  0.5213600000000 1.0
C      1  0.5403410000000  0.4792520000000  0.4423630000000 1.0
C      1  0.4583910000000  0.5201150000000  0.4367340000000 1.0
C      1  0.4728420000000  0.4736380000000  0.5609720000000 1.0
C      1  0.5164580000000  0.4245150000000  0.4613780000000 1.0
C      1  0.4829660000000  0.5732870000000  0.4659690000000 1.0
C      1  0.4819490000000  0.4545090000000  0.5402980000000 1.0
C      1  0.5563610000000  0.4720670000000  0.4660320000000 1.0
C      1  0.4404110000000  0.5279140000000  0.4579610000000 1.0
C      1  0.4302750000000  0.4789350000000  0.5201690000000 1.0
C      1  0.4618210000000  0.5246310000000  0.5661980000000 1.0
C      1  0.4686980000000  0.5533350000000  0.5297180000000 1.0
C      1  0.4473570000000  0.5413200000000  0.5459550000000 1.0
C      1  0.4772260000000  0.4745260000000  0.4254380000000 1.0
C      1  0.5242550000000  0.5254800000000  0.4284680000000 1.0
C      1  0.5399950000000  0.4804890000000  0.5728580000000 1.0
C      1  0.4731740000000  0.4417730000000  0.4746730000000 1.0
C      1  0.5274200000000  0.5584420000000  0.4761390000000 1.0
C      1  0.5319530000000  0.4384930000000  0.5279450000000 1.0
C      1  0.4535490000000  0.4627450000000  0.4788030000000 1.0
C      1  0.5466520000000  0.5372070000000  0.4805210000000 1.0
C      1  0.5523450000000  0.4559540000000  0.5149930000000 1.0
C      1  0.4595400000000  0.4983440000000  0.5528860000000 1.0
C      1  0.5450820000000  0.5026580000000  0.5566960000000 1.0
C      1  0.5422660000000  0.5080080000000  0.4402430000000 1.0
C      1  0.4606900000000  0.4917350000000  0.4392430000000 1.0
C      1  0.4947270000000  0.4407900000000  0.4553300000000 1.0
C      1  0.4443350000000  0.4597650000000  0.5059280000000 1.0
C      1  0.4937550000000  0.5541590000000  0.5452170000000 1.0
C      1  0.5108750000000  0.4504040000000  0.5459010000000 1.0
C      1  0.5043800000000  0.5571180000000  0.4590660000000 1.0
C      1  0.4413600000000  0.5532550000000  0.4692370000000 1.0
C      1  0.5481340000000  0.4527480000000  0.4865680000000 1.0
C      1  0.5581750000000  0.5420870000000  0.5064220000000 1.0
END
