TITL C-38190-6388-81 -6.52513590471667e-05 125000 -368.821426734115 0 0 60 (C1) n - 1
REM
REM in /home/bkarasulu/CARBON/AIRSS/Generating-Clusters/EDIP-Nigel-Params/Higher-Symm/Box-15A/Only-C60/SD-CG/FIRE-HFTN
REM
REM
REM
REM
REM
REM ./C.cell (414f73aa93bd7a1190c7fd0f31ff2f98)
REM
REM compiler GCC version 9.2.1 20190827 (Red Hat 9.2.1-1)
REM options -cpp -mtune=generic -march=x86-64 -g -O0 -fpre-include=/usr/include/finclude/math-vector-fortran.h
REM seed 1103284448 -316184913 -466399004 -503092156 -1622001264 -816750579 18480321 -2104404670 921136181 698770897 -183442525 -155647620 -1671382080 1396879420 819620333 -1721640520 1514191138 -178750604 400818323 1680899622 1284764568 -539213936 -140168159 9738768 -1584975764 2062476308 -668836079 1780207133 942699595 1598351491 1944767687 -926640438 1060134665
REM
CELL 1.54180   50.00000   50.00000   50.00000   90.00000   90.00000   90.00000
LATT -1
SFAC C  
C      1  0.4668500000000  0.4477940000000  0.4779280000000 1.0
C      1  0.4588950000000  0.4465380000000  0.5269020000000 1.0
C      1  0.5195520000000  0.4435990000000  0.5447880000000 1.0
C      1  0.5407700000000  0.4353700000000  0.5014950000000 1.0
C      1  0.5143260000000  0.4391680000000  0.4575920000000 1.0
C      1  0.5334020000000  0.4479770000000  0.4777570000000 1.0
C      1  0.5416290000000  0.4465450000000  0.5269300000000 1.0
C      1  0.4809400000000  0.4438220000000  0.5448350000000 1.0
C      1  0.4595900000000  0.4349870000000  0.5016120000000 1.0
C      1  0.4858460000000  0.4390690000000  0.4576430000000 1.0
C      1  0.4116860000000  0.5183640000000  0.4977380000000 1.0
C      1  0.4747760000000  0.5131920000000  0.5776630000000 1.0
C      1  0.5710680000000  0.5107520000000  0.5526490000000 1.0
C      1  0.5689470000000  0.5109710000000  0.4500040000000 1.0
C      1  0.4744690000000  0.5168110000000  0.4255300000000 1.0
C      1  0.5885940000000  0.5185200000000  0.4974570000000 1.0
C      1  0.5265130000000  0.5108020000000  0.5811670000000 1.0
C      1  0.4297070000000  0.5110240000000  0.5516630000000 1.0
C      1  0.4313250000000  0.5108450000000  0.4503420000000 1.0
C      1  0.5251120000000  0.5169010000000  0.4251600000000 1.0
C      1  0.5814660000000  0.4922270000000  0.4916000000000 1.0
C      1  0.5142320000000  0.4918510000000  0.4314110000000 1.0
C      1  0.4351010000000  0.4899790000000  0.4684500000000 1.0
C      1  0.4440200000000  0.4870680000000  0.5520730000000 1.0
C      1  0.5317770000000  0.4878710000000  0.5659280000000 1.0
C      1  0.4187180000000  0.4920540000000  0.4918130000000 1.0
C      1  0.4855430000000  0.4918310000000  0.4317310000000 1.0
C      1  0.5651930000000  0.4901050000000  0.4681370000000 1.0
C      1  0.5570510000000  0.4865280000000  0.5528350000000 1.0
C      1  0.4696090000000  0.4890720000000  0.5643480000000 1.0
C      1  0.4848550000000  0.5449160000000  0.5398070000000 1.0
C      1  0.5396030000000  0.5377120000000  0.5230890000000 1.0
C      1  0.5369280000000  0.5433280000000  0.4698800000000 1.0
C      1  0.4813320000000  0.5572810000000  0.4525380000000 1.0
C      1  0.4510350000000  0.5514180000000  0.4976230000000 1.0
C      1  0.5134480000000  0.5379950000000  0.5399750000000 1.0
C      1  0.4599960000000  0.5388640000000  0.5223680000000 1.0
C      1  0.4625300000000  0.5440820000000  0.4699710000000 1.0
C      1  0.5181890000000  0.5569310000000  0.4526800000000 1.0
C      1  0.5481960000000  0.5498740000000  0.4978020000000 1.0
C      1  0.4210270000000  0.4733940000000  0.5120430000000 1.0
C      1  0.4858890000000  0.4650700000000  0.5640410000000 1.0
C      1  0.5595590000000  0.4686100000000  0.5306590000000 1.0
C      1  0.5478170000000  0.4677790000000  0.4618240000000 1.0
C      1  0.4701830000000  0.4685150000000  0.4389670000000 1.0
C      1  0.5791220000000  0.4736800000000  0.5119170000000 1.0
C      1  0.5148980000000  0.4644620000000  0.5644210000000 1.0
C      1  0.4409390000000  0.4685810000000  0.5304990000000 1.0
C      1  0.4521860000000  0.4674630000000  0.4620020000000 1.0
C      1  0.5297810000000  0.4687060000000  0.4388220000000 1.0
C      1  0.5145490000000  0.5432670000000  0.4266480000000 1.0
C      1  0.4349750000000  0.5373920000000  0.4591390000000 1.0
C      1  0.4424520000000  0.5357810000000  0.5473680000000 1.0
C      1  0.5297890000000  0.5345770000000  0.5659060000000 1.0
C      1  0.5772480000000  0.5425430000000  0.4875110000000 1.0
C      1  0.4849340000000  0.5432380000000  0.4266840000000 1.0
C      1  0.5647180000000  0.5373730000000  0.4589950000000 1.0
C      1  0.5565040000000  0.5346570000000  0.5487070000000 1.0
C      1  0.4684480000000  0.5382420000000  0.5655000000000 1.0
C      1  0.4221640000000  0.5426340000000  0.4874330000000 1.0
END
