TITL C-38194-9318-208 -2.08696230048177e-07 125000 -360.530606575378 0 0 60 (C2) n - 1
REM
REM in /home/bkarasulu/CARBON/AIRSS/Generating-Clusters/EDIP-Nigel-Params/Higher-Symm/Box-15A/Only-C60/SD-CG/FIRE-HFTN
REM
REM
REM
REM
REM
REM ./C.cell (414f73aa93bd7a1190c7fd0f31ff2f98)
REM
REM compiler GCC version 9.2.1 20190827 (Red Hat 9.2.1-1)
REM options -cpp -mtune=generic -march=x86-64 -g -O0 -fpre-include=/usr/include/finclude/math-vector-fortran.h
REM seed -1699236588 -1760553103 -843952030 1793293316 -1486979576 -699848219 -1350690171 -1426612952 1375154731 -201978035 399728575 2131699791 -42330105 -871566343 1707545200 -2139456228 575766829 393953357 -2111346047 1457575362 -1656813443 697011687 -703369341 1252163213 -2130150805 -1718410377 -424767868 -1151380389 15880997 1746381299 1820656619 807481808 -629720925
REM
CELL 1.54180   50.00000   50.00000   50.00000   90.00000   90.00000   90.00000
LATT -1
SFAC C  
C      1  0.5525510000000  0.5380140000000  0.5211310000000 1.0
C      1  0.5537960000000  0.4684200000000  0.5480660000000 1.0
C      1  0.5525510000000  0.4619860000000  0.4788690000000 1.0
C      1  0.5537960000000  0.5315800000000  0.4519340000000 1.0
C      1  0.4450230000000  0.5379990000000  0.5205610000000 1.0
C      1  0.4448660000000  0.4680330000000  0.5481100000000 1.0
C      1  0.4450230000000  0.4620010000000  0.4794390000000 1.0
C      1  0.4448660000000  0.5319670000000  0.4518900000000 1.0
C      1  0.4336920000000  0.4905750000000  0.5342560000000 1.0
C      1  0.4334010000000  0.4650180000000  0.5053650000000 1.0
C      1  0.4336920000000  0.5094250000000  0.4657440000000 1.0
C      1  0.4334010000000  0.5349820000000  0.4946350000000 1.0
C      1  0.5647790000000  0.4912130000000  0.5346100000000 1.0
C      1  0.5638420000000  0.4665900000000  0.5048200000000 1.0
C      1  0.5647790000000  0.5087870000000  0.4653900000000 1.0
C      1  0.5638420000000  0.5334100000000  0.4951800000000 1.0
C      1  0.5518530000000  0.4497870000000  0.5251090000000 1.0
C      1  0.5482780000000  0.4853090000000  0.4614940000000 1.0
C      1  0.5518530000000  0.5502130000000  0.4748910000000 1.0
C      1  0.5482780000000  0.5146910000000  0.5385060000000 1.0
C      1  0.4463350000000  0.4486710000000  0.5257060000000 1.0
C      1  0.4510180000000  0.4863730000000  0.4640740000000 1.0
C      1  0.4463350000000  0.5513290000000  0.4742940000000 1.0
C      1  0.4510180000000  0.5136270000000  0.5359260000000 1.0
C      1  0.5136270000000  0.5196320000000  0.5110960000000 1.0
C      1  0.5152700000000  0.4885740000000  0.5252120000000 1.0
C      1  0.5136270000000  0.4803680000000  0.4889040000000 1.0
C      1  0.5152700000000  0.5114260000000  0.4747880000000 1.0
C      1  0.4831670000000  0.5212220000000  0.5063780000000 1.0
C      1  0.4841480000000  0.4871890000000  0.5248150000000 1.0
C      1  0.4831670000000  0.4787780000000  0.4936220000000 1.0
C      1  0.4841480000000  0.5128110000000  0.4751850000000 1.0
C      1  0.5134110000000  0.4551850000000  0.4520030000000 1.0
C      1  0.5140990000000  0.5535990000000  0.4511760000000 1.0
C      1  0.5134110000000  0.5448150000000  0.5479970000000 1.0
C      1  0.5140990000000  0.4464010000000  0.5488240000000 1.0
C      1  0.4840140000000  0.4554450000000  0.4526580000000 1.0
C      1  0.4851590000000  0.5543230000000  0.4508540000000 1.0
C      1  0.4840140000000  0.5445550000000  0.5473420000000 1.0
C      1  0.4851590000000  0.4456770000000  0.5491460000000 1.0
C      1  0.5238030000000  0.4817470000000  0.4433720000000 1.0
C      1  0.5233510000000  0.5609200000000  0.4779740000000 1.0
C      1  0.5238030000000  0.5182530000000  0.5566280000000 1.0
C      1  0.5233510000000  0.4390800000000  0.5220260000000 1.0
C      1  0.4741100000000  0.4824020000000  0.4449440000000 1.0
C      1  0.4751720000000  0.5626280000000  0.4773440000000 1.0
C      1  0.4741100000000  0.5175980000000  0.5550560000000 1.0
C      1  0.4751720000000  0.4373720000000  0.5226560000000 1.0
C      1  0.5237770000000  0.5480880000000  0.5201400000000 1.0
C      1  0.5246620000000  0.4739740000000  0.5530850000000 1.0
C      1  0.5237770000000  0.4519120000000  0.4798600000000 1.0
C      1  0.5246620000000  0.5260260000000  0.4469150000000 1.0
C      1  0.4738020000000  0.5485630000000  0.5190460000000 1.0
C      1  0.4742120000000  0.4730820000000  0.5522790000000 1.0
C      1  0.4738020000000  0.4514370000000  0.4809540000000 1.0
C      1  0.4742120000000  0.5269180000000  0.4477210000000 1.0
C      1  0.4994730000000  0.4321450000000  0.5032930000000 1.0
C      1  0.4987200000000  0.5010770000000  0.5640550000000 1.0
C      1  0.4987200000000  0.4989230000000  0.4359450000000 1.0
C      1  0.4994730000000  0.5678550000000  0.4967070000000 1.0
END
