TITL C-38195-9455-61 -4.3154609941217e-06 125000 -353.640851739128 0 0 60 (C4) n - 1
REM
REM in /home/bkarasulu/CARBON/AIRSS/Generating-Clusters/EDIP-Nigel-Params/Higher-Symm/Box-15A/Only-C60/SD-CG/FIRE-HFTN
REM
REM
REM
REM
REM
REM ./C.cell (414f73aa93bd7a1190c7fd0f31ff2f98)
REM
REM compiler GCC version 9.2.1 20190827 (Red Hat 9.2.1-1)
REM options -cpp -mtune=generic -march=x86-64 -g -O0 -fpre-include=/usr/include/finclude/math-vector-fortran.h
REM seed -657903204 26884122 578034709 1285755239 -234955048 254810218 -283243830 169783216 -81864424 1784665500 -2045285844 -1936172208 -311141886 1008535411 -1413510108 2051822169 1214598539 -261699936 1486032577 1529498281 -88021955 665273760 2137507817 541379666 -1039685948 -1569362633 -727716952 97365483 -5965356 1829388237 1710388461 1503055097 -906259207
REM
CELL 1.54180   50.00000   50.00000   50.00000   90.00000   90.00000   90.00000
LATT -1
SFAC C  
C      1  0.4555710000000  0.5433040000000  0.5455160000000 1.0
C      1  0.4555710000000  0.4544840000000  0.5433040000000 1.0
C      1  0.4555710000000  0.4566960000000  0.4544840000000 1.0
C      1  0.4555710000000  0.5455160000000  0.4566960000000 1.0
C      1  0.4989330000000  0.5066040000000  0.4193670000000 1.0
C      1  0.4989330000000  0.5806330000000  0.5066040000000 1.0
C      1  0.4989330000000  0.4933960000000  0.5806330000000 1.0
C      1  0.4989330000000  0.4193670000000  0.4933960000000 1.0
C      1  0.4413630000000  0.5217710000000  0.4594860000000 1.0
C      1  0.4413630000000  0.5405140000000  0.5217710000000 1.0
C      1  0.4413630000000  0.4782290000000  0.5405140000000 1.0
C      1  0.4413630000000  0.4594860000000  0.4782290000000 1.0
C      1  0.5543080000000  0.5190850000000  0.5380760000000 1.0
C      1  0.5543080000000  0.4619240000000  0.5190850000000 1.0
C      1  0.5543080000000  0.4809150000000  0.4619240000000 1.0
C      1  0.5543080000000  0.5380760000000  0.4809150000000 1.0
C      1  0.5049670000000  0.4601300000000  0.4518490000000 1.0
C      1  0.5049670000000  0.5481510000000  0.4601300000000 1.0
C      1  0.5049670000000  0.5398700000000  0.5481510000000 1.0
C      1  0.5049670000000  0.4518490000000  0.5398700000000 1.0
C      1  0.5478760000000  0.5131670000000  0.4635530000000 1.0
C      1  0.5478760000000  0.5364470000000  0.5131670000000 1.0
C      1  0.5478760000000  0.4868330000000  0.5364470000000 1.0
C      1  0.5478760000000  0.4635530000000  0.4868330000000 1.0
C      1  0.5419460000000  0.5217780000000  0.4360470000000 1.0
C      1  0.5419460000000  0.5639530000000  0.5217780000000 1.0
C      1  0.5419460000000  0.4782220000000  0.5639530000000 1.0
C      1  0.5419460000000  0.4360470000000  0.4782220000000 1.0
C      1  0.4728730000000  0.4780400000000  0.5100350000000 1.0
C      1  0.4728730000000  0.4899650000000  0.4780400000000 1.0
C      1  0.4728730000000  0.5219600000000  0.4899650000000 1.0
C      1  0.4728730000000  0.5100350000000  0.5219600000000 1.0
C      1  0.4776230000000  0.5652220000000  0.4972020000000 1.0
C      1  0.4776230000000  0.5027980000000  0.5652220000000 1.0
C      1  0.4776230000000  0.4347780000000  0.5027980000000 1.0
C      1  0.4776230000000  0.4972020000000  0.4347780000000 1.0
C      1  0.5251430000000  0.4271620000000  0.4989780000000 1.0
C      1  0.5251430000000  0.5010220000000  0.4271620000000 1.0
C      1  0.5251430000000  0.5728380000000  0.5010220000000 1.0
C      1  0.5251430000000  0.4989780000000  0.5728380000000 1.0
C      1  0.4783960000000  0.4400840000000  0.5317430000000 1.0
C      1  0.4783960000000  0.4682570000000  0.4400840000000 1.0
C      1  0.4783960000000  0.5599160000000  0.4682570000000 1.0
C      1  0.4783960000000  0.5317430000000  0.5599160000000 1.0
C      1  0.5212950000000  0.4793160000000  0.4915540000000 1.0
C      1  0.5212950000000  0.5084460000000  0.4793160000000 1.0
C      1  0.5212950000000  0.5206840000000  0.5084460000000 1.0
C      1  0.5212950000000  0.4915540000000  0.5206840000000 1.0
C      1  0.5301380000000  0.4765080000000  0.4428350000000 1.0
C      1  0.5301380000000  0.5571650000000  0.4765080000000 1.0
C      1  0.5301380000000  0.5234920000000  0.5571650000000 1.0
C      1  0.5301380000000  0.4428350000000  0.5234920000000 1.0
C      1  0.4962130000000  0.5329310000000  0.5192000000000 1.0
C      1  0.4962130000000  0.4808000000000  0.5329310000000 1.0
C      1  0.4962130000000  0.4670690000000  0.4808000000000 1.0
C      1  0.4962130000000  0.5192000000000  0.4670690000000 1.0
C      1  0.4533540000000  0.5124930000000  0.4362640000000 1.0
C      1  0.4533540000000  0.5637360000000  0.5124930000000 1.0
C      1  0.4533540000000  0.4875070000000  0.5637360000000 1.0
C      1  0.4533540000000  0.4362640000000  0.4875070000000 1.0
END
