TITL C-38196-2854-681 0.0460480226548492 125000 -355.508400077358 0 0 60 (C1) n - 1
REM
REM in /home/bkarasulu/CARBON/AIRSS/Generating-Clusters/EDIP-Nigel-Params/Higher-Symm/Box-15A/Only-C60/SD-CG/FIRE-HFTN
REM
REM
REM
REM
REM
REM ./C.cell (414f73aa93bd7a1190c7fd0f31ff2f98)
REM
REM compiler GCC version 9.2.1 20190827 (Red Hat 9.2.1-1)
REM options -cpp -mtune=generic -march=x86-64 -g -O0 -fpre-include=/usr/include/finclude/math-vector-fortran.h
REM seed -492149506 43426886 724228246 1030403663 -62162054 287445090 -1478977210 937423675 1713880249 1093417983 -2119589770 -11878306 231037907 1424852311 -1034529867 806254298 -445913769 -927033680 229708029 537039229 372872018 1105491715 -432830677 -993622465 -1145890461 294224363 -617286675 -1330450402 1057337954 -1490424535 -513970730 -926359167 1765234851
REM
CELL 1.54180   50.00000   50.00000   50.00000   90.00000   90.00000   90.00000
LATT -1
SFAC C  
C      1  0.4926580000000  0.4714550000000  0.5451760000000 1.0
C      1  0.5474050000000  0.4629610000000  0.5256880000000 1.0
C      1  0.5289290000000  0.4619030000000  0.4704710000000 1.0
C      1  0.4693900000000  0.4724980000000  0.4384410000000 1.0
C      1  0.4644060000000  0.4751610000000  0.5049580000000 1.0
C      1  0.4833710000000  0.4978530000000  0.5555320000000 1.0
C      1  0.5414660000000  0.4916190000000  0.5273930000000 1.0
C      1  0.5313830000000  0.4902150000000  0.4796820000000 1.0
C      1  0.4759480000000  0.4990290000000  0.4263640000000 1.0
C      1  0.4493210000000  0.5022970000000  0.4961280000000 1.0
C      1  0.5388330000000  0.4476870000000  0.5478740000000 1.0
C      1  0.5531300000000  0.4489040000000  0.4782410000000 1.0
C      1  0.4915400000000  0.4546510000000  0.4381400000000 1.0
C      1  0.4584660000000  0.4557180000000  0.4838710000000 1.0
C      1  0.4695930000000  0.4533950000000  0.5482360000000 1.0
C      1  0.4570880000000  0.5016670000000  0.5643260000000 1.0
C      1  0.5508260000000  0.5012040000000  0.5545930000000 1.0
C      1  0.5591310000000  0.4989000000000  0.4753240000000 1.0
C      1  0.5011430000000  0.4995350000000  0.4136910000000 1.0
C      1  0.4206840000000  0.4949510000000  0.4894270000000 1.0
C      1  0.4703790000000  0.5467530000000  0.5336400000000 1.0
C      1  0.5409900000000  0.5443870000000  0.5548180000000 1.0
C      1  0.5495160000000  0.5408080000000  0.4848250000000 1.0
C      1  0.4906700000000  0.5423560000000  0.4456340000000 1.0
C      1  0.4398130000000  0.5457720000000  0.4711690000000 1.0
C      1  0.4981420000000  0.5459100000000  0.5324290000000 1.0
C      1  0.5441700000000  0.5534520000000  0.5280950000000 1.0
C      1  0.5227170000000  0.5496850000000  0.4842660000000 1.0
C      1  0.4707430000000  0.5227690000000  0.4428930000000 1.0
C      1  0.4545210000000  0.5333250000000  0.4916000000000 1.0
C      1  0.4433760000000  0.5294070000000  0.4487800000000 1.0
C      1  0.4475500000000  0.5398090000000  0.5196880000000 1.0
C      1  0.5135270000000  0.5369960000000  0.5555260000000 1.0
C      1  0.5601850000000  0.5364500000000  0.5104400000000 1.0
C      1  0.5081750000000  0.5324440000000  0.4651570000000 1.0
C      1  0.4508540000000  0.4668540000000  0.5310170000000 1.0
C      1  0.5188540000000  0.4645130000000  0.5596380000000 1.0
C      1  0.5650560000000  0.4601640000000  0.5018740000000 1.0
C      1  0.5180530000000  0.4633760000000  0.4427870000000 1.0
C      1  0.4521260000000  0.4726140000000  0.4621850000000 1.0
C      1  0.4261910000000  0.4865610000000  0.4619890000000 1.0
C      1  0.4410080000000  0.4918980000000  0.5434810000000 1.0
C      1  0.5283150000000  0.4912840000000  0.5697870000000 1.0
C      1  0.5742190000000  0.4888940000000  0.4971590000000 1.0
C      1  0.5190620000000  0.4917000000000  0.4339810000000 1.0
C      1  0.5260160000000  0.5096860000000  0.4567960000000 1.0
C      1  0.4249830000000  0.5085660000000  0.4446030000000 1.0
C      1  0.4319690000000  0.5115680000000  0.5225010000000 1.0
C      1  0.5059180000000  0.5111970000000  0.5679830000000 1.0
C      1  0.5672490000000  0.5082090000000  0.5199610000000 1.0
C      1  0.5056960000000  0.3693940000000  0.5021500000000 1.0
C      1  0.5179180000000  0.5600360000000  0.5137300000000 1.0
C      1  0.5054560000000  0.3949520000000  0.5029040000000 1.0
C      1  0.5179770000000  0.4952000000000  0.5072220000000 1.0
C      1  0.5080970000000  0.6139420000000  0.5122620000000 1.0
C      1  0.5044640000000  0.4213050000000  0.5040300000000 1.0
C      1  0.5134340000000  0.5880750000000  0.5136870000000 1.0
C      1  0.4962690000000  0.4738790000000  0.5139740000000 1.0
C      1  0.5036510000000  0.6391180000000  0.5117290000000 1.0
C      1  0.5045650000000  0.4480010000000  0.5046530000000 1.0
END
