TITL C-38191-7580-111 1.04284554144413e-05 125000 -368.485067379507 0 0 60 (C1) n - 1
REM
REM in /home/bkarasulu/CARBON/AIRSS/Generating-Clusters/EDIP-Nigel-Params/Higher-Symm/Box-15A/Only-C60/SD-CG/FIRE-HFTN
REM
REM
REM
REM
REM
REM ./C.cell (414f73aa93bd7a1190c7fd0f31ff2f98)
REM
REM compiler GCC version 9.2.1 20190827 (Red Hat 9.2.1-1)
REM options -cpp -mtune=generic -march=x86-64 -g -O0 -fpre-include=/usr/include/finclude/math-vector-fortran.h
REM seed -420969142 467112040 2087528313 1987641808 1997983607 -2114507106 -1966856106 -1690846209 905273618 283631631 -1006875959 1766584849 2080111711 1361277641 1242463058 -1692901716 -683246319 1485382311 -960681855 -91136047 1148928374 421630458 -908875774 -697863628 589882409 617959981 738018306 -1906610477 1623537962 -890201134 -1991231563 149228053 1130549306
REM
CELL 1.54180   50.00000   50.00000   50.00000   90.00000   90.00000   90.00000
LATT -1
SFAC C  
C      1  0.4389930000000  0.4519710000000  0.4650980000000 1.0
C      1  0.5698540000000  0.4728260000000  0.4644480000000 1.0
C      1  0.4919010000000  0.5725480000000  0.4665930000000 1.0
C      1  0.4577650000000  0.4536600000000  0.4443270000000 1.0
C      1  0.5588280000000  0.4881870000000  0.4437540000000 1.0
C      1  0.4843460000000  0.5560360000000  0.4450800000000 1.0
C      1  0.4819350000000  0.5616180000000  0.4914880000000 1.0
C      1  0.4503460000000  0.4412530000000  0.4888090000000 1.0
C      1  0.5735010000000  0.4880590000000  0.4880360000000 1.0
C      1  0.5594080000000  0.4477950000000  0.4708730000000 1.0
C      1  0.5182390000000  0.5807490000000  0.4719170000000 1.0
C      1  0.4229560000000  0.4739050000000  0.4713780000000 1.0
C      1  0.5035770000000  0.5212140000000  0.5159770000000 1.0
C      1  0.4806450000000  0.4903890000000  0.5152730000000 1.0
C      1  0.5153390000000  0.4896240000000  0.5156410000000 1.0
C      1  0.4676140000000  0.5028410000000  0.5602060000000 1.0
C      1  0.5131480000000  0.4715660000000  0.5612480000000 1.0
C      1  0.5179870000000  0.5272240000000  0.5622610000000 1.0
C      1  0.5405110000000  0.4371690000000  0.4889180000000 1.0
C      1  0.5368830000000  0.5688340000000  0.4897450000000 1.0
C      1  0.4238650000000  0.4959830000000  0.4888820000000 1.0
C      1  0.4992720000000  0.5366160000000  0.5417810000000 1.0
C      1  0.4690130000000  0.4806570000000  0.5412760000000 1.0
C      1  0.5305590000000  0.4840730000000  0.5413980000000 1.0
C      1  0.5226910000000  0.4275500000000  0.5352990000000 1.0
C      1  0.5533910000000  0.5563900000000  0.5357710000000 1.0
C      1  0.4251230000000  0.5168160000000  0.5352410000000 1.0
C      1  0.4852220000000  0.5317970000000  0.4935440000000 1.0
C      1  0.4759910000000  0.4690800000000  0.4937910000000 1.0
C      1  0.5362710000000  0.4958980000000  0.4931490000000 1.0
C      1  0.4582970000000  0.5252210000000  0.5012720000000 1.0
C      1  0.4976180000000  0.4515090000000  0.5017450000000 1.0
C      1  0.5449230000000  0.5230540000000  0.5012670000000 1.0
C      1  0.4705150000000  0.5287230000000  0.5495770000000 1.0
C      1  0.4899450000000  0.4603810000000  0.5499950000000 1.0
C      1  0.5382350000000  0.5121870000000  0.5498230000000 1.0
C      1  0.5503590000000  0.5292920000000  0.5292180000000 1.0
C      1  0.4495490000000  0.5289240000000  0.5287000000000 1.0
C      1  0.4995590000000  0.4420790000000  0.5290560000000 1.0
C      1  0.5530650000000  0.4656860000000  0.5309530000000 1.0
C      1  0.5052600000000  0.5657950000000  0.5322270000000 1.0
C      1  0.4414840000000  0.4707210000000  0.5313590000000 1.0
C      1  0.5706190000000  0.4774670000000  0.5130870000000 1.0
C      1  0.4865100000000  0.5766710000000  0.5146940000000 1.0
C      1  0.4424530000000  0.4493780000000  0.5137220000000 1.0
C      1  0.4842990000000  0.4623730000000  0.4457880000000 1.0
C      1  0.5388590000000  0.5077000000000  0.4457390000000 1.0
C      1  0.4757940000000  0.5294110000000  0.4455980000000 1.0
C      1  0.5040320000000  0.4443700000000  0.4542800000000 1.0
C      1  0.5458860000000  0.5334390000000  0.4542710000000 1.0
C      1  0.4494860000000  0.5232770000000  0.4536290000000 1.0
C      1  0.5330970000000  0.5694120000000  0.5207400000000 1.0
C      1  0.4247330000000  0.4928730000000  0.5198040000000 1.0
C      1  0.5431220000000  0.4397250000000  0.5197080000000 1.0
C      1  0.5478220000000  0.5429990000000  0.4807020000000 1.0
C      1  0.4399520000000  0.5189550000000  0.4799870000000 1.0
C      1  0.5124240000000  0.4388080000000  0.4806590000000 1.0
C      1  0.5203330000000  0.4979360000000  0.4665610000000 1.0
C      1  0.4920000000000  0.5168660000000  0.4671780000000 1.0
C      1  0.4845980000000  0.4824400000000  0.4674560000000 1.0
END
