TITL C-38187-2739-604 -6.79690481928496e-08 125000 -357.820923670804 0 0 60 (Cs) n - 1
REM
REM in /home/bkarasulu/CARBON/AIRSS/Generating-Clusters/EDIP-Nigel-Params/Higher-Symm/Box-15A/Only-C60/SD-CG/FIRE-HFTN
REM
REM
REM
REM
REM
REM ./C.cell (414f73aa93bd7a1190c7fd0f31ff2f98)
REM
REM compiler GCC version 9.2.1 20190827 (Red Hat 9.2.1-1)
REM options -cpp -mtune=generic -march=x86-64 -g -O0 -fpre-include=/usr/include/finclude/math-vector-fortran.h
REM seed -1167956824 735351011 -1100294937 -1998678421 1088066261 -1561534258 2004950934 -1251015972 1115126588 30038542 -530946603 -560345014 911850918 1984683325 -342701005 -633830100 773710145 2119432780 1735659885 -1349188828 -1422198345 488017481 -1233063041 -1459710046 865487987 429553536 -570563346 262780147 -527710370 -49742732 2025014094 -709920469 -1692750967
REM
CELL 1.54180   50.00000   50.00000   50.00000   90.00000   90.00000   90.00000
LATT -1
SFAC C  
C      1  0.4725900000000  0.4707580000000  0.5638840000000 1.0
C      1  0.5584660000000  0.4725170000000  0.4967870000000 1.0
C      1  0.4566620000000  0.4712250000000  0.4447480000000 1.0
C      1  0.5274100000000  0.4707580000000  0.5638840000000 1.0
C      1  0.4415340000000  0.4725170000000  0.4967870000000 1.0
C      1  0.5433380000000  0.4712250000000  0.4447480000000 1.0
C      1  0.4646690000000  0.4491160000000  0.4609220000000 1.0
C      1  0.4856980000000  0.4477210000000  0.5526160000000 1.0
C      1  0.5400550000000  0.4518450000000  0.4889150000000 1.0
C      1  0.5353310000000  0.4491160000000  0.4609220000000 1.0
C      1  0.5143020000000  0.4477210000000  0.5526160000000 1.0
C      1  0.4599450000000  0.4518450000000  0.4889150000000 1.0
C      1  0.4807770000000  0.5230120000000  0.4695370000000 1.0
C      1  0.4828390000000  0.5160430000000  0.5204500000000 1.0
C      1  0.5341580000000  0.5234010000000  0.4957290000000 1.0
C      1  0.5192230000000  0.5230120000000  0.4695370000000 1.0
C      1  0.5171610000000  0.5160430000000  0.5204500000000 1.0
C      1  0.4658420000000  0.5234010000000  0.4957290000000 1.0
C      1  0.5148770000000  0.5641860000000  0.5248830000000 1.0
C      1  0.5150500000000  0.5670780000000  0.4710890000000 1.0
C      1  0.4711160000000  0.5673880000000  0.4981710000000 1.0
C      1  0.4851230000000  0.5641860000000  0.5248830000000 1.0
C      1  0.4849500000000  0.5670780000000  0.4710890000000 1.0
C      1  0.5288840000000  0.5673880000000  0.4981710000000 1.0
C      1  0.5190810000000  0.5115800000000  0.4266130000000 1.0
C      1  0.4289960000000  0.5058650000000  0.5302300000000 1.0
C      1  0.5576510000000  0.5169400000000  0.5532330000000 1.0
C      1  0.4809190000000  0.5115800000000  0.4266130000000 1.0
C      1  0.5710040000000  0.5058650000000  0.5302300000000 1.0
C      1  0.4423490000000  0.5169400000000  0.5532330000000 1.0
C      1  0.4854980000000  0.4962500000000  0.4527010000000 1.0
C      1  0.4723250000000  0.4892780000000  0.5300100000000 1.0
C      1  0.5556430000000  0.4813790000000  0.5248900000000 1.0
C      1  0.5145020000000  0.4962500000000  0.4527010000000 1.0
C      1  0.5276750000000  0.4892780000000  0.5300100000000 1.0
C      1  0.4443570000000  0.4813790000000  0.5248900000000 1.0
C      1  0.4491580000000  0.5488850000000  0.4981940000000 1.0
C      1  0.5236730000000  0.5391850000000  0.5384410000000 1.0
C      1  0.5271760000000  0.5465380000000  0.4528160000000 1.0
C      1  0.5508420000000  0.5488850000000  0.4981940000000 1.0
C      1  0.4763270000000  0.5391850000000  0.5384410000000 1.0
C      1  0.4728240000000  0.5465380000000  0.4528160000000 1.0
C      1  0.5646170000000  0.4959710000000  0.4809830000000 1.0
C      1  0.4414030000000  0.4953290000000  0.4514310000000 1.0
C      1  0.4848790000000  0.4959000000000  0.5717610000000 1.0
C      1  0.4353830000000  0.4959710000000  0.4809830000000 1.0
C      1  0.5585970000000  0.4953290000000  0.4514310000000 1.0
C      1  0.5151210000000  0.4959000000000  0.5717610000000 1.0
C      1  0.4727530000000  0.4316050000000  0.5339140000000 1.0
C      1  0.5335550000000  0.4326750000000  0.5078330000000 1.0
C      1  0.4865940000000  0.4342190000000  0.4528350000000 1.0
C      1  0.5272470000000  0.4316050000000  0.5339140000000 1.0
C      1  0.4664450000000  0.4326750000000  0.5078330000000 1.0
C      1  0.5134060000000  0.4342190000000  0.4528350000000 1.0
C      1  0.5474230000000  0.5187420000000  0.4356140000000 1.0
C      1  0.4281100000000  0.5166730000000  0.5018080000000 1.0
C      1  0.5337110000000  0.5186930000000  0.5689600000000 1.0
C      1  0.4525770000000  0.5187420000000  0.4356140000000 1.0
C      1  0.5718900000000  0.5166730000000  0.5018080000000 1.0
C      1  0.4662890000000  0.5186930000000  0.5689600000000 1.0
END
