TITL C-38196-2854-105 2.27664645777015e-06 125000 -355.662212639582 0 0 60 (C2) n - 1
REM
REM in /home/bkarasulu/CARBON/AIRSS/Generating-Clusters/EDIP-Nigel-Params/Higher-Symm/Box-15A/Only-C60/SD-CG/FIRE-HFTN
REM
REM
REM
REM
REM
REM ./C.cell (414f73aa93bd7a1190c7fd0f31ff2f98)
REM
REM compiler GCC version 9.2.1 20190827 (Red Hat 9.2.1-1)
REM options -cpp -mtune=generic -march=x86-64 -g -O0 -fpre-include=/usr/include/finclude/math-vector-fortran.h
REM seed -2140151436 1089147263 -1048162298 -150933009 69880230 221746239 141651783 1492866176 -393743216 -297314719 -2045785830 -536138934 211126529 237105018 1047209066 -1978830327 -1405745457 691843311 47670907 -717317498 1485412553 987130868 277952399 -2095538567 1500989392 -479461612 -1294697709 -930646908 1487514977 1634504945 1985508549 1181562600 -1002792672
REM
CELL 1.54180   50.00000   50.00000   50.00000   90.00000   90.00000   90.00000
LATT -1
SFAC C  
C      1  0.4666340000000  0.5650100000000  0.4706250000000 1.0
C      1  0.4913680000000  0.5654760000000  0.5480770000000 1.0
C      1  0.5197500000000  0.5608490000000  0.4815830000000 1.0
C      1  0.4666340000000  0.4349900000000  0.5293750000000 1.0
C      1  0.4913680000000  0.4345240000000  0.4519230000000 1.0
C      1  0.5197500000000  0.4391510000000  0.5184170000000 1.0
C      1  0.5698820000000  0.4916920000000  0.5492320000000 1.0
C      1  0.5241190000000  0.4876850000000  0.4155430000000 1.0
C      1  0.4192910000000  0.4895390000000  0.5290920000000 1.0
C      1  0.5698820000000  0.5083080000000  0.4507680000000 1.0
C      1  0.5241190000000  0.5123150000000  0.5844570000000 1.0
C      1  0.4192910000000  0.5104610000000  0.4709080000000 1.0
C      1  0.4686890000000  0.4949440000000  0.5127910000000 1.0
C      1  0.5275370000000  0.4986260000000  0.5222050000000 1.0
C      1  0.5049790000000  0.4939960000000  0.4637020000000 1.0
C      1  0.4686890000000  0.5050560000000  0.4872090000000 1.0
C      1  0.5275370000000  0.5013740000000  0.4777950000000 1.0
C      1  0.5049790000000  0.5060040000000  0.5362980000000 1.0
C      1  0.5682020000000  0.5182730000000  0.5441250000000 1.0
C      1  0.5184130000000  0.5138650000000  0.4193480000000 1.0
C      1  0.4237940000000  0.5161530000000  0.5300440000000 1.0
C      1  0.5682020000000  0.4817270000000  0.4558750000000 1.0
C      1  0.5184130000000  0.4861350000000  0.5806520000000 1.0
C      1  0.4237940000000  0.4838470000000  0.4699560000000 1.0
C      1  0.4720570000000  0.5454820000000  0.5432940000000 1.0
C      1  0.5411420000000  0.5472250000000  0.4973600000000 1.0
C      1  0.4792040000000  0.5446450000000  0.4556900000000 1.0
C      1  0.4720570000000  0.4545180000000  0.4567060000000 1.0
C      1  0.5411420000000  0.4527750000000  0.5026400000000 1.0
C      1  0.4792040000000  0.4553550000000  0.5443100000000 1.0
C      1  0.5273500000000  0.4662430000000  0.5630050000000 1.0
C      1  0.5494830000000  0.4614500000000  0.4510620000000 1.0
C      1  0.4320920000000  0.4635200000000  0.4872370000000 1.0
C      1  0.5273500000000  0.5337570000000  0.4369950000000 1.0
C      1  0.5494830000000  0.5385500000000  0.5489380000000 1.0
C      1  0.4320920000000  0.5364800000000  0.5127630000000 1.0
C      1  0.4835030000000  0.4801880000000  0.4533320000000 1.0
C      1  0.4684800000000  0.4805900000000  0.5364750000000 1.0
C      1  0.5449960000000  0.4787360000000  0.5135910000000 1.0
C      1  0.4835030000000  0.5198120000000  0.5466680000000 1.0
C      1  0.4684800000000  0.5194100000000  0.4635250000000 1.0
C      1  0.5449960000000  0.5212640000000  0.4864090000000 1.0
C      1  0.4716820000000  0.5675860000000  0.4981100000000 1.0
C      1  0.5117930000000  0.5683710000000  0.5290590000000 1.0
C      1  0.5008450000000  0.5722210000000  0.5020090000000 1.0
C      1  0.4716820000000  0.4324140000000  0.5018900000000 1.0
C      1  0.5117930000000  0.4316290000000  0.4709410000000 1.0
C      1  0.5008450000000  0.4277790000000  0.4979910000000 1.0
C      1  0.5339420000000  0.4506830000000  0.4738620000000 1.0
C      1  0.4587280000000  0.4513790000000  0.4829030000000 1.0
C      1  0.5090430000000  0.4548230000000  0.5419930000000 1.0
C      1  0.5339420000000  0.5493170000000  0.5261380000000 1.0
C      1  0.4587280000000  0.5486210000000  0.5170970000000 1.0
C      1  0.5090430000000  0.5451770000000  0.4580070000000 1.0
C      1  0.5356460000000  0.4661700000000  0.4271730000000 1.0
C      1  0.4230780000000  0.4678780000000  0.5133460000000 1.0
C      1  0.5542780000000  0.4704460000000  0.5559950000000 1.0
C      1  0.5356460000000  0.5338300000000  0.5728270000000 1.0
C      1  0.4230780000000  0.5321220000000  0.4866540000000 1.0
C      1  0.5542780000000  0.5295540000000  0.4440050000000 1.0
END
