TITL C-38189-4514-331 1.11070439449022e-05 125000 -367.879303914195 0 0 60 (C1) n - 1
REM
REM in /home/bkarasulu/CARBON/AIRSS/Generating-Clusters/EDIP-Nigel-Params/Higher-Symm/Box-15A/Only-C60/SD-CG/FIRE-HFTN
REM
REM
REM
REM
REM
REM ./C.cell (414f73aa93bd7a1190c7fd0f31ff2f98)
REM
REM compiler GCC version 9.2.1 20190827 (Red Hat 9.2.1-1)
REM options -cpp -mtune=generic -march=x86-64 -g -O0 -fpre-include=/usr/include/finclude/math-vector-fortran.h
REM seed -1517318665 -2112120803 186699946 1718252770 -1669436000 230483898 439206471 -465156115 725778234 799782193 1164602984 -67790069 1684983757 1895750730 -1352434659 47257250 -740574260 -1841178679 -1210912599 853022908 -1228140636 -2082968931 1902546584 535381686 370517692 422575460 960100994 825464873 736708494 1808456870 1630607165 -413247247 1059858967
REM
CELL 1.54180   50.00000   50.00000   50.00000   90.00000   90.00000   90.00000
LATT -1
SFAC C  
C      1  0.5461510000000  0.4897240000000  0.5309180000000 1.0
C      1  0.4525110000000  0.4893500000000  0.5312180000000 1.0
C      1  0.4397370000000  0.5094740000000  0.4793940000000 1.0
C      1  0.5595580000000  0.5082890000000  0.4802210000000 1.0
C      1  0.5143880000000  0.4534890000000  0.5310250000000 1.0
C      1  0.4850850000000  0.4537970000000  0.5312320000000 1.0
C      1  0.5191710000000  0.4578100000000  0.4657860000000 1.0
C      1  0.4816050000000  0.4586500000000  0.4667450000000 1.0
C      1  0.5312980000000  0.5053890000000  0.4716590000000 1.0
C      1  0.4681170000000  0.5059450000000  0.4716660000000 1.0
C      1  0.4443100000000  0.5338700000000  0.5505830000000 1.0
C      1  0.5561630000000  0.5334020000000  0.5509820000000 1.0
C      1  0.5173900000000  0.5320410000000  0.4776850000000 1.0
C      1  0.4823000000000  0.5324150000000  0.4775020000000 1.0
C      1  0.5143420000000  0.5318020000000  0.5081620000000 1.0
C      1  0.4850040000000  0.5324090000000  0.5079640000000 1.0
C      1  0.5337470000000  0.4983700000000  0.4423570000000 1.0
C      1  0.4664550000000  0.4985510000000  0.4423920000000 1.0
C      1  0.5794990000000  0.4910790000000  0.4687030000000 1.0
C      1  0.4205130000000  0.4904300000000  0.4698290000000 1.0
C      1  0.4477030000000  0.5183030000000  0.5270660000000 1.0
C      1  0.5519820000000  0.5184340000000  0.5272310000000 1.0
C      1  0.5190300000000  0.4614010000000  0.5587400000000 1.0
C      1  0.4808130000000  0.4617570000000  0.5588310000000 1.0
C      1  0.5133800000000  0.5046680000000  0.4249830000000 1.0
C      1  0.4869600000000  0.5049000000000  0.4252050000000 1.0
C      1  0.4871100000000  0.4157040000000  0.4904180000000 1.0
C      1  0.5137590000000  0.4154120000000  0.4902010000000 1.0
C      1  0.5143980000000  0.5785710000000  0.4873930000000 1.0
C      1  0.4856550000000  0.5789210000000  0.4871290000000 1.0
C      1  0.4671340000000  0.4690950000000  0.5121810000000 1.0
C      1  0.5320630000000  0.4690430000000  0.5118360000000 1.0
C      1  0.5325030000000  0.5582760000000  0.4757640000000 1.0
C      1  0.4672740000000  0.5586540000000  0.4759690000000 1.0
C      1  0.4351320000000  0.5282490000000  0.5018880000000 1.0
C      1  0.5645660000000  0.5278710000000  0.5019520000000 1.0
C      1  0.4611330000000  0.4696770000000  0.4462120000000 1.0
C      1  0.5396210000000  0.4694900000000  0.4456090000000 1.0
C      1  0.4854580000000  0.5110350000000  0.5605230000000 1.0
C      1  0.5150390000000  0.5107980000000  0.5637200000000 1.0
C      1  0.5313680000000  0.4339670000000  0.4794940000000 1.0
C      1  0.4695440000000  0.4343800000000  0.4798550000000 1.0
C      1  0.5493660000000  0.4472510000000  0.4985960000000 1.0
C      1  0.4507180000000  0.4467680000000  0.4987740000000 1.0
C      1  0.5155370000000  0.5597710000000  0.5480230000000 1.0
C      1  0.4847500000000  0.5601280000000  0.5481350000000 1.0
C      1  0.4756690000000  0.5590790000000  0.5187380000000 1.0
C      1  0.5244810000000  0.5582520000000  0.5185610000000 1.0
C      1  0.4277970000000  0.4548880000000  0.4836600000000 1.0
C      1  0.5723060000000  0.4559790000000  0.4837750000000 1.0
C      1  0.5326510000000  0.4869060000000  0.5575960000000 1.0
C      1  0.4674970000000  0.4873290000000  0.5572150000000 1.0
C      1  0.5548860000000  0.5548060000000  0.4947270000000 1.0
C      1  0.4450600000000  0.5552360000000  0.4951950000000 1.0
C      1  0.5687580000000  0.4664140000000  0.4560800000000 1.0
C      1  0.4318100000000  0.4663380000000  0.4564440000000 1.0
C      1  0.4828950000000  0.4819190000000  0.4876520000000 1.0
C      1  0.5162480000000  0.4810880000000  0.4868460000000 1.0
C      1  0.5297990000000  0.5364910000000  0.5612620000000 1.0
C      1  0.4708020000000  0.5364670000000  0.5604980000000 1.0
END
