TITL C-38186-4112-638 -9.77486130223496e-06 125000 -357.833264493916 0 0 60 (C1) n - 1
REM
REM in /home/bkarasulu/CARBON/AIRSS/Generating-Clusters/EDIP-Nigel-Params/Higher-Symm/Box-15A/Only-C60/SD-CG/FIRE-HFTN
REM
REM
REM
REM
REM
REM ./C.cell (414f73aa93bd7a1190c7fd0f31ff2f98)
REM
REM compiler GCC version 9.2.1 20190827 (Red Hat 9.2.1-1)
REM options -cpp -mtune=generic -march=x86-64 -g -O0 -fpre-include=/usr/include/finclude/math-vector-fortran.h
REM seed 620250713 1716606015 -28389005 -2049713343 -556572310 348075071 1152591636 1819013779 -1667830900 1469133765 32382266 1122681845 1337461728 -648478254 27320605 841826662 1164980513 -1715569917 2145963552 -1957308023 -170597646 -1727431662 -279919161 2016061414 273114557 -165879013 -25251795 -414827835 -629496501 -193973302 -411242223 -1946295024 -1615102408
REM
CELL 1.54180   50.00000   50.00000   50.00000   90.00000   90.00000   90.00000
LATT -1
SFAC C  
C      1  0.4949890000000  0.4636280000000  0.4337330000000 1.0
C      1  0.4953030000000  0.4264460000000  0.5139290000000 1.0
C      1  0.4945990000000  0.4920640000000  0.5764080000000 1.0
C      1  0.4945090000000  0.5684350000000  0.5313530000000 1.0
C      1  0.4944540000000  0.5513590000000  0.4446540000000 1.0
C      1  0.5442690000000  0.5596360000000  0.5263350000000 1.0
C      1  0.5445710000000  0.5436460000000  0.4511970000000 1.0
C      1  0.5437590000000  0.4673210000000  0.4436760000000 1.0
C      1  0.5429910000000  0.4368340000000  0.5137890000000 1.0
C      1  0.5425410000000  0.4928450000000  0.5646010000000 1.0
C      1  0.5418470000000  0.5304710000000  0.5309970000000 1.0
C      1  0.5421760000000  0.5391370000000  0.4803970000000 1.0
C      1  0.5415420000000  0.4937500000000  0.4569490000000 1.0
C      1  0.5407910000000  0.4576350000000  0.4927130000000 1.0
C      1  0.5403910000000  0.4803100000000  0.5379970000000 1.0
C      1  0.4713720000000  0.4767430000000  0.5664820000000 1.0
C      1  0.4705200000000  0.5549220000000  0.5421210000000 1.0
C      1  0.4705890000000  0.5570790000000  0.4608160000000 1.0
C      1  0.4711170000000  0.4807260000000  0.4322050000000 1.0
C      1  0.4712450000000  0.4290150000000  0.4973140000000 1.0
C      1  0.4341370000000  0.5227610000000  0.4974030000000 1.0
C      1  0.4287090000000  0.5039000000000  0.4759550000000 1.0
C      1  0.4329660000000  0.4780020000000  0.4884990000000 1.0
C      1  0.4320050000000  0.4843040000000  0.5190130000000 1.0
C      1  0.4230510000000  0.5112550000000  0.5210280000000 1.0
C      1  0.4597190000000  0.4567730000000  0.4474950000000 1.0
C      1  0.4597830000000  0.4366710000000  0.5245870000000 1.0
C      1  0.4599100000000  0.5046000000000  0.5647220000000 1.0
C      1  0.4597580000000  0.5648920000000  0.5152110000000 1.0
C      1  0.4597390000000  0.5344560000000  0.4437500000000 1.0
C      1  0.5170680000000  0.5222070000000  0.4860490000000 1.0
C      1  0.5162080000000  0.4945170000000  0.4746500000000 1.0
C      1  0.5157100000000  0.4751840000000  0.4973860000000 1.0
C      1  0.5156760000000  0.4907630000000  0.5227460000000 1.0
C      1  0.5180080000000  0.5196820000000  0.5157770000000 1.0
C      1  0.4644200000000  0.5238940000000  0.4975650000000 1.0
C      1  0.4678650000000  0.5030190000000  0.4759180000000 1.0
C      1  0.4637620000000  0.4761460000000  0.4889990000000 1.0
C      1  0.4637250000000  0.4824620000000  0.5201410000000 1.0
C      1  0.4756690000000  0.5098020000000  0.5216630000000 1.0
C      1  0.5658380000000  0.4872580000000  0.5220220000000 1.0
C      1  0.5667420000000  0.5169630000000  0.5190620000000 1.0
C      1  0.5668520000000  0.5232070000000  0.4897210000000 1.0
C      1  0.5663440000000  0.4973510000000  0.4748150000000 1.0
C      1  0.5658590000000  0.4752620000000  0.4947390000000 1.0
C      1  0.4748810000000  0.5523190000000  0.4917000000000 1.0
C      1  0.4754390000000  0.5084840000000  0.4469130000000 1.0
C      1  0.4740630000000  0.4509930000000  0.4744490000000 1.0
C      1  0.4739830000000  0.4605090000000  0.5388560000000 1.0
C      1  0.4762550000000  0.5239200000000  0.5477570000000 1.0
C      1  0.5324740000000  0.5612970000000  0.5002960000000 1.0
C      1  0.5325460000000  0.5194430000000  0.4416960000000 1.0
C      1  0.5316980000000  0.4508900000000  0.4637910000000 1.0
C      1  0.5312510000000  0.4510850000000  0.5356730000000 1.0
C      1  0.5323340000000  0.5189180000000  0.5586530000000 1.0
C      1  0.5028140000000  0.5235900000000  0.4439290000000 1.0
C      1  0.5021210000000  0.4548130000000  0.4604180000000 1.0
C      1  0.5019030000000  0.4492240000000  0.5306140000000 1.0
C      1  0.5024660000000  0.5173500000000  0.5638870000000 1.0
C      1  0.5026730000000  0.5598330000000  0.5047860000000 1.0
END
