TITL C-38194-9318-215 0.0647659211798953 125000 -369.746629509969 0 0 60 (C1) n - 1
REM
REM in /home/bkarasulu/CARBON/AIRSS/Generating-Clusters/EDIP-Nigel-Params/Higher-Symm/Box-15A/Only-C60/SD-CG/FIRE-HFTN
REM
REM
REM
REM
REM
REM ./C.cell (414f73aa93bd7a1190c7fd0f31ff2f98)
REM
REM compiler GCC version 9.2.1 20190827 (Red Hat 9.2.1-1)
REM options -cpp -mtune=generic -march=x86-64 -g -O0 -fpre-include=/usr/include/finclude/math-vector-fortran.h
REM seed 971432669 -1370730347 -1745644243 -677217267 -1248351315 1668200529 1260020629 1168557056 995956525 -1505199060 -593310101 1276614136 1700574434 381666357 1008089991 -2104377360 1258789445 306178685 -146003981 -1424515642 -1685478385 -533408934 -2145087263 -1041840627 -1795047318 1761391224 -1049552006 -1382962208 -1038732375 265474212 1808279418 1129532810 108491090
REM
CELL 1.54180   50.00000   50.00000   50.00000   90.00000   90.00000   90.00000
LATT -1
SFAC C  
C      1  0.5035920000000  0.4763830000000  0.4334400000000 1.0
C      1  0.5047100000000  0.4467780000000  0.4727530000000 1.0
C      1  0.5012420000000  0.4429430000000  0.5203510000000 1.0
C      1  0.5031060000000  0.4873640000000  0.5684080000000 1.0
C      1  0.5040600000000  0.5433890000000  0.5585290000000 1.0
C      1  0.5041430000000  0.5717710000000  0.4930500000000 1.0
C      1  0.5035420000000  0.5460600000000  0.4471570000000 1.0
C      1  0.4980950000000  0.4730160000000  0.4844130000000 1.0
C      1  0.5010370000000  0.4711740000000  0.5120230000000 1.0
C      1  0.4838400000000  0.4879390000000  0.5278000000000 1.0
C      1  0.4996800000000  0.5140420000000  0.5335670000000 1.0
C      1  0.4908990000000  0.5264550000000  0.5066860000000 1.0
C      1  0.5129030000000  0.5188200000000  0.4880140000000 1.0
C      1  0.5047780000000  0.4971860000000  0.4725840000000 1.0
C      1  0.4425030000000  0.5202080000000  0.5260670000000 1.0
C      1  0.4379570000000  0.5368880000000  0.4973350000000 1.0
C      1  0.4400990000000  0.5219830000000  0.4709140000000 1.0
C      1  0.4459360000000  0.4932810000000  0.4688560000000 1.0
C      1  0.4375560000000  0.4715500000000  0.4869120000000 1.0
C      1  0.4451100000000  0.4707420000000  0.5154480000000 1.0
C      1  0.4378600000000  0.4913250000000  0.5353820000000 1.0
C      1  0.4548840000000  0.4435790000000  0.5234920000000 1.0
C      1  0.4533210000000  0.4885800000000  0.5606880000000 1.0
C      1  0.4569770000000  0.5360360000000  0.5476860000000 1.0
C      1  0.4566770000000  0.5603210000000  0.4959830000000 1.0
C      1  0.4565000000000  0.5387380000000  0.4527030000000 1.0
C      1  0.4564470000000  0.4829560000000  0.4432740000000 1.0
C      1  0.4490770000000  0.4467180000000  0.4746870000000 1.0
C      1  0.5377420000000  0.4627130000000  0.5429740000000 1.0
C      1  0.5391130000000  0.5126960000000  0.5460340000000 1.0
C      1  0.5379010000000  0.5548040000000  0.5224730000000 1.0
C      1  0.5431380000000  0.5517930000000  0.4726020000000 1.0
C      1  0.5379860000000  0.5116730000000  0.4427060000000 1.0
C      1  0.5454890000000  0.4643190000000  0.4560820000000 1.0
C      1  0.5438560000000  0.4419080000000  0.5000250000000 1.0
C      1  0.4815870000000  0.5263170000000  0.4430750000000 1.0
C      1  0.4927980000000  0.4495120000000  0.4444710000000 1.0
C      1  0.4923610000000  0.4281080000000  0.4945400000000 1.0
C      1  0.4787620000000  0.4443090000000  0.5423840000000 1.0
C      1  0.4926760000000  0.5162840000000  0.5728490000000 1.0
C      1  0.4807130000000  0.5534850000000  0.5409320000000 1.0
C      1  0.4934540000000  0.5691450000000  0.4643930000000 1.0
C      1  0.4622730000000  0.4297930000000  0.4968360000000 1.0
C      1  0.4790780000000  0.4736510000000  0.5544190000000 1.0
C      1  0.4628150000000  0.5161670000000  0.5690610000000 1.0
C      1  0.4834320000000  0.5560970000000  0.5100880000000 1.0
C      1  0.4634620000000  0.5644080000000  0.4670930000000 1.0
C      1  0.4811540000000  0.4971670000000  0.4349060000000 1.0
C      1  0.4624530000000  0.4535070000000  0.4471510000000 1.0
C      1  0.5321350000000  0.4838670000000  0.4404860000000 1.0
C      1  0.5347430000000  0.4450350000000  0.4734660000000 1.0
C      1  0.5312940000000  0.4417090000000  0.5254220000000 1.0
C      1  0.5286270000000  0.4872160000000  0.5537220000000 1.0
C      1  0.5321530000000  0.5404110000000  0.5460230000000 1.0
C      1  0.5324970000000  0.5641670000000  0.4962630000000 1.0
C      1  0.5321310000000  0.5387160000000  0.4496080000000 1.0
C      1  0.5388630000000  0.5153890000000  0.4987690000000 1.0
C      1  0.4642710000000  0.5091790000000  0.5049930000000 1.0
C      1  0.5891440000000  0.5016410000000  0.4943220000000 1.0
C      1  0.5646400000000  0.5090970000000  0.4944460000000 1.0
END
