TITL C-38198-1686-275 5.67840304506848e-06 125000 -343.512647617604 0 0 60 (Td) n - 1
REM
REM in /home/bkarasulu/CARBON/AIRSS/Generating-Clusters/EDIP-Nigel-Params/Higher-Symm/Box-15A/Only-C60/SD-CG/FIRE-HFTN
REM
REM
REM
REM
REM
REM ./C.cell (414f73aa93bd7a1190c7fd0f31ff2f98)
REM
REM compiler GCC version 9.2.1 20190827 (Red Hat 9.2.1-1)
REM options -cpp -mtune=generic -march=x86-64 -g -O0 -fpre-include=/usr/include/finclude/math-vector-fortran.h
REM seed -387488084 -1806524274 14325670 -80953695 -791867389 747094115 1162443587 348008723 -1010996927 246688017 1308850973 1107160732 1208704371 1151937265 -1045079171 1985207755 1672971200 -434837393 1529933911 1468682173 1907823638 1793366722 433697199 -883677270 -647107047 -826374482 -1275997286 1639344921 1806620760 -746483206 -1516517458 -202922287 -849502554
REM
CELL 1.54180   50.00000   50.00000   50.00000   90.00000   90.00000   90.00000
LATT -1
SFAC C  
C      1  0.4535430000000  0.4970590000000  0.4751950000000 1.0
C      1  0.4970590000000  0.4751950000000  0.4535430000000 1.0
C      1  0.4751950000000  0.4535430000000  0.4970590000000 1.0
C      1  0.4535430000000  0.5029410000000  0.5248050000000 1.0
C      1  0.5464570000000  0.4970590000000  0.5248050000000 1.0
C      1  0.5464570000000  0.5029410000000  0.4751950000000 1.0
C      1  0.4970590000000  0.5248050000000  0.5464570000000 1.0
C      1  0.5029410000000  0.4751950000000  0.5464570000000 1.0
C      1  0.5029410000000  0.5248050000000  0.4535430000000 1.0
C      1  0.4751950000000  0.5464570000000  0.5029410000000 1.0
C      1  0.5248050000000  0.4535430000000  0.5029410000000 1.0
C      1  0.5248050000000  0.5464570000000  0.4970590000000 1.0
C      1  0.4535430000000  0.4751950000000  0.4970590000000 1.0
C      1  0.4970590000000  0.4535430000000  0.4751950000000 1.0
C      1  0.4751950000000  0.4970590000000  0.4535430000000 1.0
C      1  0.4535430000000  0.5248050000000  0.5029410000000 1.0
C      1  0.5464570000000  0.5248050000000  0.4970590000000 1.0
C      1  0.5464570000000  0.4751950000000  0.5029410000000 1.0
C      1  0.4970590000000  0.5464570000000  0.5248050000000 1.0
C      1  0.5029410000000  0.5464570000000  0.4751950000000 1.0
C      1  0.5029410000000  0.4535430000000  0.5248050000000 1.0
C      1  0.4751950000000  0.5029410000000  0.5464570000000 1.0
C      1  0.5248050000000  0.5029410000000  0.4535430000000 1.0
C      1  0.5248050000000  0.4970590000000  0.5464570000000 1.0
C      1  0.5726190000000  0.4639020000000  0.4985550000000 1.0
C      1  0.4639020000000  0.4985550000000  0.5726190000000 1.0
C      1  0.4985550000000  0.5726190000000  0.4639020000000 1.0
C      1  0.5726190000000  0.5360980000000  0.5014450000000 1.0
C      1  0.4273810000000  0.4639020000000  0.5014450000000 1.0
C      1  0.4273810000000  0.5360980000000  0.4985550000000 1.0
C      1  0.4639020000000  0.5014450000000  0.4273810000000 1.0
C      1  0.5360980000000  0.4985550000000  0.4273810000000 1.0
C      1  0.5360980000000  0.5014450000000  0.5726190000000 1.0
C      1  0.4985550000000  0.4273810000000  0.5360980000000 1.0
C      1  0.5014450000000  0.5726190000000  0.5360980000000 1.0
C      1  0.5014450000000  0.4273810000000  0.4639020000000 1.0
C      1  0.5726190000000  0.4985550000000  0.4639020000000 1.0
C      1  0.4639020000000  0.5726190000000  0.4985550000000 1.0
C      1  0.4985550000000  0.4639020000000  0.5726190000000 1.0
C      1  0.5726190000000  0.5014450000000  0.5360980000000 1.0
C      1  0.4273810000000  0.5014450000000  0.4639020000000 1.0
C      1  0.4273810000000  0.4985550000000  0.5360980000000 1.0
C      1  0.4639020000000  0.4273810000000  0.5014450000000 1.0
C      1  0.5360980000000  0.4273810000000  0.4985550000000 1.0
C      1  0.5360980000000  0.5726190000000  0.5014450000000 1.0
C      1  0.4985550000000  0.5360980000000  0.4273810000000 1.0
C      1  0.5014450000000  0.5360980000000  0.5726190000000 1.0
C      1  0.5014450000000  0.4639020000000  0.4273810000000 1.0
C      1  0.4776460000000  0.4174450000000  0.5223540000000 1.0
C      1  0.4174450000000  0.5223540000000  0.4776460000000 1.0
C      1  0.5223540000000  0.4776460000000  0.4174450000000 1.0
C      1  0.4776460000000  0.5825550000000  0.4776460000000 1.0
C      1  0.5223540000000  0.4174450000000  0.4776460000000 1.0
C      1  0.5223540000000  0.5825550000000  0.5223540000000 1.0
C      1  0.4174450000000  0.4776460000000  0.5223540000000 1.0
C      1  0.5825550000000  0.5223540000000  0.5223540000000 1.0
C      1  0.5825550000000  0.4776460000000  0.4776460000000 1.0
C      1  0.4776460000000  0.4776460000000  0.5825550000000 1.0
C      1  0.4776460000000  0.5223540000000  0.4174450000000 1.0
C      1  0.5223540000000  0.5223540000000  0.5825550000000 1.0
END
