TITL C-38194-9318-236 -7.52226788219206e-06 125000 -362.352710806605 0 0 60 (C1) n - 1
REM
REM in /home/bkarasulu/CARBON/AIRSS/Generating-Clusters/EDIP-Nigel-Params/Higher-Symm/Box-15A/Only-C60/SD-CG/FIRE-HFTN
REM
REM
REM
REM
REM
REM ./C.cell (414f73aa93bd7a1190c7fd0f31ff2f98)
REM
REM compiler GCC version 9.2.1 20190827 (Red Hat 9.2.1-1)
REM options -cpp -mtune=generic -march=x86-64 -g -O0 -fpre-include=/usr/include/finclude/math-vector-fortran.h
REM seed -2035042333 -1270856671 674680608 -1275564135 1959364409 1487243585 1053068430 28825029 -1778994470 -1361804840 -185221230 2087357545 -2114582630 -293258998 87545506 -89618200 1386984141 140017991 1465724325 -1722485375 1615682627 881606922 366072403 -1413906941 -1195852013 2143093692 -1626988260 2115664971 2056773338 -1264251314 701709480 967410456 123362507
REM
CELL 1.54180   50.00000   50.00000   50.00000   90.00000   90.00000   90.00000
LATT -1
SFAC C  
C      1  0.4761480000000  0.5608840000000  0.4729140000000 1.0
C      1  0.4838430000000  0.5470180000000  0.5463900000000 1.0
C      1  0.5259300000000  0.4558630000000  0.4906070000000 1.0
C      1  0.5474350000000  0.5541300000000  0.5358470000000 1.0
C      1  0.5179590000000  0.5153280000000  0.5635540000000 1.0
C      1  0.4817900000000  0.4778980000000  0.5196900000000 1.0
C      1  0.5589040000000  0.4936230000000  0.5043530000000 1.0
C      1  0.5841300000000  0.5026430000000  0.4596000000000 1.0
C      1  0.5033390000000  0.5107630000000  0.4295380000000 1.0
C      1  0.5077090000000  0.4420720000000  0.5346230000000 1.0
C      1  0.4908930000000  0.5672770000000  0.4981840000000 1.0
C      1  0.5562360000000  0.4660390000000  0.4597520000000 1.0
C      1  0.4536710000000  0.4614870000000  0.4837310000000 1.0
C      1  0.5663360000000  0.5226840000000  0.5059510000000 1.0
C      1  0.4261280000000  0.5059920000000  0.4692460000000 1.0
C      1  0.5496200000000  0.4567120000000  0.5330170000000 1.0
C      1  0.5570040000000  0.5380320000000  0.4846210000000 1.0
C      1  0.4609430000000  0.4881170000000  0.5004340000000 1.0
C      1  0.4200600000000  0.5090560000000  0.4965020000000 1.0
C      1  0.4454770000000  0.5170320000000  0.5357490000000 1.0
C      1  0.5195900000000  0.5075360000000  0.4740170000000 1.0
C      1  0.5073280000000  0.5256390000000  0.5155330000000 1.0
C      1  0.4325760000000  0.4407920000000  0.5245460000000 1.0
C      1  0.5105850000000  0.5423740000000  0.5558720000000 1.0
C      1  0.5291440000000  0.4875350000000  0.4964850000000 1.0
C      1  0.5306850000000  0.4422650000000  0.5173810000000 1.0
C      1  0.4664630000000  0.5182510000000  0.4869310000000 1.0
C      1  0.4527970000000  0.5449970000000  0.4788270000000 1.0
C      1  0.4619800000000  0.4751890000000  0.4579790000000 1.0
C      1  0.4585300000000  0.5183060000000  0.4342790000000 1.0
C      1  0.4372500000000  0.5302790000000  0.5103090000000 1.0
C      1  0.4274950000000  0.4583300000000  0.5034140000000 1.0
C      1  0.5379540000000  0.4789930000000  0.4416090000000 1.0
C      1  0.4563270000000  0.4430960000000  0.5393400000000 1.0
C      1  0.5274820000000  0.5493290000000  0.5155120000000 1.0
C      1  0.4880850000000  0.5520060000000  0.4486230000000 1.0
C      1  0.4710900000000  0.5212060000000  0.5483330000000 1.0
C      1  0.5110760000000  0.4941750000000  0.5211590000000 1.0
C      1  0.4327420000000  0.4869890000000  0.5136440000000 1.0
C      1  0.4764220000000  0.4438780000000  0.4920330000000 1.0
C      1  0.4993850000000  0.4521770000000  0.4770000000000 1.0
C      1  0.5613970000000  0.5131350000000  0.4476420000000 1.0
C      1  0.5737620000000  0.4826470000000  0.4770260000000 1.0
C      1  0.4807900000000  0.4390650000000  0.5213080000000 1.0
C      1  0.5423240000000  0.5254410000000  0.4645950000000 1.0
C      1  0.5459720000000  0.4443170000000  0.4733390000000 1.0
C      1  0.5668850000000  0.5357460000000  0.5306310000000 1.0
C      1  0.4879360000000  0.4751690000000  0.5634780000000 1.0
C      1  0.4645880000000  0.4711160000000  0.5459060000000 1.0
C      1  0.5560370000000  0.4840850000000  0.5338080000000 1.0
C      1  0.4788300000000  0.5627140000000  0.5234200000000 1.0
C      1  0.4966640000000  0.5244090000000  0.4877140000000 1.0
C      1  0.5189670000000  0.5714170000000  0.4991320000000 1.0
C      1  0.4913940000000  0.4712750000000  0.4563630000000 1.0
C      1  0.4898580000000  0.5042700000000  0.5649790000000 1.0
C      1  0.4835250000000  0.5301460000000  0.4315140000000 1.0
C      1  0.4474840000000  0.4997510000000  0.4520190000000 1.0
C      1  0.5122300000000  0.4675580000000  0.5486110000000 1.0
C      1  0.5404330000000  0.5001070000000  0.5524450000000 1.0
C      1  0.5123830000000  0.4916420000000  0.4489380000000 1.0
END
