TITL C-38188-488-5 5.61027917147098e-05 125000 -358.142159766414 0 0 60 (C3) n - 1
REM
REM in /home/bkarasulu/CARBON/AIRSS/Generating-Clusters/EDIP-Nigel-Params/Higher-Symm/Box-15A/Only-C60/SD-CG/FIRE-HFTN
REM
REM
REM
REM
REM
REM ./C.cell (414f73aa93bd7a1190c7fd0f31ff2f98)
REM
REM compiler GCC version 9.2.1 20190827 (Red Hat 9.2.1-1)
REM options -cpp -mtune=generic -march=x86-64 -g -O0 -fpre-include=/usr/include/finclude/math-vector-fortran.h
REM seed 519352248 620634306 -1801126946 -462481295 -1882370866 -695563448 -252075011 -1472500475 1013100615 779156713 1689389698 -342712261 -2095735514 -219715343 1313745553 942466431 -1293997287 2035568899 2090082911 -1845762465 767629247 -1675423926 2049757852 2128691106 -135465007 -454355792 1518657853 -1894486428 -142300272 -1479727565 -1888872843 -97012864 -1803654097
REM
CELL 1.54180   50.00000   50.00000   50.00000   90.00000   90.00000   90.00000
LATT -1
SFAC C  
C      1  0.4213830000000  0.5202350000000  0.5130140000000 1.0
C      1  0.5280380000000  0.5202350000000  0.4254090000000 1.0
C      1  0.5505790000000  0.5202350000000  0.5615780000000 1.0
C      1  0.4584020000000  0.4526920000000  0.5489550000000 1.0
C      1  0.4784030000000  0.4526920000000  0.4394970000000 1.0
C      1  0.5631950000000  0.4526920000000  0.5115480000000 1.0
C      1  0.4879190000000  0.4665660000000  0.5171670000000 1.0
C      1  0.4911740000000  0.4665660000000  0.4809550000000 1.0
C      1  0.5209070000000  0.4665660000000  0.5018790000000 1.0
C      1  0.4445050000000  0.4767590000000  0.5380620000000 1.0
C      1  0.4947850000000  0.4767590000000  0.4329090000000 1.0
C      1  0.5607100000000  0.4767590000000  0.5290290000000 1.0
C      1  0.4359410000000  0.4992250000000  0.5533030000000 1.0
C      1  0.4858680000000  0.4992250000000  0.4178710000000 1.0
C      1  0.5781920000000  0.4992250000000  0.5288250000000 1.0
C      1  0.4991650000000  0.5071590000000  0.5652240000000 1.0
C      1  0.4439310000000  0.5071590000000  0.4666650000000 1.0
C      1  0.5569030000000  0.5071590000000  0.4681110000000 1.0
C      1  0.5710270000000  0.4611330000000  0.4855920000000 1.0
C      1  0.4769640000000  0.4611330000000  0.5687150000000 1.0
C      1  0.4520090000000  0.4611330000000  0.4456930000000 1.0
C      1  0.5483160000000  0.5134400000000  0.4419550000000 1.0
C      1  0.5261100000000  0.5134400000000  0.5708660000000 1.0
C      1  0.4255740000000  0.5134400000000  0.4871790000000 1.0
C      1  0.5144740000000  0.5627480000000  0.4828780000000 1.0
C      1  0.5075910000000  0.5627480000000  0.5210950000000 1.0
C      1  0.4779350000000  0.5627480000000  0.4960260000000 1.0
C      1  0.5407040000000  0.5736890000000  0.4868380000000 1.0
C      1  0.4910470000000  0.5736890000000  0.5418320000000 1.0
C      1  0.4682490000000  0.5736890000000  0.4713310000000 1.0
C      1  0.5572440000000  0.5520510000000  0.4884170000000 1.0
C      1  0.4814090000000  0.5520510000000  0.5553660000000 1.0
C      1  0.4613470000000  0.5520510000000  0.4562170000000 1.0
C      1  0.5134900000000  0.5350190000000  0.5284160000000 1.0
C      1  0.4686460000000  0.5350190000000  0.4974750000000 1.0
C      1  0.5178630000000  0.5350190000000  0.4741090000000 1.0
C      1  0.5346850000000  0.4412550000000  0.5131210000000 1.0
C      1  0.4712950000000  0.4412550000000  0.5234770000000 1.0
C      1  0.4940210000000  0.4412550000000  0.4634020000000 1.0
C      1  0.5004350000000  0.5205120000000  0.4300050000000 1.0
C      1  0.5604000000000  0.5205120000000  0.5353740000000 1.0
C      1  0.4391650000000  0.5205120000000  0.5346210000000 1.0
C      1  0.5240660000000  0.4407890000000  0.5397440000000 1.0
C      1  0.4535480000000  0.4407890000000  0.5009690000000 1.0
C      1  0.5223870000000  0.4407890000000  0.4592860000000 1.0
C      1  0.5361430000000  0.5178840000000  0.5175630000000 1.0
C      1  0.4667180000000  0.5178840000000  0.5225190000000 1.0
C      1  0.4971390000000  0.5178840000000  0.4599180000000 1.0
C      1  0.5299580000000  0.4682610000000  0.4587830000000 1.0
C      1  0.5207160000000  0.4682610000000  0.5465530000000 1.0
C      1  0.4493260000000  0.4682610000000  0.4946650000000 1.0
C      1  0.4894890000000  0.5267190000000  0.5438760000000 1.0
C      1  0.4672580000000  0.5267190000000  0.4689590000000 1.0
C      1  0.5432540000000  0.5267190000000  0.4871650000000 1.0
C      1  0.5325840000000  0.4851880000000  0.5247320000000 1.0
C      1  0.4622900000000  0.4851880000000  0.5158530000000 1.0
C      1  0.5051260000000  0.4851880000000  0.4594160000000 1.0
C      1  0.4510310000000  0.4786780000000  0.4678830000000 1.0
C      1  0.5522990000000  0.4786780000000  0.4736510000000 1.0
C      1  0.4966700000000  0.4786780000000  0.5584670000000 1.0
END
