TITL C-38194-9318-284 4.52550006092409e-05 125000 -354.952825607795 0 0 60 (C3) n - 1
REM
REM in /home/bkarasulu/CARBON/AIRSS/Generating-Clusters/EDIP-Nigel-Params/Higher-Symm/Box-15A/Only-C60/SD-CG/FIRE-HFTN
REM
REM
REM
REM
REM
REM ./C.cell (414f73aa93bd7a1190c7fd0f31ff2f98)
REM
REM compiler GCC version 9.2.1 20190827 (Red Hat 9.2.1-1)
REM options -cpp -mtune=generic -march=x86-64 -g -O0 -fpre-include=/usr/include/finclude/math-vector-fortran.h
REM seed 1683455858 408717883 -2093497458 2122375177 1104361573 755134190 647093549 -1787357284 1983055772 -849287021 1811934307 -85476411 -537180241 -1358428126 -973385770 1283308360 -1746372338 101071565 1834672215 2096603379 -943478827 -1739902092 -1464528619 2081570351 784148158 641979752 1595727686 2142686492 -1699706755 461958954 1573944744 1835535239 1695386360
REM
CELL 1.54180   50.00000   50.00000   50.00000   90.00000   90.00000   90.00000
LATT -1
SFAC C  
C      1  0.4320140000000  0.4666890000000  0.4854770000000 1.0
C      1  0.5465700000000  0.4666890000000  0.4483840000000 1.0
C      1  0.5214160000000  0.4666890000000  0.5661390000000 1.0
C      1  0.5334840000000  0.5458210000000  0.4550700000000 1.0
C      1  0.5221690000000  0.5458210000000  0.5514630000000 1.0
C      1  0.4443480000000  0.5458210000000  0.4934670000000 1.0
C      1  0.5091650000000  0.4761350000000  0.4837190000000 1.0
C      1  0.5095180000000  0.4761350000000  0.5160770000000 1.0
C      1  0.4813180000000  0.4761350000000  0.5002040000000 1.0
C      1  0.5435930000000  0.5523370000000  0.5656920000000 1.0
C      1  0.4213120000000  0.5523370000000  0.5049060000000 1.0
C      1  0.5350950000000  0.5523370000000  0.4294010000000 1.0
C      1  0.5148440000000  0.4987360000000  0.4425900000000 1.0
C      1  0.5422970000000  0.4987360000000  0.5415610000000 1.0
C      1  0.4428590000000  0.4987360000000  0.5158500000000 1.0
C      1  0.4938870000000  0.5098780000000  0.5801810000000 1.0
C      1  0.4336180000000  0.5098780000000  0.4546150000000 1.0
C      1  0.5724960000000  0.5098780000000  0.4652040000000 1.0
C      1  0.4872260000000  0.5135050000000  0.5272780000000 1.0
C      1  0.4827640000000  0.5135050000000  0.4752980000000 1.0
C      1  0.5300110000000  0.5135050000000  0.4974240000000 1.0
C      1  0.4622020000000  0.4753330000000  0.5681410000000 1.0
C      1  0.4598870000000  0.4753330000000  0.4331960000000 1.0
C      1  0.5779100000000  0.4753330000000  0.4986640000000 1.0
C      1  0.4554210000000  0.4504850000000  0.4758630000000 1.0
C      1  0.5431920000000  0.4504850000000  0.4734620000000 1.0
C      1  0.5013860000000  0.4504850000000  0.5506750000000 1.0
C      1  0.5544750000000  0.4603230000000  0.4993000000000 1.0
C      1  0.4733690000000  0.4603230000000  0.5475270000000 1.0
C      1  0.4721560000000  0.4603230000000  0.4531740000000 1.0
C      1  0.5447530000000  0.4712510000000  0.5484280000000 1.0
C      1  0.4356830000000  0.4712510000000  0.5145440000000 1.0
C      1  0.5195630000000  0.4712510000000  0.4370280000000 1.0
C      1  0.5167270000000  0.5612420000000  0.4743590000000 1.0
C      1  0.5138420000000  0.5612420000000  0.5273070000000 1.0
C      1  0.4694310000000  0.5612420000000  0.4983340000000 1.0
C      1  0.4464290000000  0.4986790000000  0.4322930000000 1.0
C      1  0.5854210000000  0.4986790000000  0.4874590000000 1.0
C      1  0.4681500000000  0.4986790000000  0.5802470000000 1.0
C      1  0.5156780000000  0.4405850000000  0.4718320000000 1.0
C      1  0.5165550000000  0.4405850000000  0.5276620000000 1.0
C      1  0.4677660000000  0.4405850000000  0.5005070000000 1.0
C      1  0.5571390000000  0.5355550000000  0.4699720000000 1.0
C      1  0.4974360000000  0.5355550000000  0.5644980000000 1.0
C      1  0.4454250000000  0.5355550000000  0.4655300000000 1.0
C      1  0.5002920000000  0.4510720000000  0.4490130000000 1.0
C      1  0.5440110000000  0.4510720000000  0.5257460000000 1.0
C      1  0.4556980000000  0.4510720000000  0.5252410000000 1.0
C      1  0.5138180000000  0.4902610000000  0.5797910000000 1.0
C      1  0.4239890000000  0.4902610000000  0.4720710000000 1.0
C      1  0.5621920000000  0.4902610000000  0.4481370000000 1.0
C      1  0.5108450000000  0.5040170000000  0.4712710000000 1.0
C      1  0.5194580000000  0.5040170000000  0.5237570000000 1.0
C      1  0.4696970000000  0.5040170000000  0.5049730000000 1.0
C      1  0.4769580000000  0.5372780000000  0.5428360000000 1.0
C      1  0.4744240000000  0.5372780000000  0.4586270000000 1.0
C      1  0.5486190000000  0.5372780000000  0.4985370000000 1.0
C      1  0.5298600000000  0.5608150000000  0.5015090000000 1.0
C      1  0.4837630000000  0.5608150000000  0.5251050000000 1.0
C      1  0.4863770000000  0.5608150000000  0.4733860000000 1.0
END
