TITL C-38186-4112-282 7.6914294424302e-06 125000 -356.568268381757 0 0 60 (Cs) n - 1
REM
REM in /home/bkarasulu/CARBON/AIRSS/Generating-Clusters/EDIP-Nigel-Params/Higher-Symm/Box-15A/Only-C60/SD-CG/FIRE-HFTN
REM
REM
REM
REM
REM
REM ./C.cell (414f73aa93bd7a1190c7fd0f31ff2f98)
REM
REM compiler GCC version 9.2.1 20190827 (Red Hat 9.2.1-1)
REM options -cpp -mtune=generic -march=x86-64 -g -O0 -fpre-include=/usr/include/finclude/math-vector-fortran.h
REM seed -267660397 1385743124 -54642693 -484468364 768332375 -1630133387 -353314923 225736784 -431373518 -1871763076 -766086546 -1443302963 -1209166888 1478916386 1629061868 -63092226 -2104328840 -2114671146 616083678 916582239 989133969 913088542 -1808269536 1306625374 2131524465 -350622528 -874879711 1865502882 1333898688 -839941525 -762170190 1580875764 -950773382
REM
CELL 1.54180   50.00000   50.00000   50.00000   90.00000   90.00000   90.00000
LATT -1
SFAC C  
C      1  0.5264890000000  0.4571930000000  0.5376550000000 1.0
C      1  0.4841640000000  0.4299830000000  0.5471240000000 1.0
C      1  0.4621350000000  0.5078570000000  0.5410140000000 1.0
C      1  0.4853270000000  0.5701520000000  0.5459690000000 1.0
C      1  0.5363190000000  0.5383080000000  0.5438030000000 1.0
C      1  0.4735110000000  0.4571930000000  0.5376550000000 1.0
C      1  0.5158360000000  0.4299830000000  0.5471240000000 1.0
C      1  0.5378650000000  0.5078570000000  0.5410140000000 1.0
C      1  0.5146730000000  0.5701520000000  0.5459690000000 1.0
C      1  0.4636810000000  0.5383080000000  0.5438030000000 1.0
C      1  0.4720820000000  0.4994650000000  0.5101430000000 1.0
C      1  0.4856820000000  0.5418000000000  0.5116470000000 1.0
C      1  0.5288350000000  0.5236660000000  0.4946850000000 1.0
C      1  0.5272240000000  0.4750640000000  0.4921330000000 1.0
C      1  0.4851390000000  0.4545760000000  0.5094330000000 1.0
C      1  0.5279180000000  0.4994650000000  0.5101430000000 1.0
C      1  0.5143180000000  0.5418000000000  0.5116470000000 1.0
C      1  0.4711650000000  0.5236660000000  0.4946850000000 1.0
C      1  0.4727760000000  0.4750640000000  0.4921330000000 1.0
C      1  0.5148610000000  0.4545760000000  0.5094330000000 1.0
C      1  0.4384470000000  0.4650980000000  0.4767910000000 1.0
C      1  0.4447990000000  0.5512910000000  0.4717810000000 1.0
C      1  0.5305850000000  0.5679030000000  0.4719370000000 1.0
C      1  0.5706510000000  0.4936630000000  0.4760420000000 1.0
C      1  0.5157620000000  0.4249030000000  0.4723270000000 1.0
C      1  0.5615530000000  0.4650980000000  0.4767910000000 1.0
C      1  0.5552010000000  0.5512910000000  0.4717810000000 1.0
C      1  0.4694150000000  0.5679030000000  0.4719370000000 1.0
C      1  0.4293490000000  0.4936630000000  0.4760420000000 1.0
C      1  0.4842380000000  0.4249030000000  0.4723270000000 1.0
C      1  0.4380280000000  0.4926430000000  0.5274610000000 1.0
C      1  0.4650550000000  0.5778350000000  0.5248390000000 1.0
C      1  0.5549490000000  0.5538020000000  0.5244270000000 1.0
C      1  0.5556010000000  0.4617360000000  0.5280330000000 1.0
C      1  0.4845390000000  0.4112300000000  0.5222720000000 1.0
C      1  0.5619720000000  0.4926430000000  0.5274610000000 1.0
C      1  0.5349450000000  0.5778350000000  0.5248390000000 1.0
C      1  0.4450510000000  0.5538020000000  0.5244270000000 1.0
C      1  0.4443990000000  0.4617360000000  0.5280330000000 1.0
C      1  0.5154610000000  0.4112300000000  0.5222720000000 1.0
C      1  0.4296050000000  0.5086280000000  0.5014140000000 1.0
C      1  0.4820240000000  0.5710310000000  0.4995550000000 1.0
C      1  0.5562960000000  0.5360420000000  0.4980750000000 1.0
C      1  0.5577610000000  0.4467050000000  0.5017460000000 1.0
C      1  0.4724160000000  0.4286470000000  0.4997170000000 1.0
C      1  0.5703950000000  0.5086280000000  0.5014140000000 1.0
C      1  0.5179760000000  0.5710310000000  0.4995550000000 1.0
C      1  0.4437040000000  0.5360420000000  0.4980750000000 1.0
C      1  0.4422390000000  0.4467050000000  0.5017460000000 1.0
C      1  0.5275850000000  0.4286470000000  0.4997170000000 1.0
C      1  0.5471590000000  0.5327090000000  0.4506570000000 1.0
C      1  0.5394610000000  0.4695330000000  0.4554530000000 1.0
C      1  0.4843470000000  0.4514480000000  0.4565460000000 1.0
C      1  0.4448120000000  0.5053830000000  0.4540740000000 1.0
C      1  0.4853450000000  0.5517070000000  0.4532470000000 1.0
C      1  0.4528410000000  0.5327090000000  0.4506570000000 1.0
C      1  0.4605390000000  0.4695330000000  0.4554530000000 1.0
C      1  0.5156530000000  0.4514480000000  0.4565460000000 1.0
C      1  0.5551880000000  0.5053830000000  0.4540740000000 1.0
C      1  0.5146550000000  0.5517070000000  0.4532470000000 1.0
END
