TITL C-38193-7935-580 2.52062003741402e-05 125000 -359.580259835606 0 0 60 (C1) n - 1
REM
REM in /home/bkarasulu/CARBON/AIRSS/Generating-Clusters/EDIP-Nigel-Params/Higher-Symm/Box-15A/Only-C60/SD-CG/FIRE-HFTN
REM
REM
REM
REM
REM
REM ./C.cell (414f73aa93bd7a1190c7fd0f31ff2f98)
REM
REM compiler GCC version 9.2.1 20190827 (Red Hat 9.2.1-1)
REM options -cpp -mtune=generic -march=x86-64 -g -O0 -fpre-include=/usr/include/finclude/math-vector-fortran.h
REM seed -583685162 -1475947551 -1863455612 -424801345 1936416402 -591978730 786010011 449108583 1486337529 142221563 -746726789 311491751 -730771470 297650716 1948568919 -1685096157 -1687687929 -1469824610 1829579443 1736055301 799669603 1872467079 -1546526141 1027581685 1765053821 1800342387 -743557054 1619243964 -1604548356 -193287459 1135851480 384894330 1119459479
REM
CELL 1.54180   50.00000   50.00000   50.00000   90.00000   90.00000   90.00000
LATT -1
SFAC C  
C      1  0.5153890000000  0.5584710000000  0.5259480000000 1.0
C      1  0.4641550000000  0.4529100000000  0.5340300000000 1.0
C      1  0.5291350000000  0.4389670000000  0.4773300000000 1.0
C      1  0.4674750000000  0.4945310000000  0.4612050000000 1.0
C      1  0.5520340000000  0.5513360000000  0.4877530000000 1.0
C      1  0.5264450000000  0.5650460000000  0.4982960000000 1.0
C      1  0.4419690000000  0.5301460000000  0.5336780000000 1.0
C      1  0.5715250000000  0.5446290000000  0.5075580000000 1.0
C      1  0.5841790000000  0.5206810000000  0.5119570000000 1.0
C      1  0.4594250000000  0.5170120000000  0.4429220000000 1.0
C      1  0.4922530000000  0.5159710000000  0.4222260000000 1.0
C      1  0.5611600000000  0.4607650000000  0.4741800000000 1.0
C      1  0.5783250000000  0.5007840000000  0.4928470000000 1.0
C      1  0.5279470000000  0.5216080000000  0.5746950000000 1.0
C      1  0.5038150000000  0.4325860000000  0.4894920000000 1.0
C      1  0.5273120000000  0.5300630000000  0.4496980000000 1.0
C      1  0.4736770000000  0.4278380000000  0.5241600000000 1.0
C      1  0.4395690000000  0.5008080000000  0.5411240000000 1.0
C      1  0.5475630000000  0.5056210000000  0.5614890000000 1.0
C      1  0.5367200000000  0.5021530000000  0.5347070000000 1.0
C      1  0.5336440000000  0.4659860000000  0.4667750000000 1.0
C      1  0.5194930000000  0.4889480000000  0.5022130000000 1.0
C      1  0.4436510000000  0.5412660000000  0.4842970000000 1.0
C      1  0.5645010000000  0.4601980000000  0.5218890000000 1.0
C      1  0.4979480000000  0.4620070000000  0.4359240000000 1.0
C      1  0.4776420000000  0.4706480000000  0.5526880000000 1.0
C      1  0.4926940000000  0.4798290000000  0.4943420000000 1.0
C      1  0.4216170000000  0.5017610000000  0.4999730000000 1.0
C      1  0.5443190000000  0.4529780000000  0.5384520000000 1.0
C      1  0.4709630000000  0.5363740000000  0.5377010000000 1.0
C      1  0.5055490000000  0.4795760000000  0.5568500000000 1.0
C      1  0.4528950000000  0.5676250000000  0.4846170000000 1.0
C      1  0.5031520000000  0.5444580000000  0.4574000000000 1.0
C      1  0.5312320000000  0.4644790000000  0.5605820000000 1.0
C      1  0.4857830000000  0.5585070000000  0.5243690000000 1.0
C      1  0.5173570000000  0.5064740000000  0.4342370000000 1.0
C      1  0.5040920000000  0.5067680000000  0.5685700000000 1.0
C      1  0.5206140000000  0.4770980000000  0.4421420000000 1.0
C      1  0.4818400000000  0.5389290000000  0.4380210000000 1.0
C      1  0.4991640000000  0.4217980000000  0.5147700000000 1.0
C      1  0.4284510000000  0.5306930000000  0.5067470000000 1.0
C      1  0.4539220000000  0.4697350000000  0.4539190000000 1.0
C      1  0.4362600000000  0.5253820000000  0.4607370000000 1.0
C      1  0.4777790000000  0.4524000000000  0.4528140000000 1.0
C      1  0.5723960000000  0.4724280000000  0.4978130000000 1.0
C      1  0.4786740000000  0.5199900000000  0.5618360000000 1.0
C      1  0.4788060000000  0.5655410000000  0.4960800000000 1.0
C      1  0.5335440000000  0.5267760000000  0.5197220000000 1.0
C      1  0.4569780000000  0.4488090000000  0.4963080000000 1.0
C      1  0.4444640000000  0.4870350000000  0.5136560000000 1.0
C      1  0.4256540000000  0.4990390000000  0.4710790000000 1.0
C      1  0.4840040000000  0.4530650000000  0.4828380000000 1.0
C      1  0.5444940000000  0.5257040000000  0.4732560000000 1.0
C      1  0.4693600000000  0.4967490000000  0.4988420000000 1.0
C      1  0.5257490000000  0.5158200000000  0.4943990000000 1.0
C      1  0.4374610000000  0.4632380000000  0.4772540000000 1.0
C      1  0.5684980000000  0.5096110000000  0.4680520000000 1.0
C      1  0.5503260000000  0.4805870000000  0.5744620000000 1.0
C      1  0.5029990000000  0.5648790000000  0.4790900000000 1.0
C      1  0.4619610000000  0.4948880000000  0.5599900000000 1.0
END
