TITL C-38187-2739-573 1.15115818825288e-05 125000 -372.11341484382 0 0 60 (S4) n - 1
REM
REM in /home/bkarasulu/CARBON/AIRSS/Generating-Clusters/EDIP-Nigel-Params/Higher-Symm/Box-15A/Only-C60/SD-CG/FIRE-HFTN
REM
REM
REM
REM
REM
REM ./C.cell (414f73aa93bd7a1190c7fd0f31ff2f98)
REM
REM compiler GCC version 9.2.1 20190827 (Red Hat 9.2.1-1)
REM options -cpp -mtune=generic -march=x86-64 -g -O0 -fpre-include=/usr/include/finclude/math-vector-fortran.h
REM seed -364397817 -142631387 1631967790 1498146346 633288891 -962146440 484563967 -2087419797 1797983088 -1083715015 -285902587 737689614 539035509 1994150889 943956349 -10329523 -1006242531 -2138582312 2129334183 -1905238648 -959986925 572355199 -1142322772 -1408777329 546909317 323807075 1640063455 -1591294864 -524872985 -1899577946 1707852267 389908961 1512501027
REM
CELL 1.54180   50.00000   50.00000   50.00000   90.00000   90.00000   90.00000
LATT -1
SFAC C  
C      1  0.4779780000000  0.5200720000000  0.4269390000000 1.0
C      1  0.5200720000000  0.5220220000000  0.5730610000000 1.0
C      1  0.5220220000000  0.4799280000000  0.4269390000000 1.0
C      1  0.4799280000000  0.4779780000000  0.5730610000000 1.0
C      1  0.5066030000000  0.5290430000000  0.4289940000000 1.0
C      1  0.5290430000000  0.4933970000000  0.5710060000000 1.0
C      1  0.4933970000000  0.4709570000000  0.4289940000000 1.0
C      1  0.4709570000000  0.5066030000000  0.5710060000000 1.0
C      1  0.5167030000000  0.5483740000000  0.5022530000000 1.0
C      1  0.5483740000000  0.4832970000000  0.4977470000000 1.0
C      1  0.4832970000000  0.4516260000000  0.5022530000000 1.0
C      1  0.4516260000000  0.5167030000000  0.4977470000000 1.0
C      1  0.5491760000000  0.4920190000000  0.5480890000000 1.0
C      1  0.4920190000000  0.4508240000000  0.4519110000000 1.0
C      1  0.4508240000000  0.5079810000000  0.5480890000000 1.0
C      1  0.5079810000000  0.5491760000000  0.4519110000000 1.0
C      1  0.4880820000000  0.5581040000000  0.5414600000000 1.0
C      1  0.5581040000000  0.5119180000000  0.4585400000000 1.0
C      1  0.5119180000000  0.4418960000000  0.5414600000000 1.0
C      1  0.4418960000000  0.4880820000000  0.4585400000000 1.0
C      1  0.5558280000000  0.5151280000000  0.4307230000000 1.0
C      1  0.5151280000000  0.4441720000000  0.5692770000000 1.0
C      1  0.4441720000000  0.4848720000000  0.4307230000000 1.0
C      1  0.4848720000000  0.5558280000000  0.5692770000000 1.0
C      1  0.4481960000000  0.4632160000000  0.4722970000000 1.0
C      1  0.4632160000000  0.5518040000000  0.5277030000000 1.0
C      1  0.5518040000000  0.5367840000000  0.4722970000000 1.0
C      1  0.5367840000000  0.4481960000000  0.5277030000000 1.0
C      1  0.5324680000000  0.5366080000000  0.5501150000000 1.0
C      1  0.5366080000000  0.4675320000000  0.4498850000000 1.0
C      1  0.4675320000000  0.4633920000000  0.5501150000000 1.0
C      1  0.4633920000000  0.5324680000000  0.4498850000000 1.0
C      1  0.4640360000000  0.5217970000000  0.5237270000000 1.0
C      1  0.5217970000000  0.5359640000000  0.4762730000000 1.0
C      1  0.5359640000000  0.4782030000000  0.5237270000000 1.0
C      1  0.4782030000000  0.4640360000000  0.4762730000000 1.0
C      1  0.4333050000000  0.4600100000000  0.4953630000000 1.0
C      1  0.4600100000000  0.5666950000000  0.5046370000000 1.0
C      1  0.5666950000000  0.5399900000000  0.4953630000000 1.0
C      1  0.5399900000000  0.4333050000000  0.5046370000000 1.0
C      1  0.5137770000000  0.5061380000000  0.4761890000000 1.0
C      1  0.5061380000000  0.4862230000000  0.5238110000000 1.0
C      1  0.4862230000000  0.4938620000000  0.4761890000000 1.0
C      1  0.4938620000000  0.5137770000000  0.5238110000000 1.0
C      1  0.5205210000000  0.4437820000000  0.4575640000000 1.0
C      1  0.4437820000000  0.4794790000000  0.5424360000000 1.0
C      1  0.4794790000000  0.5562180000000  0.4575640000000 1.0
C      1  0.5562180000000  0.5205210000000  0.5424360000000 1.0
C      1  0.5090670000000  0.5395180000000  0.5288700000000 1.0
C      1  0.5395180000000  0.4909330000000  0.4711300000000 1.0
C      1  0.4909330000000  0.4604820000000  0.5288700000000 1.0
C      1  0.4604820000000  0.5090670000000  0.4711300000000 1.0
C      1  0.5288170000000  0.5088540000000  0.4252260000000 1.0
C      1  0.5088540000000  0.4711830000000  0.5747740000000 1.0
C      1  0.4711830000000  0.4911460000000  0.4252260000000 1.0
C      1  0.4911460000000  0.5288170000000  0.5747740000000 1.0
C      1  0.4725000000000  0.5690040000000  0.4812750000000 1.0
C      1  0.5690040000000  0.5275000000000  0.5187250000000 1.0
C      1  0.5275000000000  0.4309960000000  0.4812750000000 1.0
C      1  0.4309960000000  0.4725000000000  0.5187250000000 1.0
END
