TITL C-38187-2739-572 -0.000708024789284428 125000 -354.231511704341 0 0 60 (C1) n - 1
REM
REM in /home/bkarasulu/CARBON/AIRSS/Generating-Clusters/EDIP-Nigel-Params/Higher-Symm/Box-15A/Only-C60/SD-CG/FIRE-HFTN
REM
REM
REM
REM
REM
REM ./C.cell (414f73aa93bd7a1190c7fd0f31ff2f98)
REM
REM compiler GCC version 9.2.1 20190827 (Red Hat 9.2.1-1)
REM options -cpp -mtune=generic -march=x86-64 -g -O0 -fpre-include=/usr/include/finclude/math-vector-fortran.h
REM seed 1179956176 -445173977 794023688 711707435 -210031896 -650464601 -2023993443 -543506721 -428709965 1997800591 -926127909 224985183 2022654960 -843762553 1172180973 1031558744 1803072326 1509944856 1453585164 -1461909395 1660481171 -407741179 2041936179 1638178551 1529598956 -399528131 -735394561 725413848 -89720037 -263490633 -2110279407 1546994422 1778784465
REM
CELL 1.54180   50.00000   50.00000   50.00000   90.00000   90.00000   90.00000
LATT -1
SFAC C  
C      1  0.4311000000000  0.4420030000000  0.5338710000000 1.0
C      1  0.4300370000000  0.5024630000000  0.4366940000000 1.0
C      1  0.4298640000000  0.5542780000000  0.5273780000000 1.0
C      1  0.5028240000000  0.4662140000000  0.5915250000000 1.0
C      1  0.4961250000000  0.4351910000000  0.4243870000000 1.0
C      1  0.5044370000000  0.5957130000000  0.4846920000000 1.0
C      1  0.4712490000000  0.5193930000000  0.5678170000000 1.0
C      1  0.4753130000000  0.4289380000000  0.4846630000000 1.0
C      1  0.4775460000000  0.5491190000000  0.4471340000000 1.0
C      1  0.4659600000000  0.4576680000000  0.5629240000000 1.0
C      1  0.4628280000000  0.4674450000000  0.4343420000000 1.0
C      1  0.4665410000000  0.5743970000000  0.5037490000000 1.0
C      1  0.4888530000000  0.4995900000000  0.4729950000000 1.0
C      1  0.4908180000000  0.5230640000000  0.5135150000000 1.0
C      1  0.4878550000000  0.4761920000000  0.5136290000000 1.0
C      1  0.5444080000000  0.4428690000000  0.4639430000000 1.0
C      1  0.5482480000000  0.5540690000000  0.4676510000000 1.0
C      1  0.5439330000000  0.5076240000000  0.5685780000000 1.0
C      1  0.4907900000000  0.5008520000000  0.5582780000000 1.0
C      1  0.4908760000000  0.4489950000000  0.4715920000000 1.0
C      1  0.4941670000000  0.5494360000000  0.4703590000000 1.0
C      1  0.4689480000000  0.5637560000000  0.5503720000000 1.0
C      1  0.4728540000000  0.4220580000000  0.5318070000000 1.0
C      1  0.4715300000000  0.5116300000000  0.4182450000000 1.0
C      1  0.4896070000000  0.5242150000000  0.4858250000000 1.0
C      1  0.4890930000000  0.4996930000000  0.5283930000000 1.0
C      1  0.4869960000000  0.4750470000000  0.4858550000000 1.0
C      1  0.5458420000000  0.6339020000000  0.4823610000000 1.0
C      1  0.5432560000000  0.4527500000000  0.6284300000000 1.0
C      1  0.5331150000000  0.4088130000000  0.3910170000000 1.0
C      1  0.5491620000000  0.4727950000000  0.6088580000000 1.0
C      1  0.5427240000000  0.4196220000000  0.4157260000000 1.0
C      1  0.5524920000000  0.6066400000000  0.4766750000000 1.0
C      1  0.4534260000000  0.5694610000000  0.5274610000000 1.0
C      1  0.4551830000000  0.4375470000000  0.5475150000000 1.0
C      1  0.4529700000000  0.4913980000000  0.4249620000000 1.0
C      1  0.5678710000000  0.5136030000000  0.5215940000000 1.0
C      1  0.5682800000000  0.4864170000000  0.4828620000000 1.0
C      1  0.5681650000000  0.5113310000000  0.4942820000000 1.0
C      1  0.5502750000000  0.4306680000000  0.4400800000000 1.0
C      1  0.5571390000000  0.5797510000000  0.4714140000000 1.0
C      1  0.5531140000000  0.4920270000000  0.5891960000000 1.0
C      1  0.4829140000000  0.4506640000000  0.4428430000000 1.0
C      1  0.4881390000000  0.5736890000000  0.4867120000000 1.0
C      1  0.4864930000000  0.4741420000000  0.5709050000000 1.0
C      1  0.5223620000000  0.4591780000000  0.6099780000000 1.0
C      1  0.5138810000000  0.4220590000000  0.4075390000000 1.0
C      1  0.5244420000000  0.6149630000000  0.4836720000000 1.0
C      1  0.5184110000000  0.4416670000000  0.4729090000000 1.0
C      1  0.5214890000000  0.5505160000000  0.4622450000000 1.0
C      1  0.5166910000000  0.5102560000000  0.5656150000000 1.0
C      1  0.4557360000000  0.5413760000000  0.5615120000000 1.0
C      1  0.4601250000000  0.4216850000000  0.5065630000000 1.0
C      1  0.4606900000000  0.5345170000000  0.4308260000000 1.0
C      1  0.4340550000000  0.4318310000000  0.5086520000000 1.0
C      1  0.4346790000000  0.5292270000000  0.4399080000000 1.0
C      1  0.4311480000000  0.5371730000000  0.5486850000000 1.0
C      1  0.5606000000000  0.4630240000000  0.4730370000000 1.0
C      1  0.5622550000000  0.5332780000000  0.4788620000000 1.0
C      1  0.5600740000000  0.5121160000000  0.5468890000000 1.0
END
