TITL C-38196-2854-148 2.8233746763991e-06 125000 -378.665257851914 0 0 60 (C1) n - 1
REM
REM in /home/bkarasulu/CARBON/AIRSS/Generating-Clusters/EDIP-Nigel-Params/Higher-Symm/Box-15A/Only-C60/SD-CG/FIRE-HFTN
REM
REM
REM
REM
REM
REM ./C.cell (414f73aa93bd7a1190c7fd0f31ff2f98)
REM
REM compiler GCC version 9.2.1 20190827 (Red Hat 9.2.1-1)
REM options -cpp -mtune=generic -march=x86-64 -g -O0 -fpre-include=/usr/include/finclude/math-vector-fortran.h
REM seed -387727395 1491066139 1598198853 1994897075 -25506816 1293228653 894561171 87520462 1815938863 -1939260337 81767633 -812493256 -1048088403 -1300505097 1432375539 -305850565 1613856463 1280631754 1008205301 -1104520435 -2112846908 1781079628 -709168971 -1534042265 2090288448 -1808901537 -521891368 -1691346358 -302305716 411070822 -787729289 591078660 1453954657
REM
CELL 1.54180   50.00000   50.00000   50.00000   90.00000   90.00000   90.00000
LATT -1
SFAC C  
C      1  0.4590010000000  0.4558180000000  0.5180410000000 1.0
C      1  0.4354570000000  0.5338100000000  0.4734000000000 1.0
C      1  0.5316220000000  0.4632010000000  0.4229610000000 1.0
C      1  0.4554470000000  0.5513960000000  0.4859940000000 1.0
C      1  0.5414310000000  0.4551510000000  0.4812850000000 1.0
C      1  0.5391330000000  0.5455530000000  0.5202260000000 1.0
C      1  0.4357290000000  0.4704770000000  0.5283700000000 1.0
C      1  0.5608540000000  0.5270150000000  0.5254300000000 1.0
C      1  0.5649150000000  0.4692270000000  0.4697480000000 1.0
C      1  0.5261600000000  0.5234930000000  0.5725370000000 1.0
C      1  0.4736370000000  0.4755250000000  0.5726300000000 1.0
C      1  0.4824270000000  0.5273170000000  0.4327530000000 1.0
C      1  0.5262090000000  0.4467470000000  0.5309600000000 1.0
C      1  0.5491340000000  0.5183950000000  0.4609800000000 1.0
C      1  0.4834750000000  0.4600800000000  0.4435990000000 1.0
C      1  0.5235580000000  0.5669380000000  0.4781010000000 1.0
C      1  0.4764730000000  0.4479520000000  0.4693720000000 1.0
C      1  0.4730310000000  0.5547590000000  0.5340040000000 1.0
C      1  0.5757210000000  0.4823320000000  0.5374000000000 1.0
C      1  0.4226860000000  0.5162280000000  0.5389360000000 1.0
C      1  0.4282910000000  0.4869950000000  0.4623670000000 1.0
C      1  0.4801650000000  0.5393090000000  0.5578680000000 1.0
C      1  0.5193830000000  0.4606090000000  0.5561470000000 1.0
C      1  0.5313310000000  0.5274680000000  0.4393550000000 1.0
C      1  0.5837390000000  0.4744160000000  0.4905040000000 1.0
C      1  0.4563530000000  0.4964090000000  0.5675010000000 1.0
C      1  0.4762330000000  0.5640550000000  0.4725700000000 1.0
C      1  0.5769270000000  0.5239110000000  0.5023430000000 1.0
C      1  0.4169910000000  0.4735180000000  0.5072410000000 1.0
C      1  0.4152100000000  0.5284360000000  0.4926860000000 1.0
C      1  0.4634020000000  0.5075720000000  0.4371680000000 1.0
C      1  0.5451730000000  0.4873160000000  0.4258460000000 1.0
C      1  0.5430450000000  0.5024680000000  0.5665840000000 1.0
C      1  0.4817910000000  0.4463040000000  0.5339250000000 1.0
C      1  0.5174230000000  0.5556300000000  0.5365500000000 1.0
C      1  0.5204210000000  0.4420420000000  0.4655920000000 1.0
C      1  0.4305740000000  0.4684890000000  0.4830750000000 1.0
C      1  0.5353540000000  0.4764450000000  0.5728620000000 1.0
C      1  0.5016660000000  0.5594790000000  0.4632180000000 1.0
C      1  0.4276640000000  0.5331900000000  0.5174520000000 1.0
C      1  0.5716010000000  0.4667590000000  0.5147170000000 1.0
C      1  0.5611500000000  0.5355080000000  0.4817340000000 1.0
C      1  0.5317890000000  0.5102640000000  0.4170500000000 1.0
C      1  0.4701540000000  0.4812410000000  0.4310890000000 1.0
C      1  0.4642950000000  0.5223750000000  0.5734750000000 1.0
C      1  0.5034070000000  0.4327120000000  0.5220480000000 1.0
C      1  0.4956240000000  0.5689120000000  0.5243550000000 1.0
C      1  0.4975480000000  0.4315710000000  0.4783420000000 1.0
C      1  0.5120920000000  0.4544210000000  0.4408480000000 1.0
C      1  0.4561080000000  0.4560260000000  0.4888390000000 1.0
C      1  0.4434920000000  0.5099530000000  0.4579650000000 1.0
C      1  0.5088860000000  0.5409830000000  0.5598190000000 1.0
C      1  0.4905130000000  0.4587760000000  0.5584710000000 1.0
C      1  0.5047860000000  0.5371610000000  0.4460170000000 1.0
C      1  0.4530800000000  0.5464880000000  0.5143590000000 1.0
C      1  0.5458930000000  0.4542410000000  0.5102130000000 1.0
C      1  0.5436840000000  0.5557560000000  0.4936790000000 1.0
C      1  0.4387780000000  0.4942780000000  0.5449510000000 1.0
C      1  0.5598990000000  0.5044400000000  0.5434890000000 1.0
C      1  0.5599840000000  0.4926620000000  0.4509570000000 1.0
END
