TITL C-38192-7909-246 0.000171099995604103 125000 -356.707570013604 0 0 60 (C1) n - 1
REM
REM in /home/bkarasulu/CARBON/AIRSS/Generating-Clusters/EDIP-Nigel-Params/Higher-Symm/Box-15A/Only-C60/SD-CG/FIRE-HFTN
REM
REM
REM
REM
REM
REM ./C.cell (414f73aa93bd7a1190c7fd0f31ff2f98)
REM
REM compiler GCC version 9.2.1 20190827 (Red Hat 9.2.1-1)
REM options -cpp -mtune=generic -march=x86-64 -g -O0 -fpre-include=/usr/include/finclude/math-vector-fortran.h
REM seed -121461807 -326147860 -1085035736 -1679571100 -939617779 685781758 447502413 1593067212 758988177 -420111355 -1512525415 1864562841 679911737 250113792 1944886040 -901016814 -491845496 -14755727 -1389988262 1715087868 -1932977442 -1741507875 -193869683 -433626865 -60660588 1634268363 -1857229456 1880490795 -221156415 -1847013575 -1163002799 1380287323 997035743
REM
CELL 1.54180   50.00000   50.00000   50.00000   90.00000   90.00000   90.00000
LATT -1
SFAC C  
C      1  0.4870210000000  0.5192390000000  0.4508500000000 1.0
C      1  0.4824500000000  0.4886110000000  0.4570560000000 1.0
C      1  0.5075820000000  0.4750810000000  0.4481740000000 1.0
C      1  0.5308330000000  0.4925960000000  0.4581760000000 1.0
C      1  0.5184980000000  0.5236240000000  0.4561100000000 1.0
C      1  0.5230000000000  0.5320030000000  0.5709820000000 1.0
C      1  0.4786040000000  0.5316040000000  0.5705320000000 1.0
C      1  0.4669130000000  0.4886940000000  0.5670470000000 1.0
C      1  0.5002650000000  0.4602480000000  0.5603200000000 1.0
C      1  0.5332670000000  0.4885310000000  0.5693500000000 1.0
C      1  0.4888440000000  0.4954150000000  0.4090330000000 1.0
C      1  0.5121290000000  0.4819690000000  0.4194110000000 1.0
C      1  0.5336570000000  0.5020000000000  0.4209500000000 1.0
C      1  0.5207590000000  0.5274770000000  0.4180270000000 1.0
C      1  0.4921940000000  0.5214220000000  0.4205570000000 1.0
C      1  0.5496400000000  0.4850900000000  0.5246020000000 1.0
C      1  0.5309540000000  0.5424750000000  0.5220710000000 1.0
C      1  0.4711550000000  0.5434250000000  0.5228090000000 1.0
C      1  0.4519620000000  0.4870570000000  0.5215850000000 1.0
C      1  0.4973360000000  0.4386780000000  0.5151330000000 1.0
C      1  0.5150000000000  0.5594890000000  0.5059440000000 1.0
C      1  0.4489180000000  0.5334960000000  0.5082430000000 1.0
C      1  0.4545990000000  0.4623390000000  0.5068720000000 1.0
C      1  0.5242880000000  0.4433670000000  0.5162250000000 1.0
C      1  0.5603540000000  0.5047890000000  0.5075520000000 1.0
C      1  0.4762650000000  0.4635570000000  0.5746130000000 1.0
C      1  0.5225990000000  0.4640130000000  0.5770530000000 1.0
C      1  0.5343200000000  0.5110160000000  0.5856900000000 1.0
C      1  0.5005580000000  0.5438970000000  0.5827530000000 1.0
C      1  0.4666960000000  0.5104610000000  0.5843990000000 1.0
C      1  0.3991040000000  0.5103290000000  0.4736400000000 1.0
C      1  0.4549020000000  0.4214530000000  0.4580070000000 1.0
C      1  0.5563140000000  0.4399750000000  0.4646480000000 1.0
C      1  0.5748730000000  0.5355120000000  0.4611120000000 1.0
C      1  0.4899390000000  0.5804190000000  0.4596690000000 1.0
C      1  0.4755170000000  0.4952440000000  0.5397580000000 1.0
C      1  0.5010910000000  0.4782940000000  0.5349020000000 1.0
C      1  0.5263080000000  0.4946690000000  0.5417000000000 1.0
C      1  0.5171160000000  0.5245500000000  0.5425500000000 1.0
C      1  0.4850580000000  0.5247430000000  0.5422830000000 1.0
C      1  0.5445130000000  0.4613020000000  0.5084280000000 1.0
C      1  0.5505020000000  0.5310170000000  0.5040410000000 1.0
C      1  0.4866880000000  0.5586690000000  0.5038700000000 1.0
C      1  0.4392550000000  0.5071530000000  0.5049890000000 1.0
C      1  0.4748960000000  0.4436500000000  0.4987870000000 1.0
C      1  0.5640280000000  0.4534710000000  0.4884880000000 1.0
C      1  0.5628440000000  0.5478720000000  0.4838550000000 1.0
C      1  0.4734820000000  0.5722420000000  0.4816180000000 1.0
C      1  0.4112240000000  0.5038970000000  0.4984720000000 1.0
C      1  0.4650660000000  0.4206600000000  0.4844920000000 1.0
C      1  0.4786450000000  0.5177820000000  0.4885800000000 1.0
C      1  0.4784540000000  0.4861160000000  0.4870580000000 1.0
C      1  0.5041140000000  0.4768740000000  0.5010890000000 1.0
C      1  0.5262890000000  0.4972190000000  0.4900060000000 1.0
C      1  0.5099210000000  0.5253340000000  0.4876820000000 1.0
C      1  0.4782300000000  0.4086570000000  0.4623990000000 1.0
C      1  0.5651420000000  0.4654030000000  0.4624570000000 1.0
C      1  0.5530810000000  0.5508550000000  0.4570870000000 1.0
C      1  0.4722450000000  0.5605940000000  0.4553200000000 1.0
C      1  0.4004970000000  0.4843830000000  0.4808930000000 1.0
END
