TITL C-38196-2854-123 5.97244548838645e-05 125000 -363.648214073602 0 0 60 (C1) n - 1
REM
REM in /home/bkarasulu/CARBON/AIRSS/Generating-Clusters/EDIP-Nigel-Params/Higher-Symm/Box-15A/Only-C60/SD-CG/FIRE-HFTN
REM
REM
REM
REM
REM
REM ./C.cell (414f73aa93bd7a1190c7fd0f31ff2f98)
REM
REM compiler GCC version 9.2.1 20190827 (Red Hat 9.2.1-1)
REM options -cpp -mtune=generic -march=x86-64 -g -O0 -fpre-include=/usr/include/finclude/math-vector-fortran.h
REM seed 1809030032 -1290775301 -756760498 -2073501170 1201952804 -1705872976 -1930131057 1880890864 -902150962 -305789935 1424570114 1327821050 -1089824212 -2081510370 -930908411 601677985 1200812909 8609808 399193641 -1780011153 -1153927114 613582722 -245590819 -1036274066 70834398 -503741982 747433496 1885167440 1974028215 -1801532725 -1028431156 -1309862697 -1172170666
REM
CELL 1.54180   50.00000   50.00000   50.00000   90.00000   90.00000   90.00000
LATT -1
SFAC C  
C      1  0.4540250000000  0.5525240000000  0.5311350000000 1.0
C      1  0.4572870000000  0.4461730000000  0.5280690000000 1.0
C      1  0.4506130000000  0.5028580000000  0.4363610000000 1.0
C      1  0.5528570000000  0.5287490000000  0.4733870000000 1.0
C      1  0.5486080000000  0.5101480000000  0.5468690000000 1.0
C      1  0.5442620000000  0.4614600000000  0.4873060000000 1.0
C      1  0.4470990000000  0.5380490000000  0.5544360000000 1.0
C      1  0.4509780000000  0.4338760000000  0.5035600000000 1.0
C      1  0.4412300000000  0.5294000000000  0.4386700000000 1.0
C      1  0.5202080000000  0.5723230000000  0.4836240000000 1.0
C      1  0.5205030000000  0.4716210000000  0.5795080000000 1.0
C      1  0.5175220000000  0.4508030000000  0.4346730000000 1.0
C      1  0.4965650000000  0.4970160000000  0.4161610000000 1.0
C      1  0.4969910000000  0.5752360000000  0.5315290000000 1.0
C      1  0.4987350000000  0.4315100000000  0.5509340000000 1.0
C      1  0.4255770000000  0.5149790000000  0.5160410000000 1.0
C      1  0.4274280000000  0.4772860000000  0.5055680000000 1.0
C      1  0.4250810000000  0.5050620000000  0.4780360000000 1.0
C      1  0.5333580000000  0.5594220000000  0.5051010000000 1.0
C      1  0.5337250000000  0.4639630000000  0.5557320000000 1.0
C      1  0.5334390000000  0.4740040000000  0.4376880000000 1.0
C      1  0.4333460000000  0.5309330000000  0.4659010000000 1.0
C      1  0.4384690000000  0.5131250000000  0.5435040000000 1.0
C      1  0.4377930000000  0.4544360000000  0.4891580000000 1.0
C      1  0.4969480000000  0.4826270000000  0.5720140000000 1.0
C      1  0.4960190000000  0.4548860000000  0.4506870000000 1.0
C      1  0.4981260000000  0.5574190000000  0.4785960000000 1.0
C      1  0.4865540000000  0.5385770000000  0.4969770000000 1.0
C      1  0.4870450000000  0.4808310000000  0.5449760000000 1.0
C      1  0.4858110000000  0.4797480000000  0.4612270000000 1.0
C      1  0.5361470000000  0.4855530000000  0.5345160000000 1.0
C      1  0.5366500000000  0.4828720000000  0.4667500000000 1.0
C      1  0.5395760000000  0.5302780000000  0.5011160000000 1.0
C      1  0.5330880000000  0.4322470000000  0.5188300000000 1.0
C      1  0.5340010000000  0.5221470000000  0.4298460000000 1.0
C      1  0.5317430000000  0.5507900000000  0.5532110000000 1.0
C      1  0.5849950000000  0.4921230000000  0.4767320000000 1.0
C      1  0.5853740000000  0.5139090000000  0.5184220000000 1.0
C      1  0.5795570000000  0.4906680000000  0.5040830000000 1.0
C      1  0.5235050000000  0.5664800000000  0.5317050000000 1.0
C      1  0.5255210000000  0.4376620000000  0.5451080000000 1.0
C      1  0.5242420000000  0.4973100000000  0.4212550000000 1.0
C      1  0.4579480000000  0.4912880000000  0.5430300000000 1.0
C      1  0.4513280000000  0.4649300000000  0.4665940000000 1.0
C      1  0.4510410000000  0.5437580000000  0.4838080000000 1.0
C      1  0.5291200000000  0.4386590000000  0.4929900000000 1.0
C      1  0.5394550000000  0.5383410000000  0.4508130000000 1.0
C      1  0.5341380000000  0.5264880000000  0.5644530000000 1.0
C      1  0.4424570000000  0.4708470000000  0.5301820000000 1.0
C      1  0.4368470000000  0.4874590000000  0.4571790000000 1.0
C      1  0.4384480000000  0.5411700000000  0.5090470000000 1.0
C      1  0.4821190000000  0.5525810000000  0.5237450000000 1.0
C      1  0.4840760000000  0.4515030000000  0.5376350000000 1.0
C      1  0.4792640000000  0.4977180000000  0.4382090000000 1.0
C      1  0.5551110000000  0.4754860000000  0.5111180000000 1.0
C      1  0.5606480000000  0.5018100000000  0.4655940000000 1.0
C      1  0.5601850000000  0.5248660000000  0.5244920000000 1.0
C      1  0.5081260000000  0.4942460000000  0.5255870000000 1.0
C      1  0.5095850000000  0.4944700000000  0.4759790000000 1.0
C      1  0.5095030000000  0.5132980000000  0.5005460000000 1.0
END
