TITL C-38193-7935-639 -1.98318849238596e-05 125000 -370.635826528406 0 0 60 (C1) n - 1
REM
REM in /home/bkarasulu/CARBON/AIRSS/Generating-Clusters/EDIP-Nigel-Params/Higher-Symm/Box-15A/Only-C60/SD-CG/FIRE-HFTN
REM
REM
REM
REM
REM
REM ./C.cell (414f73aa93bd7a1190c7fd0f31ff2f98)
REM
REM compiler GCC version 9.2.1 20190827 (Red Hat 9.2.1-1)
REM options -cpp -mtune=generic -march=x86-64 -g -O0 -fpre-include=/usr/include/finclude/math-vector-fortran.h
REM seed -588233458 -168221335 1220434521 1955387460 -993967528 -381239991 291146718 1390995205 -1859802353 -602047839 -540830248 -1418281628 -16052915 1362124956 -126007663 -2043288893 1079520345 -521793950 1559127674 -532094248 68547851 1815743717 -1811803384 -279759273 687940704 1100507017 -57587257 1748250282 2082730658 1477773634 1013204714 1744311503 -1979177108
REM
CELL 1.54180   50.00000   50.00000   50.00000   90.00000   90.00000   90.00000
LATT -1
SFAC C  
C      1  0.5667940000000  0.5113490000000  0.5067840000000 1.0
C      1  0.4938150000000  0.5125270000000  0.5608630000000 1.0
C      1  0.4308090000000  0.5135220000000  0.4936910000000 1.0
C      1  0.5055380000000  0.5137900000000  0.4397630000000 1.0
C      1  0.5755410000000  0.4841510000000  0.5071320000000 1.0
C      1  0.4940730000000  0.4832550000000  0.5605110000000 1.0
C      1  0.4233270000000  0.4856710000000  0.4933740000000 1.0
C      1  0.5049290000000  0.4848810000000  0.4408580000000 1.0
C      1  0.4338480000000  0.4446160000000  0.5112880000000 1.0
C      1  0.4872870000000  0.4485150000000  0.4626840000000 1.0
C      1  0.5677780000000  0.4419090000000  0.4874280000000 1.0
C      1  0.5138200000000  0.4441320000000  0.5434390000000 1.0
C      1  0.4374460000000  0.5560520000000  0.5108130000000 1.0
C      1  0.4894170000000  0.5545690000000  0.4541060000000 1.0
C      1  0.5630430000000  0.5544690000000  0.4895040000000 1.0
C      1  0.5097200000000  0.5504430000000  0.5390610000000 1.0
C      1  0.5319890000000  0.4496070000000  0.5194960000000 1.0
C      1  0.4896060000000  0.4669790000000  0.5097230000000 1.0
C      1  0.4719540000000  0.4626850000000  0.4846060000000 1.0
C      1  0.5174750000000  0.4647430000000  0.4971320000000 1.0
C      1  0.5250170000000  0.5399390000000  0.5153570000000 1.0
C      1  0.4767860000000  0.5265280000000  0.5106680000000 1.0
C      1  0.4747980000000  0.5439140000000  0.4816580000000 1.0
C      1  0.5115650000000  0.5340630000000  0.4860100000000 1.0
C      1  0.4705310000000  0.4683500000000  0.5503820000000 1.0
C      1  0.4319970000000  0.4698340000000  0.4687490000000 1.0
C      1  0.5278670000000  0.4701080000000  0.4521440000000 1.0
C      1  0.5651600000000  0.4677600000000  0.5295740000000 1.0
C      1  0.4692820000000  0.5282550000000  0.5542620000000 1.0
C      1  0.4353440000000  0.5292510000000  0.4695540000000 1.0
C      1  0.5298090000000  0.5288110000000  0.4462750000000 1.0
C      1  0.5646260000000  0.5281590000000  0.5310150000000 1.0
C      1  0.5502460000000  0.4846830000000  0.4644180000000 1.0
C      1  0.5414980000000  0.4849500000000  0.5433390000000 1.0
C      1  0.4505030000000  0.4846390000000  0.5353390000000 1.0
C      1  0.4538760000000  0.4843710000000  0.4504890000000 1.0
C      1  0.5502020000000  0.5140750000000  0.4623060000000 1.0
C      1  0.5456330000000  0.5147700000000  0.5513650000000 1.0
C      1  0.4469280000000  0.5135470000000  0.5403630000000 1.0
C      1  0.4571720000000  0.5148740000000  0.4534910000000 1.0
C      1  0.4296440000000  0.4714870000000  0.5190290000000 1.0
C      1  0.4796800000000  0.4693140000000  0.4419460000000 1.0
C      1  0.5690520000000  0.4698330000000  0.4825490000000 1.0
C      1  0.5198820000000  0.4692240000000  0.5574820000000 1.0
C      1  0.4334930000000  0.5288160000000  0.5178960000000 1.0
C      1  0.4808140000000  0.5294700000000  0.4404750000000 1.0
C      1  0.5669250000000  0.5272790000000  0.4824250000000 1.0
C      1  0.5185860000000  0.5289470000000  0.5580310000000 1.0
C      1  0.4804570000000  0.5477060000000  0.5344290000000 1.0
C      1  0.4457280000000  0.5540950000000  0.4833680000000 1.0
C      1  0.5192980000000  0.5545290000000  0.4558080000000 1.0
C      1  0.5527900000000  0.5522980000000  0.5160620000000 1.0
C      1  0.4852820000000  0.4478060000000  0.5340040000000 1.0
C      1  0.4449430000000  0.4476100000000  0.4852610000000 1.0
C      1  0.5162180000000  0.4499100000000  0.4702770000000 1.0
C      1  0.5604430000000  0.4402430000000  0.5146400000000 1.0
C      1  0.4796760000000  0.5004720000000  0.4820700000000 1.0
C      1  0.5129420000000  0.5002480000000  0.4813380000000 1.0
C      1  0.5237950000000  0.5046240000000  0.5146960000000 1.0
C      1  0.4933050000000  0.4983330000000  0.5192000000000 1.0
END
