TITL C-38184-643-244 -9.80624418308997e-07 125000 -347.491324801967 0 0 60 (Ci) n - 1
REM
REM in /home/bkarasulu/CARBON/AIRSS/Generating-Clusters/EDIP-Nigel-Params/Higher-Symm/Box-15A/Only-C60/SD-CG/FIRE-HFTN
REM
REM
REM
REM
REM
REM ./C.cell (414f73aa93bd7a1190c7fd0f31ff2f98)
REM
REM compiler GCC version 9.2.1 20190827 (Red Hat 9.2.1-1)
REM options -cpp -mtune=generic -march=x86-64 -g -O0 -fpre-include=/usr/include/finclude/math-vector-fortran.h
REM seed -719418240 -1397562782 1079543077 -717556 -31874816 -751416027 1311372406 -583791685 1181156298 422840779 233290200 -1894351968 2083078178 479032870 -2104741478 1701757504 1461019926 -1078974674 -1583300215 588017792 -1072839764 -1838286649 413829238 -323418593 1979158699 -2098434140 200862002 -184742590 2089679846 1606893988 -1862102420 525266543 1421391747
REM
CELL 1.54180   50.00000   50.00000   50.00000   90.00000   90.00000   90.00000
LATT -1
SFAC C  
C      1  0.5049680000000  0.5684930000000  0.4961730000000 1.0
C      1  0.4418790000000  0.5379900000000  0.5030160000000 1.0
C      1  0.4393730000000  0.4702790000000  0.4961850000000 1.0
C      1  0.4950320000000  0.4315070000000  0.5038270000000 1.0
C      1  0.5581210000000  0.4620100000000  0.4969840000000 1.0
C      1  0.5606270000000  0.5297210000000  0.5038150000000 1.0
C      1  0.4860340000000  0.4713840000000  0.5185790000000 1.0
C      1  0.5185290000000  0.4715720000000  0.4817390000000 1.0
C      1  0.5319660000000  0.5007750000000  0.5183840000000 1.0
C      1  0.5139660000000  0.5286160000000  0.4814210000000 1.0
C      1  0.4814710000000  0.5284280000000  0.5182610000000 1.0
C      1  0.4680340000000  0.4992250000000  0.4816160000000 1.0
C      1  0.5121270000000  0.4543630000000  0.5709170000000 1.0
C      1  0.5423140000000  0.4827730000000  0.4299030000000 1.0
C      1  0.5289710000000  0.5235940000000  0.5686790000000 1.0
C      1  0.4878730000000  0.5456370000000  0.4290830000000 1.0
C      1  0.4576860000000  0.5172270000000  0.5700970000000 1.0
C      1  0.4710290000000  0.4764060000000  0.4313210000000 1.0
C      1  0.5198650000000  0.5516440000000  0.5284360000000 1.0
C      1  0.4651120000000  0.5449310000000  0.4723310000000 1.0
C      1  0.4452750000000  0.4923720000000  0.5281470000000 1.0
C      1  0.4801350000000  0.4483560000000  0.4715640000000 1.0
C      1  0.5348880000000  0.4550690000000  0.5276690000000 1.0
C      1  0.5547250000000  0.5076280000000  0.4718530000000 1.0
C      1  0.4351490000000  0.4740410000000  0.4658350000000 1.0
C      1  0.4902460000000  0.4292060000000  0.5341090000000 1.0
C      1  0.5576730000000  0.4554690000000  0.4672410000000 1.0
C      1  0.5648510000000  0.5259590000000  0.5341650000000 1.0
C      1  0.5097540000000  0.5707940000000  0.4658910000000 1.0
C      1  0.4423270000000  0.5445310000000  0.5327590000000 1.0
C      1  0.5325060000000  0.4420740000000  0.4603850000000 1.0
C      1  0.5640350000000  0.4975000000000  0.5406010000000 1.0
C      1  0.5323980000000  0.5539360000000  0.4579470000000 1.0
C      1  0.4674940000000  0.5579260000000  0.5396150000000 1.0
C      1  0.4359650000000  0.5025000000000  0.4593990000000 1.0
C      1  0.4676020000000  0.4460640000000  0.5420530000000 1.0
C      1  0.5337040000000  0.5248740000000  0.4582400000000 1.0
C      1  0.4933460000000  0.5443850000000  0.5417810000000 1.0
C      1  0.4604220000000  0.5182740000000  0.4584820000000 1.0
C      1  0.4662960000000  0.4751260000000  0.5417600000000 1.0
C      1  0.5066540000000  0.4556150000000  0.4582190000000 1.0
C      1  0.5395780000000  0.4817260000000  0.5415180000000 1.0
C      1  0.4826250000000  0.5153970000000  0.5801780000000 1.0
C      1  0.4909060000000  0.4930860000000  0.4202480000000 1.0
C      1  0.5130230000000  0.4793910000000  0.5809110000000 1.0
C      1  0.5173750000000  0.4846030000000  0.4198220000000 1.0
C      1  0.5090940000000  0.5069140000000  0.5797520000000 1.0
C      1  0.4869770000000  0.5206090000000  0.4190890000000 1.0
C      1  0.5112730000000  0.4571250000000  0.5070230000000 1.0
C      1  0.5422460000000  0.4878320000000  0.4931810000000 1.0
C      1  0.5302400000000  0.5300160000000  0.5068970000000 1.0
C      1  0.4887270000000  0.5428750000000  0.4929770000000 1.0
C      1  0.4577540000000  0.5121680000000  0.5068190000000 1.0
C      1  0.4697600000000  0.4699840000000  0.4931030000000 1.0
C      1  0.4407260000000  0.5175600000000  0.5476590000000 1.0
C      1  0.4585880000000  0.4601780000000  0.4511470000000 1.0
C      1  0.5162530000000  0.4391630000000  0.5476470000000 1.0
C      1  0.5592740000000  0.4824400000000  0.4523410000000 1.0
C      1  0.5414120000000  0.5398220000000  0.5488530000000 1.0
C      1  0.4837470000000  0.5608370000000  0.4523530000000 1.0
END
