TITL C-38189-4514-259 -2.60754588939891e-06 125000 -374.0576708381 0 0 60 (C2v) n - 1
REM
REM in /home/bkarasulu/CARBON/AIRSS/Generating-Clusters/EDIP-Nigel-Params/Higher-Symm/Box-15A/Only-C60/SD-CG/FIRE-HFTN
REM
REM
REM
REM
REM
REM ./C.cell (414f73aa93bd7a1190c7fd0f31ff2f98)
REM
REM compiler GCC version 9.2.1 20190827 (Red Hat 9.2.1-1)
REM options -cpp -mtune=generic -march=x86-64 -g -O0 -fpre-include=/usr/include/finclude/math-vector-fortran.h
REM seed -317893739 -474122539 -443138664 1377166394 -1513996855 849508467 -792231563 1933674178 1949275540 -494983923 462129646 -749324262 1387157043 598520402 -1081002662 1500457519 -51910141 1750075993 -1390760793 1398862541 -396896161 1866404527 -660466478 57079152 715960812 1075713977 1229405657 444574785 -111202498 -378717594 900799052 1256946326 -195536488
REM
CELL 1.54180   50.00000   50.00000   50.00000   90.00000   90.00000   90.00000
LATT -1
SFAC C  
C      1  0.5214920000000  0.5491230000000  0.4438010000000 1.0
C      1  0.4837070000000  0.5417170000000  0.4443790000000 1.0
C      1  0.4617290000000  0.5232620000000  0.4443790000000 1.0
C      1  0.4479010000000  0.4873260000000  0.4438010000000 1.0
C      1  0.4507400000000  0.4586350000000  0.4446390000000 1.0
C      1  0.4785080000000  0.4508770000000  0.4438010000000 1.0
C      1  0.5162930000000  0.4582830000000  0.4443790000000 1.0
C      1  0.5382710000000  0.4767380000000  0.4443790000000 1.0
C      1  0.5520990000000  0.5126740000000  0.4438010000000 1.0
C      1  0.5492600000000  0.5413650000000  0.4446390000000 1.0
C      1  0.5140930000000  0.5646960000000  0.4670430000000 1.0
C      1  0.4852220000000  0.5613530000000  0.4659110000000 1.0
C      1  0.4421260000000  0.5251650000000  0.4659110000000 1.0
C      1  0.4338420000000  0.4973070000000  0.4670430000000 1.0
C      1  0.4351280000000  0.4455250000000  0.4651000000000 1.0
C      1  0.4859070000000  0.4353040000000  0.4670430000000 1.0
C      1  0.5147780000000  0.4386470000000  0.4659110000000 1.0
C      1  0.5578740000000  0.4748350000000  0.4659110000000 1.0
C      1  0.5661580000000  0.5026930000000  0.4670430000000 1.0
C      1  0.5648720000000  0.5544750000000  0.4651000000000 1.0
C      1  0.4739760000000  0.4438070000000  0.4923750000000 1.0
C      1  0.5275620000000  0.4450560000000  0.4912090000000 1.0
C      1  0.5493500000000  0.4633520000000  0.4912090000000 1.0
C      1  0.5598460000000  0.5159150000000  0.4923750000000 1.0
C      1  0.5548470000000  0.5460560000000  0.4913720000000 1.0
C      1  0.5260240000000  0.5561930000000  0.4923750000000 1.0
C      1  0.4724380000000  0.5549440000000  0.4912090000000 1.0
C      1  0.4506500000000  0.5366480000000  0.4912090000000 1.0
C      1  0.4401540000000  0.4840850000000  0.4923750000000 1.0
C      1  0.4451530000000  0.4539440000000  0.4913720000000 1.0
C      1  0.5421630000000  0.4923110000000  0.5443140000000 1.0
C      1  0.5483020000000  0.5211830000000  0.5503680000000 1.0
C      1  0.5292170000000  0.5439110000000  0.5503680000000 1.0
C      1  0.4997180000000  0.5428580000000  0.5443140000000 1.0
C      1  0.4712860000000  0.5341940000000  0.5491200000000 1.0
C      1  0.4578370000000  0.5076890000000  0.5443140000000 1.0
C      1  0.4516980000000  0.4788170000000  0.5503680000000 1.0
C      1  0.4707830000000  0.4560890000000  0.5503680000000 1.0
C      1  0.5002820000000  0.4571420000000  0.5443140000000 1.0
C      1  0.5287140000000  0.4658060000000  0.5491200000000 1.0
C      1  0.5662940000000  0.5556690000000  0.5194140000000 1.0
C      1  0.5222530000000  0.5747320000000  0.5152300000000 1.0
C      1  0.4725170000000  0.5706110000000  0.5162850000000 1.0
C      1  0.4352050000000  0.5392790000000  0.5162850000000 1.0
C      1  0.4225450000000  0.4910050000000  0.5152300000000 1.0
C      1  0.4337060000000  0.4443310000000  0.5194140000000 1.0
C      1  0.4777470000000  0.4252680000000  0.5152300000000 1.0
C      1  0.5274830000000  0.4293890000000  0.5162850000000 1.0
C      1  0.5647950000000  0.4607210000000  0.5162850000000 1.0
C      1  0.5774550000000  0.5089950000000  0.5152300000000 1.0
C      1  0.4316620000000  0.5141470000000  0.5318340000000 1.0
C      1  0.4270010000000  0.4693220000000  0.5351670000000 1.0
C      1  0.4571610000000  0.4334050000000  0.5351670000000 1.0
C      1  0.5021170000000  0.4302450000000  0.5318340000000 1.0
C      1  0.5460240000000  0.4451920000000  0.5345240000000 1.0
C      1  0.5683380000000  0.4858530000000  0.5318340000000 1.0
C      1  0.5729990000000  0.5306780000000  0.5351670000000 1.0
C      1  0.5428390000000  0.5665950000000  0.5351670000000 1.0
C      1  0.4978830000000  0.5697550000000  0.5318340000000 1.0
C      1  0.4539760000000  0.5548080000000  0.5345240000000 1.0
END
