TITL C-38195-9455-231 2.35251574953104e-07 125000 -335.795309442093 0 0 60 (C3h) n - 1
REM
REM in /home/bkarasulu/CARBON/AIRSS/Generating-Clusters/EDIP-Nigel-Params/Higher-Symm/Box-15A/Only-C60/SD-CG/FIRE-HFTN
REM
REM
REM
REM
REM
REM ./C.cell (414f73aa93bd7a1190c7fd0f31ff2f98)
REM
REM compiler GCC version 9.2.1 20190827 (Red Hat 9.2.1-1)
REM options -cpp -mtune=generic -march=x86-64 -g -O0 -fpre-include=/usr/include/finclude/math-vector-fortran.h
REM seed -125433116 593905799 -2025138502 418855056 778629669 -1242690964 -1173614505 1170428557 81525306 1638000222 -246452260 -1197987059 1629595639 700655021 -1741575485 -737645678 -1222377072 -1293706926 -651493902 -1583908947 642114338 -1563507963 -693091572 -1857740671 1900424142 -968412972 562287875 -1121324889 683910134 -155345048 -1968480335 -77347838 959621611
REM
CELL 1.54180   50.00000   50.00000   50.00000   90.00000   90.00000   90.00000
LATT -1
SFAC C  
C      1  0.5154640000000  0.5533280000000  0.5215540000000 1.0
C      1  0.5154640000000  0.4546700000000  0.5354070000000 1.0
C      1  0.5154640000000  0.4920020000000  0.4430400000000 1.0
C      1  0.4845360000000  0.5533280000000  0.5215540000000 1.0
C      1  0.4845360000000  0.4546700000000  0.5354070000000 1.0
C      1  0.4845360000000  0.4920020000000  0.4430400000000 1.0
C      1  0.5557310000000  0.4832740000000  0.5402450000000 1.0
C      1  0.5557310000000  0.4735090000000  0.4653930000000 1.0
C      1  0.5557310000000  0.5432160000000  0.4943620000000 1.0
C      1  0.4442690000000  0.4832740000000  0.5402450000000 1.0
C      1  0.4442690000000  0.4735090000000  0.4653930000000 1.0
C      1  0.4442690000000  0.5432160000000  0.4943620000000 1.0
C      1  0.4293460000000  0.4633150000000  0.4855890000000 1.0
C      1  0.4293460000000  0.5308230000000  0.4754350000000 1.0
C      1  0.4293460000000  0.5058630000000  0.5389760000000 1.0
C      1  0.5706540000000  0.4633150000000  0.4855890000000 1.0
C      1  0.5706540000000  0.5308230000000  0.4754350000000 1.0
C      1  0.5706540000000  0.5058630000000  0.5389760000000 1.0
C      1  0.4778500000000  0.4416260000000  0.4583350000000 1.0
C      1  0.4778500000000  0.5652700000000  0.4702790000000 1.0
C      1  0.4778500000000  0.4931040000000  0.5713860000000 1.0
C      1  0.5221500000000  0.4416260000000  0.4583350000000 1.0
C      1  0.5221500000000  0.5652700000000  0.4702790000000 1.0
C      1  0.5221500000000  0.4931040000000  0.5713860000000 1.0
C      1  0.4457550000000  0.5201200000000  0.4567400000000 1.0
C      1  0.4457550000000  0.5274050000000  0.5390540000000 1.0
C      1  0.4457550000000  0.4524750000000  0.5042060000000 1.0
C      1  0.5542450000000  0.5201200000000  0.4567400000000 1.0
C      1  0.5542450000000  0.5274050000000  0.5390540000000 1.0
C      1  0.5542450000000  0.4524750000000  0.5042060000000 1.0
C      1  0.5153290000000  0.5199250000000  0.4842340000000 1.0
C      1  0.5153290000000  0.5036910000000  0.5251390000000 1.0
C      1  0.5153290000000  0.4763840000000  0.4906270000000 1.0
C      1  0.4846710000000  0.5199250000000  0.4842340000000 1.0
C      1  0.4846710000000  0.5036910000000  0.5251390000000 1.0
C      1  0.4846710000000  0.4763840000000  0.4906270000000 1.0
C      1  0.4728860000000  0.5469060000000  0.4929730000000 1.0
C      1  0.4728860000000  0.4826330000000  0.5441350000000 1.0
C      1  0.4728860000000  0.4704620000000  0.4628920000000 1.0
C      1  0.5271140000000  0.5469060000000  0.4929730000000 1.0
C      1  0.5271140000000  0.4826330000000  0.5441350000000 1.0
C      1  0.5271140000000  0.4704620000000  0.4628920000000 1.0
C      1  0.4853060000000  0.5471910000000  0.4488600000000 1.0
C      1  0.4853060000000  0.5206920000000  0.5664390000000 1.0
C      1  0.4853060000000  0.4321160000000  0.4847010000000 1.0
C      1  0.5146940000000  0.5471910000000  0.4488600000000 1.0
C      1  0.5146940000000  0.5206920000000  0.5664390000000 1.0
C      1  0.5146940000000  0.4321160000000  0.4847010000000 1.0
C      1  0.4747290000000  0.5768000000000  0.5311490000000 1.0
C      1  0.4747290000000  0.4346240000000  0.5509360000000 1.0
C      1  0.4747290000000  0.4885760000000  0.4179150000000 1.0
C      1  0.5252710000000  0.5768000000000  0.5311490000000 1.0
C      1  0.5252710000000  0.4346240000000  0.5509360000000 1.0
C      1  0.5252710000000  0.4885760000000  0.4179150000000 1.0
C      1  0.5254340000000  0.5289500000000  0.5388470000000 1.0
C      1  0.5254340000000  0.4518820000000  0.5056480000000 1.0
C      1  0.5254340000000  0.5191680000000  0.4555050000000 1.0
C      1  0.4745660000000  0.5289500000000  0.5388470000000 1.0
C      1  0.4745660000000  0.4518820000000  0.5056480000000 1.0
C      1  0.4745660000000  0.5191680000000  0.4555050000000 1.0
END
