TITL C-38195-9455-135 -7.44643454455551e-07 125000 -378.512774024217 0 0 60 (Td) n - 1
REM
REM in /home/bkarasulu/CARBON/AIRSS/Generating-Clusters/EDIP-Nigel-Params/Higher-Symm/Box-15A/Only-C60/SD-CG/FIRE-HFTN
REM
REM
REM
REM
REM
REM ./C.cell (414f73aa93bd7a1190c7fd0f31ff2f98)
REM
REM compiler GCC version 9.2.1 20190827 (Red Hat 9.2.1-1)
REM options -cpp -mtune=generic -march=x86-64 -g -O0 -fpre-include=/usr/include/finclude/math-vector-fortran.h
REM seed -1081695481 1299191820 1703255723 1851263915 -277069765 143603664 50932921 -1480965944 -1377018800 -1361654361 -1828067899 -1358008995 -1494598956 -2092678869 2105567966 1586084436 662832554 -83582632 -414263619 1494317070 1643995883 94107837 1231928479 -582025922 1071830487 77092397 -2115693002 -1044918089 518407689 -121162220 -811042348 2030177799 108166783
REM
CELL 1.54180   50.00000   50.00000   50.00000   90.00000   90.00000   90.00000
LATT -1
SFAC C  
C      1  0.4696490000000  0.5506240000000  0.5097360000000 1.0
C      1  0.5506240000000  0.5097360000000  0.4696490000000 1.0
C      1  0.5097360000000  0.4696490000000  0.5506240000000 1.0
C      1  0.5303510000000  0.5506240000000  0.4902640000000 1.0
C      1  0.5303510000000  0.4493760000000  0.5097360000000 1.0
C      1  0.4696490000000  0.4493760000000  0.4902640000000 1.0
C      1  0.4493760000000  0.5097360000000  0.5303510000000 1.0
C      1  0.4493760000000  0.4902640000000  0.4696490000000 1.0
C      1  0.5506240000000  0.4902640000000  0.5303510000000 1.0
C      1  0.4902640000000  0.4696490000000  0.4493760000000 1.0
C      1  0.4902640000000  0.5303510000000  0.5506240000000 1.0
C      1  0.5097360000000  0.5303510000000  0.4493760000000 1.0
C      1  0.5097360000000  0.5506240000000  0.4696490000000 1.0
C      1  0.4696490000000  0.5097360000000  0.5506240000000 1.0
C      1  0.5506240000000  0.4696490000000  0.5097360000000 1.0
C      1  0.4902640000000  0.5506240000000  0.5303510000000 1.0
C      1  0.5097360000000  0.4493760000000  0.5303510000000 1.0
C      1  0.4902640000000  0.4493760000000  0.4696490000000 1.0
C      1  0.5303510000000  0.5097360000000  0.4493760000000 1.0
C      1  0.4696490000000  0.4902640000000  0.4493760000000 1.0
C      1  0.5303510000000  0.4902640000000  0.5506240000000 1.0
C      1  0.4493760000000  0.4696490000000  0.4902640000000 1.0
C      1  0.5506240000000  0.5303510000000  0.4902640000000 1.0
C      1  0.4493760000000  0.5303510000000  0.5097360000000 1.0
C      1  0.4856730000000  0.4331020000000  0.5354250000000 1.0
C      1  0.4331020000000  0.5354250000000  0.4856730000000 1.0
C      1  0.5354250000000  0.4856730000000  0.4331020000000 1.0
C      1  0.5143270000000  0.4331020000000  0.4645750000000 1.0
C      1  0.5143270000000  0.5668980000000  0.5354250000000 1.0
C      1  0.4856730000000  0.5668980000000  0.4645750000000 1.0
C      1  0.5668980000000  0.5354250000000  0.5143270000000 1.0
C      1  0.5668980000000  0.4645750000000  0.4856730000000 1.0
C      1  0.4331020000000  0.4645750000000  0.5143270000000 1.0
C      1  0.4645750000000  0.4856730000000  0.5668980000000 1.0
C      1  0.4645750000000  0.5143270000000  0.4331020000000 1.0
C      1  0.5354250000000  0.5143270000000  0.5668980000000 1.0
C      1  0.5354250000000  0.4331020000000  0.4856730000000 1.0
C      1  0.4856730000000  0.5354250000000  0.4331020000000 1.0
C      1  0.4331020000000  0.4856730000000  0.5354250000000 1.0
C      1  0.4645750000000  0.4331020000000  0.5143270000000 1.0
C      1  0.5354250000000  0.5668980000000  0.5143270000000 1.0
C      1  0.4645750000000  0.5668980000000  0.4856730000000 1.0
C      1  0.5143270000000  0.5354250000000  0.5668980000000 1.0
C      1  0.4856730000000  0.4645750000000  0.5668980000000 1.0
C      1  0.5143270000000  0.4645750000000  0.4331020000000 1.0
C      1  0.5668980000000  0.4856730000000  0.4645750000000 1.0
C      1  0.4331020000000  0.5143270000000  0.4645750000000 1.0
C      1  0.5668980000000  0.5143270000000  0.5354250000000 1.0
C      1  0.4382860000000  0.5245220000000  0.4382860000000 1.0
C      1  0.4754780000000  0.4382860000000  0.5617140000000 1.0
C      1  0.4754780000000  0.5617140000000  0.4382860000000 1.0
C      1  0.5617140000000  0.4382860000000  0.4754780000000 1.0
C      1  0.4382860000000  0.5617140000000  0.4754780000000 1.0
C      1  0.4382860000000  0.4754780000000  0.5617140000000 1.0
C      1  0.4382860000000  0.4382860000000  0.5245220000000 1.0
C      1  0.5245220000000  0.4382860000000  0.4382860000000 1.0
C      1  0.5617140000000  0.5617140000000  0.5245220000000 1.0
C      1  0.5245220000000  0.5617140000000  0.5617140000000 1.0
C      1  0.5617140000000  0.5245220000000  0.5617140000000 1.0
C      1  0.5617140000000  0.4754780000000  0.4382860000000 1.0
END
