TITL C-38196-2854-237 3.55543886194462e-06 125000 -349.483803987059 0 0 60 (C1) n - 1
REM
REM in /home/bkarasulu/CARBON/AIRSS/Generating-Clusters/EDIP-Nigel-Params/Higher-Symm/Box-15A/Only-C60/SD-CG/FIRE-HFTN
REM
REM
REM
REM
REM
REM ./C.cell (414f73aa93bd7a1190c7fd0f31ff2f98)
REM
REM compiler GCC version 9.2.1 20190827 (Red Hat 9.2.1-1)
REM options -cpp -mtune=generic -march=x86-64 -g -O0 -fpre-include=/usr/include/finclude/math-vector-fortran.h
REM seed 1271443367 -1276342983 1725202086 1859523826 -742249972 1250577117 1197610030 1172848167 -723137892 -523853117 -643621666 112464816 1431857453 -1759069318 1125493007 -378091058 1576496015 1619341762 -89835106 2113256242 1474839292 2029119123 613269397 1341019884 -1496807875 577541176 -957020880 1638072598 -890861321 -993516972 -1373449840 -238589248 -141623875
REM
CELL 1.54180   50.00000   50.00000   50.00000   90.00000   90.00000   90.00000
LATT -1
SFAC C  
C      1  0.5448940000000  0.4489620000000  0.4551480000000 1.0
C      1  0.4501010000000  0.4827700000000  0.4434570000000 1.0
C      1  0.4554460000000  0.5484060000000  0.4559760000000 1.0
C      1  0.5376890000000  0.5209870000000  0.4438180000000 1.0
C      1  0.5272470000000  0.4657070000000  0.5642500000000 1.0
C      1  0.4695190000000  0.4655890000000  0.5556370000000 1.0
C      1  0.4744410000000  0.5334680000000  0.5623100000000 1.0
C      1  0.5471970000000  0.5377800000000  0.5515080000000 1.0
C      1  0.5387610000000  0.4904810000000  0.4804160000000 1.0
C      1  0.4979600000000  0.4668850000000  0.4651080000000 1.0
C      1  0.4623630000000  0.5081190000000  0.4773700000000 1.0
C      1  0.5039290000000  0.5336170000000  0.4712720000000 1.0
C      1  0.5262780000000  0.4934050000000  0.5283440000000 1.0
C      1  0.4698600000000  0.4397710000000  0.5148270000000 1.0
C      1  0.4725960000000  0.5004840000000  0.5281300000000 1.0
C      1  0.5073060000000  0.5387230000000  0.5257060000000 1.0
C      1  0.5197160000000  0.4682450000000  0.4861840000000 1.0
C      1  0.4777760000000  0.4831390000000  0.4822870000000 1.0
C      1  0.4794410000000  0.5300630000000  0.4886510000000 1.0
C      1  0.5259390000000  0.5164110000000  0.4868290000000 1.0
C      1  0.5098200000000  0.4722040000000  0.5138300000000 1.0
C      1  0.4805340000000  0.4768970000000  0.5104120000000 1.0
C      1  0.4841700000000  0.5253630000000  0.5165470000000 1.0
C      1  0.5282610000000  0.5199250000000  0.5158280000000 1.0
C      1  0.4833880000000  0.4906750000000  0.5548560000000 1.0
C      1  0.5018450000000  0.5412200000000  0.5552150000000 1.0
C      1  0.5239540000000  0.5244360000000  0.5648350000000 1.0
C      1  0.5145560000000  0.4932740000000  0.5568590000000 1.0
C      1  0.4685730000000  0.5046230000000  0.4393140000000 1.0
C      1  0.4774110000000  0.5320360000000  0.4449940000000 1.0
C      1  0.5428130000000  0.4933170000000  0.4513250000000 1.0
C      1  0.5280000000000  0.4693160000000  0.4428480000000 1.0
C      1  0.4360700000000  0.5104260000000  0.4959850000000 1.0
C      1  0.5173000000000  0.5595650000000  0.4794380000000 1.0
C      1  0.5641670000000  0.4836790000000  0.4998020000000 1.0
C      1  0.4855820000000  0.4396650000000  0.4673150000000 1.0
C      1  0.4437400000000  0.5100990000000  0.5263500000000 1.0
C      1  0.5143850000000  0.5649860000000  0.5095190000000 1.0
C      1  0.5539490000000  0.4810260000000  0.5285850000000 1.0
C      1  0.4889230000000  0.4285610000000  0.4951090000000 1.0
C      1  0.5404830000000  0.4296320000000  0.4880710000000 1.0
C      1  0.4308250000000  0.4658960000000  0.4724270000000 1.0
C      1  0.4571460000000  0.5678370000000  0.4886160000000 1.0
C      1  0.5651610000000  0.5287680000000  0.4703310000000 1.0
C      1  0.5170810000000  0.4480230000000  0.5314140000000 1.0
C      1  0.4335330000000  0.4673990000000  0.5216540000000 1.0
C      1  0.4669210000000  0.5611460000000  0.5360550000000 1.0
C      1  0.5679420000000  0.5383510000000  0.5192430000000 1.0
C      1  0.5456370000000  0.4558530000000  0.5427620000000 1.0
C      1  0.4539430000000  0.4529600000000  0.5351800000000 1.0
C      1  0.4507960000000  0.5369630000000  0.5438130000000 1.0
C      1  0.5474060000000  0.5572910000000  0.5284740000000 1.0
C      1  0.5596670000000  0.4510430000000  0.4811110000000 1.0
C      1  0.4536760000000  0.4567600000000  0.4564880000000 1.0
C      1  0.4391600000000  0.5454360000000  0.4807150000000 1.0
C      1  0.5441980000000  0.5454430000000  0.4590190000000 1.0
C      1  0.5687940000000  0.5185030000000  0.4974160000000 1.0
C      1  0.5174680000000  0.4288970000000  0.5066720000000 1.0
C      1  0.4270910000000  0.4808890000000  0.4972450000000 1.0
C      1  0.4771710000000  0.5686080000000  0.5101520000000 1.0
END
