TITL C-38194-9318-652 -7.48120789738457e-06 125000 -370.181830364369 0 0 60 (C1) n - 1
REM
REM in /home/bkarasulu/CARBON/AIRSS/Generating-Clusters/EDIP-Nigel-Params/Higher-Symm/Box-15A/Only-C60/SD-CG/FIRE-HFTN
REM
REM
REM
REM
REM
REM ./C.cell (414f73aa93bd7a1190c7fd0f31ff2f98)
REM
REM compiler GCC version 9.2.1 20190827 (Red Hat 9.2.1-1)
REM options -cpp -mtune=generic -march=x86-64 -g -O0 -fpre-include=/usr/include/finclude/math-vector-fortran.h
REM seed -1184612281 -604770369 742505193 2131093060 238055406 1465116879 1310451313 -1003693141 1817845346 183226020 556533845 -357025578 2059036882 883961560 638150886 1738917819 -2059933819 -1735119294 913573920 -336372025 1899787949 -677660410 -1172678808 -1093106331 -739862218 -906928481 -1215271902 784358385 -50287174 -986261570 519168656 -160765806 -1655448939
REM
CELL 1.54180   50.00000   50.00000   50.00000   90.00000   90.00000   90.00000
LATT -1
SFAC C  
C      1  0.5145070000000  0.5164740000000  0.5558430000000 1.0
C      1  0.5159700000000  0.5521760000000  0.5215170000000 1.0
C      1  0.5147740000000  0.5478610000000  0.4715560000000 1.0
C      1  0.5121170000000  0.5074870000000  0.4447350000000 1.0
C      1  0.5141440000000  0.4605340000000  0.4608670000000 1.0
C      1  0.5165570000000  0.4423070000000  0.5069570000000 1.0
C      1  0.5154230000000  0.4676960000000  0.5487420000000 1.0
C      1  0.4265310000000  0.4604090000000  0.5217600000000 1.0
C      1  0.4297530000000  0.4901400000000  0.5293110000000 1.0
C      1  0.4263710000000  0.5284440000000  0.5253990000000 1.0
C      1  0.4265150000000  0.5428110000000  0.4988980000000 1.0
C      1  0.4225190000000  0.5286650000000  0.4729040000000 1.0
C      1  0.4295160000000  0.4854220000000  0.4793990000000 1.0
C      1  0.4255020000000  0.4576330000000  0.4917680000000 1.0
C      1  0.5818920000000  0.4897420000000  0.4590160000000 1.0
C      1  0.5801380000000  0.4752800000000  0.4864960000000 1.0
C      1  0.5834830000000  0.4703300000000  0.5249920000000 1.0
C      1  0.5834690000000  0.4935380000000  0.5444330000000 1.0
C      1  0.5830240000000  0.5210680000000  0.5319020000000 1.0
C      1  0.5800760000000  0.5262820000000  0.4934120000000 1.0
C      1  0.5821080000000  0.5197100000000  0.4630630000000 1.0
C      1  0.4929630000000  0.5361380000000  0.5153430000000 1.0
C      1  0.4922350000000  0.5333630000000  0.4816580000000 1.0
C      1  0.4911020000000  0.5054750000000  0.4642780000000 1.0
C      1  0.4919860000000  0.4716010000000  0.4753330000000 1.0
C      1  0.4931980000000  0.4589510000000  0.5056020000000 1.0
C      1  0.4929920000000  0.4766250000000  0.5332160000000 1.0
C      1  0.4926290000000  0.5115060000000  0.5378380000000 1.0
C      1  0.4639340000000  0.5066080000000  0.4502880000000 1.0
C      1  0.4663770000000  0.4600290000000  0.4635470000000 1.0
C      1  0.4688230000000  0.4407550000000  0.5075470000000 1.0
C      1  0.4677860000000  0.4674940000000  0.5476110000000 1.0
C      1  0.4661120000000  0.5156950000000  0.5525580000000 1.0
C      1  0.4681840000000  0.5526080000000  0.5219590000000 1.0
C      1  0.4672920000000  0.5487710000000  0.4734070000000 1.0
C      1  0.5432550000000  0.4664820000000  0.5522340000000 1.0
C      1  0.5425100000000  0.5167140000000  0.5585900000000 1.0
C      1  0.5433690000000  0.5473960000000  0.5200740000000 1.0
C      1  0.5426860000000  0.5479660000000  0.4701500000000 1.0
C      1  0.5399800000000  0.5077620000000  0.4405230000000 1.0
C      1  0.5420690000000  0.4611460000000  0.4590250000000 1.0
C      1  0.5439130000000  0.4475930000000  0.5068230000000 1.0
C      1  0.5591560000000  0.4540140000000  0.5308100000000 1.0
C      1  0.5578820000000  0.4912130000000  0.5600980000000 1.0
C      1  0.5583120000000  0.5347290000000  0.5415560000000 1.0
C      1  0.5577470000000  0.5462870000000  0.4949570000000 1.0
C      1  0.5565060000000  0.5303610000000  0.4506630000000 1.0
C      1  0.5559790000000  0.4830780000000  0.4447120000000 1.0
C      1  0.5578480000000  0.4555110000000  0.4827650000000 1.0
C      1  0.4484090000000  0.4821090000000  0.4560810000000 1.0
C      1  0.4512820000000  0.4433160000000  0.4835660000000 1.0
C      1  0.4523130000000  0.4476060000000  0.5313280000000 1.0
C      1  0.4500050000000  0.4906320000000  0.5519470000000 1.0
C      1  0.4502730000000  0.5381050000000  0.5408120000000 1.0
C      1  0.4522100000000  0.5581560000000  0.4973190000000 1.0
C      1  0.4487090000000  0.5315130000000  0.4577330000000 1.0
C      1  0.4420300000000  0.5018460000000  0.5023110000000 1.0
C      1  0.4689090000000  0.4993150000000  0.5023290000000 1.0
C      1  0.4079510000000  0.5035230000000  0.4716100000000 1.0
C      1  0.5691310000000  0.4989380000000  0.5034700000000 1.0
END
