TITL C-38193-7935-623 0.000177567082095194 125000 -329.552230188559 0 0 60 (C3i) n - 1
REM
REM in /home/bkarasulu/CARBON/AIRSS/Generating-Clusters/EDIP-Nigel-Params/Higher-Symm/Box-15A/Only-C60/SD-CG/FIRE-HFTN
REM
REM
REM
REM
REM
REM ./C.cell (414f73aa93bd7a1190c7fd0f31ff2f98)
REM
REM compiler GCC version 9.2.1 20190827 (Red Hat 9.2.1-1)
REM options -cpp -mtune=generic -march=x86-64 -g -O0 -fpre-include=/usr/include/finclude/math-vector-fortran.h
REM seed -1988418726 -1504683738 -1431521659 -1249436587 1748003752 -520682754 -171201370 1645526559 -1801898242 156287598 554468202 474509383 1224593198 282082128 939412653 -1368843502 -1523996048 -1736211810 1574210062 853106570 -162493443 -1624259912 -208136090 -1383351899 1896276650 1644345954 -421768655 -741219124 1789006537 1062050458 810026490 -982718934 413624272
REM
CELL 1.54180   50.00000   50.00000   50.00000   90.00000   90.00000   90.00000
LATT -1
SFAC C  
C      1  0.4730870000000  0.5041420000000  0.5680320000000 1.0
C      1  0.4907000000000  0.5239140000000  0.5585620000000 1.0
C      1  0.5170450000000  0.5212360000000  0.5680320000000 1.0
C      1  0.5253610000000  0.4960980000000  0.5585620000000 1.0
C      1  0.5098700000000  0.4746200000000  0.5680320000000 1.0
C      1  0.4839410000000  0.4799880000000  0.5585620000000 1.0
C      1  0.4746390000000  0.5039020000000  0.4414380000000 1.0
C      1  0.4901300000000  0.5253800000000  0.4319680000000 1.0
C      1  0.5160590000000  0.5200120000000  0.4414380000000 1.0
C      1  0.5269130000000  0.4958580000000  0.4319680000000 1.0
C      1  0.5093000000000  0.4760860000000  0.4414380000000 1.0
C      1  0.4829550000000  0.4787640000000  0.4319680000000 1.0
C      1  0.4423820000000  0.5103990000000  0.4806370000000 1.0
C      1  0.4782910000000  0.5531980000000  0.4880690000000 1.0
C      1  0.5378150000000  0.5446990000000  0.4806370000000 1.0
C      1  0.5569250000000  0.4922010000000  0.4880680000000 1.0
C      1  0.5198030000000  0.4449020000000  0.4806360000000 1.0
C      1  0.4647840000000  0.4546010000000  0.4880680000000 1.0
C      1  0.4430750000000  0.5077990000000  0.5119320000000 1.0
C      1  0.4801970000000  0.5550980000000  0.5193640000000 1.0
C      1  0.5352160000000  0.5453990000000  0.5119320000000 1.0
C      1  0.5576180000000  0.4896010000000  0.5193630000000 1.0
C      1  0.5217090000000  0.4468020000000  0.5119310000000 1.0
C      1  0.4621850000000  0.4553010000000  0.5193630000000 1.0
C      1  0.5101890000000  0.4745470000000  0.5156660000000 1.0
C      1  0.4816300000000  0.4769220000000  0.5287240000000 1.0
C      1  0.4728630000000  0.5039030000000  0.5156670000000 1.0
C      1  0.4891990000000  0.5274470000000  0.5287240000000 1.0
C      1  0.5169490000000  0.5215500000000  0.5156670000000 1.0
C      1  0.5291710000000  0.4956300000000  0.5287230000000 1.0
C      1  0.5108010000000  0.4725530000000  0.4712760000000 1.0
C      1  0.4830510000000  0.4784500000000  0.4843330000000 1.0
C      1  0.4708290000000  0.5043700000000  0.4712770000000 1.0
C      1  0.4898110000000  0.5254530000000  0.4843340000000 1.0
C      1  0.5183700000000  0.5230780000000  0.4712760000000 1.0
C      1  0.5271370000000  0.4960970000000  0.4843330000000 1.0
C      1  0.5297450000000  0.5745270000000  0.4793800000000 1.0
C      1  0.5779500000000  0.5149500000000  0.4899270000000 1.0
C      1  0.5496700000000  0.4369760000000  0.4793790000000 1.0
C      1  0.4739710000000  0.4250180000000  0.4899270000000 1.0
C      1  0.4205850000000  0.4884970000000  0.4793800000000 1.0
C      1  0.4480780000000  0.5600320000000  0.4899280000000 1.0
C      1  0.5260290000000  0.5749820000000  0.5100730000000 1.0
C      1  0.5794150000000  0.5115030000000  0.5206200000000 1.0
C      1  0.5519220000000  0.4399680000000  0.5100720000000 1.0
C      1  0.4702550000000  0.4254730000000  0.5206200000000 1.0
C      1  0.4220500000000  0.4850500000000  0.5100730000000 1.0
C      1  0.4503300000000  0.5630240000000  0.5206210000000 1.0
C      1  0.5107400000000  0.5804030000000  0.4616400000000 1.0
C      1  0.5999700000000  0.5138400000000  0.4751680000000 1.0
C      1  0.5642610000000  0.4504970000000  0.4616390000000 1.0
C      1  0.4620010000000  0.4065030000000  0.4751690000000 1.0
C      1  0.4249980000000  0.4691000000000  0.4616400000000 1.0
C      1  0.4380290000000  0.5796570000000  0.4751700000000 1.0
C      1  0.5379990000000  0.5934970000000  0.5248310000000 1.0
C      1  0.5750020000000  0.5309000000000  0.5383600000000 1.0
C      1  0.5619710000000  0.4203430000000  0.5248300000000 1.0
C      1  0.4892600000000  0.4195970000000  0.5383600000000 1.0
C      1  0.4000300000000  0.4861600000000  0.5248320000000 1.0
C      1  0.4357390000000  0.5495030000000  0.5383610000000 1.0
END
