TITL C-38195-9455-445 0.000133807344420888 125000 -351.328326271525 0 0 60 (C1) n - 1
REM
REM in /home/bkarasulu/CARBON/AIRSS/Generating-Clusters/EDIP-Nigel-Params/Higher-Symm/Box-15A/Only-C60/SD-CG/FIRE-HFTN
REM
REM
REM
REM
REM
REM ./C.cell (414f73aa93bd7a1190c7fd0f31ff2f98)
REM
REM compiler GCC version 9.2.1 20190827 (Red Hat 9.2.1-1)
REM options -cpp -mtune=generic -march=x86-64 -g -O0 -fpre-include=/usr/include/finclude/math-vector-fortran.h
REM seed -1029989770 1189743910 1324247638 1738002956 594117566 1110083176 -1204252062 -2032097246 -766735615 -1892596575 584118224 497300265 1599087612 -378051991 994213871 1759404809 -1983655003 -1623115909 701592154 -359670501 -1388449232 -216462212 -1281466887 1224397144 129676584 394998989 -340839135 2099777429 400684065 41461991 2115879697 2089550263 -1422954159
REM
CELL 1.54180   50.00000   50.00000   50.00000   90.00000   90.00000   90.00000
LATT -1
SFAC C  
C      1  0.5345900000000  0.4893540000000  0.4339830000000 1.0
C      1  0.5341160000000  0.4889890000000  0.5660680000000 1.0
C      1  0.5443400000000  0.4610840000000  0.4853830000000 1.0
C      1  0.5442140000000  0.4609660000000  0.5151230000000 1.0
C      1  0.4325710000000  0.4618530000000  0.5296510000000 1.0
C      1  0.4327900000000  0.4617150000000  0.4703630000000 1.0
C      1  0.4942280000000  0.5368940000000  0.5617420000000 1.0
C      1  0.4937430000000  0.5375750000000  0.4379250000000 1.0
C      1  0.4846000000000  0.4343340000000  0.5545930000000 1.0
C      1  0.4849440000000  0.4347750000000  0.4455760000000 1.0
C      1  0.4923630000000  0.4838030000000  0.5300120000000 1.0
C      1  0.4924280000000  0.4841670000000  0.4707500000000 1.0
C      1  0.5186210000000  0.4653800000000  0.5593210000000 1.0
C      1  0.5186950000000  0.4662110000000  0.4413330000000 1.0
C      1  0.5023350000000  0.5086060000000  0.5151600000000 1.0
C      1  0.5018570000000  0.5087920000000  0.4859580000000 1.0
C      1  0.4958240000000  0.5653370000000  0.4861090000000 1.0
C      1  0.4962060000000  0.5657540000000  0.5151020000000 1.0
C      1  0.4903640000000  0.4604350000000  0.4341330000000 1.0
C      1  0.4901040000000  0.4599240000000  0.5662200000000 1.0
C      1  0.4696550000000  0.5087820000000  0.5713500000000 1.0
C      1  0.4696980000000  0.5088370000000  0.4286330000000 1.0
C      1  0.5177650000000  0.5223190000000  0.4430530000000 1.0
C      1  0.5176060000000  0.5213330000000  0.5547490000000 1.0
C      1  0.5206300000000  0.5761230000000  0.5242980000000 1.0
C      1  0.5196230000000  0.5761800000000  0.4758960000000 1.0
C      1  0.4645830000000  0.5333640000000  0.4436560000000 1.0
C      1  0.4648910000000  0.5333560000000  0.5561770000000 1.0
C      1  0.5526350000000  0.5433220000000  0.4802700000000 1.0
C      1  0.5529190000000  0.5429220000000  0.5180790000000 1.0
C      1  0.4582610000000  0.5323390000000  0.5259870000000 1.0
C      1  0.4581490000000  0.5323090000000  0.4738650000000 1.0
C      1  0.5651150000000  0.4779930000000  0.4733980000000 1.0
C      1  0.5650820000000  0.4776460000000  0.5272670000000 1.0
C      1  0.4173480000000  0.4473720000000  0.5133140000000 1.0
C      1  0.4174710000000  0.4473170000000  0.4866830000000 1.0
C      1  0.4702230000000  0.4831090000000  0.4426680000000 1.0
C      1  0.4702840000000  0.4830190000000  0.5573170000000 1.0
C      1  0.5375820000000  0.5317840000000  0.5384650000000 1.0
C      1  0.5377660000000  0.5323720000000  0.4594720000000 1.0
C      1  0.5837660000000  0.4959790000000  0.4612190000000 1.0
C      1  0.5833600000000  0.4959850000000  0.5394850000000 1.0
C      1  0.4437540000000  0.5542390000000  0.5136370000000 1.0
C      1  0.4437600000000  0.5542020000000  0.4863540000000 1.0
C      1  0.4883730000000  0.4587950000000  0.4858320000000 1.0
C      1  0.4882510000000  0.4586370000000  0.5145350000000 1.0
C      1  0.5259550000000  0.4488370000000  0.5357140000000 1.0
C      1  0.5261340000000  0.4492840000000  0.4646060000000 1.0
C      1  0.4472220000000  0.5065250000000  0.5146970000000 1.0
C      1  0.4471650000000  0.5064940000000  0.4852080000000 1.0
C      1  0.5617530000000  0.4872970000000  0.5564260000000 1.0
C      1  0.5619690000000  0.4877740000000  0.4443010000000 1.0
C      1  0.4874560000000  0.5357970000000  0.5181030000000 1.0
C      1  0.4874230000000  0.5357300000000  0.4815320000000 1.0
C      1  0.4992650000000  0.4360760000000  0.4703630000000 1.0
C      1  0.4990080000000  0.4357730000000  0.5298550000000 1.0
C      1  0.5459420000000  0.5712600000000  0.4847590000000 1.0
C      1  0.5465250000000  0.5710530000000  0.5142890000000 1.0
C      1  0.4532790000000  0.4812810000000  0.5292510000000 1.0
C      1  0.4534240000000  0.4812380000000  0.4707340000000 1.0
END
