TITL C-38194-9318-597 2.49253388935904e-05 125000 -369.675668889507 0 0 60 (C3) n - 1
REM
REM in /home/bkarasulu/CARBON/AIRSS/Generating-Clusters/EDIP-Nigel-Params/Higher-Symm/Box-15A/Only-C60/SD-CG/FIRE-HFTN
REM
REM
REM
REM
REM
REM ./C.cell (414f73aa93bd7a1190c7fd0f31ff2f98)
REM
REM compiler GCC version 9.2.1 20190827 (Red Hat 9.2.1-1)
REM options -cpp -mtune=generic -march=x86-64 -g -O0 -fpre-include=/usr/include/finclude/math-vector-fortran.h
REM seed -851709388 221374670 1917976208 -1486236115 1259330230 1281869507 -1885752651 1555941591 -1633708251 -1636742207 -193995981 -2023617326 -1077332236 -993730926 -1690736506 1546391382 -1022681050 297530299 -760230319 752798202 -132560359 -133404773 2053916630 -1945345675 -13920954 928517740 -465256219 -16763630 636905672 782316611 -331978586 -1008280698 1975273403
REM
CELL 1.54180   50.00000   50.00000   50.00000   90.00000   90.00000   90.00000
LATT -1
SFAC C  
C      1  0.5108460000000  0.5818780000000  0.5325800000000 1.0
C      1  0.5325910000000  0.5108220000000  0.5818770000000 1.0
C      1  0.5818870000000  0.5325660000000  0.5108200000000 1.0
C      1  0.4919380000000  0.4247430000000  0.5356360000000 1.0
C      1  0.4855430000000  0.5736310000000  0.4758940000000 1.0
C      1  0.5122320000000  0.4176850000000  0.4710540000000 1.0
C      1  0.4758970000000  0.4855360000000  0.5736310000000 1.0
C      1  0.4710490000000  0.5122550000000  0.4176910000000 1.0
C      1  0.5356260000000  0.4919420000000  0.4247380000000 1.0
C      1  0.4176830000000  0.4710700000000  0.5122580000000 1.0
C      1  0.4247480000000  0.5356490000000  0.4919560000000 1.0
C      1  0.5736220000000  0.4758790000000  0.4855240000000 1.0
C      1  0.5113020000000  0.5672650000000  0.4683850000000 1.0
C      1  0.5317300000000  0.5189620000000  0.4208140000000 1.0
C      1  0.5761330000000  0.5397940000000  0.4849170000000 1.0
C      1  0.4880650000000  0.4301200000000  0.4669910000000 1.0
C      1  0.4849430000000  0.5761300000000  0.5398100000000 1.0
C      1  0.5189570000000  0.4208140000000  0.5317320000000 1.0
C      1  0.4669810000000  0.4880880000000  0.4301210000000 1.0
C      1  0.4683950000000  0.5112980000000  0.5672700000000 1.0
C      1  0.5398130000000  0.4849170000000  0.5761230000000 1.0
C      1  0.4301100000000  0.4670030000000  0.4880880000000 1.0
C      1  0.4208250000000  0.5317490000000  0.5189760000000 1.0
C      1  0.5672620000000  0.4683740000000  0.5112860000000 1.0
C      1  0.5799530000000  0.5120840000000  0.5276950000000 1.0
C      1  0.5277200000000  0.5799430000000  0.5120960000000 1.0
C      1  0.5121120000000  0.5277010000000  0.5799470000000 1.0
C      1  0.4151110000000  0.4878460000000  0.5327660000000 1.0
C      1  0.4223610000000  0.5134100000000  0.4757580000000 1.0
C      1  0.5719510000000  0.4920540000000  0.4632430000000 1.0
C      1  0.4757370000000  0.4223650000000  0.5133980000000 1.0
C      1  0.4632630000000  0.5719630000000  0.4920710000000 1.0
C      1  0.5327400000000  0.4151040000000  0.4878270000000 1.0
C      1  0.4920680000000  0.4632520000000  0.5719570000000 1.0
C      1  0.4878280000000  0.5327600000000  0.4151110000000 1.0
C      1  0.5133830000000  0.4757470000000  0.4223590000000 1.0
C      1  0.5765100000000  0.5189980000000  0.4668420000000 1.0
C      1  0.5328210000000  0.5703520000000  0.4868670000000 1.0
C      1  0.5134550000000  0.5395480000000  0.4224540000000 1.0
C      1  0.4311510000000  0.4881470000000  0.4689340000000 1.0
C      1  0.4224620000000  0.5134700000000  0.5395580000000 1.0
C      1  0.5703590000000  0.4868570000000  0.5328020000000 1.0
C      1  0.4689130000000  0.4311620000000  0.4881380000000 1.0
C      1  0.4668660000000  0.5765160000000  0.5190160000000 1.0
C      1  0.5395370000000  0.4224480000000  0.5134510000000 1.0
C      1  0.4881220000000  0.4689300000000  0.4311580000000 1.0
C      1  0.4868840000000  0.5328120000000  0.5703590000000 1.0
C      1  0.5190140000000  0.4668460000000  0.5765080000000 1.0
C      1  0.4847080000000  0.4424580000000  0.5554600000000 1.0
C      1  0.5554500000000  0.4847030000000  0.4424500000000 1.0
C      1  0.4424640000000  0.5554690000000  0.4847190000000 1.0
C      1  0.5161890000000  0.5574950000000  0.4431410000000 1.0
C      1  0.4441690000000  0.4841740000000  0.4449920000000 1.0
C      1  0.4431510000000  0.5161940000000  0.5575040000000 1.0
C      1  0.5599280000000  0.4811400000000  0.5576470000000 1.0
C      1  0.5574890000000  0.4431310000000  0.5161780000000 1.0
C      1  0.4841480000000  0.4449890000000  0.4441790000000 1.0
C      1  0.5576620000000  0.5599150000000  0.4811460000000 1.0
C      1  0.4449740000000  0.4441880000000  0.4841690000000 1.0
C      1  0.4811680000000  0.5576560000000  0.5599280000000 1.0
END
