TITL C-38187-2739-457 -0.0933834237215677 125000 -361.66437450853 0 0 60 (C1) n - 1
REM
REM in /home/bkarasulu/CARBON/AIRSS/Generating-Clusters/EDIP-Nigel-Params/Higher-Symm/Box-15A/Only-C60/SD-CG/FIRE-HFTN
REM
REM
REM
REM
REM
REM ./C.cell (414f73aa93bd7a1190c7fd0f31ff2f98)
REM
REM compiler GCC version 9.2.1 20190827 (Red Hat 9.2.1-1)
REM options -cpp -mtune=generic -march=x86-64 -g -O0 -fpre-include=/usr/include/finclude/math-vector-fortran.h
REM seed 253736196 751856211 -1042235978 1955553512 1530482353 1968949177 1840957615 -2060136723 -1263208159 1773515520 426524383 -1568203346 -1311405397 -225957026 580855034 963106633 585183290 -186481342 -1572455291 -1107839145 -1802794653 618331124 -868504495 -349923464 -1280430550 -1527951798 -2119314750 396640176 -1803977803 -959316893 1886343568 2107358543 328911829
REM
CELL 1.54180   50.00000   50.00000   50.00000   90.00000   90.00000   90.00000
LATT -1
SFAC C  
C      1  0.4963950000000  0.5067130000000  0.5638520000000 1.0
C      1  0.5077950000000  0.4392690000000  0.4725240000000 1.0
C      1  0.4984990000000  0.5464750000000  0.4632930000000 1.0
C      1  0.5293160000000  0.5375160000000  0.5444330000000 1.0
C      1  0.5357380000000  0.4675360000000  0.4995440000000 1.0
C      1  0.5313430000000  0.5104860000000  0.4650540000000 1.0
C      1  0.4990930000000  0.5803320000000  0.5110710000000 1.0
C      1  0.5050930000000  0.4482600000000  0.5519600000000 1.0
C      1  0.5019720000000  0.4728680000000  0.4310780000000 1.0
C      1  0.5231930000000  0.4934070000000  0.5650680000000 1.0
C      1  0.5325490000000  0.4454900000000  0.4575700000000 1.0
C      1  0.5245440000000  0.5593670000000  0.4727580000000 1.0
C      1  0.5434340000000  0.5122650000000  0.5539460000000 1.0
C      1  0.5530320000000  0.4571810000000  0.4762170000000 1.0
C      1  0.5459280000000  0.5379490000000  0.4717260000000 1.0
C      1  0.4996710000000  0.5341000000000  0.5502780000000 1.0
C      1  0.5111410000000  0.4506930000000  0.4986650000000 1.0
C      1  0.5029990000000  0.5176160000000  0.4560240000000 1.0
C      1  0.5287830000000  0.4674200000000  0.4372050000000 1.0
C      1  0.5231960000000  0.5697820000000  0.5013060000000 1.0
C      1  0.5249280000000  0.4681590000000  0.5497480000000 1.0
C      1  0.4848750000000  0.5322670000000  0.5236080000000 1.0
C      1  0.4868730000000  0.4641370000000  0.5084480000000 1.0
C      1  0.4796500000000  0.4992010000000  0.4638010000000 1.0
C      1  0.5462160000000  0.4694250000000  0.5292060000000 1.0
C      1  0.5457860000000  0.4899300000000  0.4471290000000 1.0
C      1  0.5375290000000  0.5500390000000  0.5176810000000 1.0
C      1  0.5586210000000  0.4966580000000  0.5333860000000 1.0
C      1  0.5669620000000  0.4763190000000  0.4602560000000 1.0
C      1  0.5567470000000  0.5370020000000  0.5002550000000 1.0
C      1  0.4824110000000  0.4611570000000  0.5398260000000 1.0
C      1  0.4794880000000  0.4746520000000  0.4470880000000 1.0
C      1  0.4808790000000  0.5591090000000  0.5088150000000 1.0
C      1  0.4635990000000  0.4463680000000  0.5085320000000 1.0
C      1  0.4543100000000  0.5130680000000  0.4576820000000 1.0
C      1  0.4555420000000  0.5243690000000  0.5280480000000 1.0
C      1  0.4740310000000  0.5518260000000  0.4808850000000 1.0
C      1  0.4752060000000  0.4879800000000  0.5524480000000 1.0
C      1  0.4736910000000  0.4509180000000  0.4623530000000 1.0
C      1  0.4501980000000  0.5000610000000  0.5431590000000 1.0
C      1  0.4524700000000  0.4524100000000  0.4828040000000 1.0
C      1  0.4527920000000  0.5311810000000  0.4790430000000 1.0
C      1  0.4394400000000  0.5218700000000  0.5035760000000 1.0
C      1  0.4306070000000  0.4837330000000  0.5305940000000 1.0
C      1  0.4374380000000  0.4763130000000  0.4842250000000 1.0
C      1  0.6864480000000  0.4872270000000  0.4813070000000 1.0
C      1  0.6351740000000  0.4930700000000  0.4873080000000 1.0
C      1  0.5585930000000  0.5083630000000  0.5060170000000 1.0
C      1  0.4259310000000  0.4944650000000  0.5038380000000 1.0
C      1  0.5016790000000  0.5098120000000  0.5069190000000 1.0
C      1  0.4828180000000  0.4916330000000  0.4944770000000 1.0
C      1  0.3723440000000  0.5009950000000  0.4943090000000 1.0
C      1  0.3209870000000  0.5083080000000  0.4846290000000 1.0
C      1  0.2960950000000  0.5118260000000  0.4799520000000 1.0
C      1  0.6611730000000  0.4899540000000  0.4840610000000 1.0
C      1  0.5829650000000  0.4994630000000  0.4940050000000 1.0
C      1  0.6090530000000  0.4957750000000  0.4900040000000 1.0
C      1  0.5300410000000  0.4985130000000  0.4938300000000 1.0
C      1  0.3466530000000  0.5046020000000  0.4894940000000 1.0
C      1  0.3980570000000  0.4971710000000  0.4992440000000 1.0
END
