TITL C-38194-9318-2 4.57003659138887e-06 125000 -357.140526377428 0 0 60 (C1) n - 1
REM
REM in /home/bkarasulu/CARBON/AIRSS/Generating-Clusters/EDIP-Nigel-Params/Higher-Symm/Box-15A/Only-C60/SD-CG/FIRE-HFTN
REM
REM
REM
REM
REM
REM ./C.cell (414f73aa93bd7a1190c7fd0f31ff2f98)
REM
REM compiler GCC version 9.2.1 20190827 (Red Hat 9.2.1-1)
REM options -cpp -mtune=generic -march=x86-64 -g -O0 -fpre-include=/usr/include/finclude/math-vector-fortran.h
REM seed -1635354979 -1024755087 752262888 -231639931 -1841148758 -1805628424 1375125596 -1026002273 -155371869 -1777923257 281925595 1310528373 522675399 1248125749 -590371165 -666458396 -1384160579 400996085 1941253816 1810988059 2067924560 -876446247 1351421012 -270618673 735003517 -1181315088 -315002059 1304961603 394470113 783518676 541277354 882465524 497563348
REM
CELL 1.54180   50.00000   50.00000   50.00000   90.00000   90.00000   90.00000
LATT -1
SFAC C  
C      1  0.4764630000000  0.4796470000000  0.4609060000000 1.0
C      1  0.5789140000000  0.4975630000000  0.5255310000000 1.0
C      1  0.5539440000000  0.5228200000000  0.4707970000000 1.0
C      1  0.4510490000000  0.4873920000000  0.4464830000000 1.0
C      1  0.5049490000000  0.5109250000000  0.4909480000000 1.0
C      1  0.5561730000000  0.5620820000000  0.4979460000000 1.0
C      1  0.4529300000000  0.4453990000000  0.4885180000000 1.0
C      1  0.4930090000000  0.5360270000000  0.4217130000000 1.0
C      1  0.5078220000000  0.4876650000000  0.5797150000000 1.0
C      1  0.5691200000000  0.4992290000000  0.4685050000000 1.0
C      1  0.4935940000000  0.4146180000000  0.4963230000000 1.0
C      1  0.5335510000000  0.5192080000000  0.4908400000000 1.0
C      1  0.4572660000000  0.5278370000000  0.4931940000000 1.0
C      1  0.5230690000000  0.4732070000000  0.4347810000000 1.0
C      1  0.4303680000000  0.4943230000000  0.4675400000000 1.0
C      1  0.5219390000000  0.5286840000000  0.5599920000000 1.0
C      1  0.5359790000000  0.5817280000000  0.4952630000000 1.0
C      1  0.4471690000000  0.4506960000000  0.5410590000000 1.0
C      1  0.5131980000000  0.4276920000000  0.5152240000000 1.0
C      1  0.5141240000000  0.5192180000000  0.4209970000000 1.0
C      1  0.4878030000000  0.4886090000000  0.5608780000000 1.0
C      1  0.4932630000000  0.5596660000000  0.4886340000000 1.0
C      1  0.4377710000000  0.4771480000000  0.5418420000000 1.0
C      1  0.4950870000000  0.4417340000000  0.5340870000000 1.0
C      1  0.5660550000000  0.4751020000000  0.4806710000000 1.0
C      1  0.5435600000000  0.4829530000000  0.5496520000000 1.0
C      1  0.5289330000000  0.4504970000000  0.4477780000000 1.0
C      1  0.5025890000000  0.4911990000000  0.5133760000000 1.0
C      1  0.4786120000000  0.5688710000000  0.4666520000000 1.0
C      1  0.4937650000000  0.4657800000000  0.5052910000000 1.0
C      1  0.4722910000000  0.4666310000000  0.4864560000000 1.0
C      1  0.4853910000000  0.5337010000000  0.5011030000000 1.0
C      1  0.4588090000000  0.5372630000000  0.5445330000000 1.0
C      1  0.4363420000000  0.5223480000000  0.4747690000000 1.0
C      1  0.5525300000000  0.4638260000000  0.5025230000000 1.0
C      1  0.5537730000000  0.5438980000000  0.5214490000000 1.0
C      1  0.5309480000000  0.4438040000000  0.4967580000000 1.0
C      1  0.5647510000000  0.5184090000000  0.5135580000000 1.0
C      1  0.5240770000000  0.4344830000000  0.4698630000000 1.0
C      1  0.4871310000000  0.5010890000000  0.5355000000000 1.0
C      1  0.5660920000000  0.5481300000000  0.4750410000000 1.0
C      1  0.4991550000000  0.5384480000000  0.5734290000000 1.0
C      1  0.4625930000000  0.5463500000000  0.4593830000000 1.0
C      1  0.5101740000000  0.5767130000000  0.5051660000000 1.0
C      1  0.5297400000000  0.5004530000000  0.5668100000000 1.0
C      1  0.4343210000000  0.5081800000000  0.5412220000000 1.0
C      1  0.4553050000000  0.5096510000000  0.4294880000000 1.0
C      1  0.4964740000000  0.5016840000000  0.4624520000000 1.0
C      1  0.5018170000000  0.4173820000000  0.4691570000000 1.0
C      1  0.5600810000000  0.4769060000000  0.5280980000000 1.0
C      1  0.5122810000000  0.5664210000000  0.5312310000000 1.0
C      1  0.5169580000000  0.4997820000000  0.4410130000000 1.0
C      1  0.5285300000000  0.5444430000000  0.5365130000000 1.0
C      1  0.4673790000000  0.5346610000000  0.4325300000000 1.0
C      1  0.4728210000000  0.5449440000000  0.5679540000000 1.0
C      1  0.4864970000000  0.5307830000000  0.5334240000000 1.0
C      1  0.4296920000000  0.4759250000000  0.4908360000000 1.0
C      1  0.4644210000000  0.4230790000000  0.5050020000000 1.0
C      1  0.4303600000000  0.4905200000000  0.5161910000000 1.0
C      1  0.4671990000000  0.4325770000000  0.5334150000000 1.0
END
