TITL C-38189-4514-452 2.17672621390784e-05 125000 -362.150783781786 0 0 60 (C1) n - 1
REM
REM in /home/bkarasulu/CARBON/AIRSS/Generating-Clusters/EDIP-Nigel-Params/Higher-Symm/Box-15A/Only-C60/SD-CG/FIRE-HFTN
REM
REM
REM
REM
REM
REM ./C.cell (414f73aa93bd7a1190c7fd0f31ff2f98)
REM
REM compiler GCC version 9.2.1 20190827 (Red Hat 9.2.1-1)
REM options -cpp -mtune=generic -march=x86-64 -g -O0 -fpre-include=/usr/include/finclude/math-vector-fortran.h
REM seed -1577935048 807820441 -199966468 -163038462 774014270 -1568804636 3810875 1854103114 1275172895 -740868300 -1729393001 -660547164 -347020118 -1673782671 1843603347 -49521797 862507617 188076444 2134221534 1202059190 1671443262 -947360886 2093884451 1444741620 1178373842 -759389652 1393963219 706588656 -1964599456 -149245832 -33411331 -1527966958 -1717065158
REM
CELL 1.54180   50.00000   50.00000   50.00000   90.00000   90.00000   90.00000
LATT -1
SFAC C  
C      1  0.4658370000000  0.4258940000000  0.4794880000000 1.0
C      1  0.5511170000000  0.5273950000000  0.5482600000000 1.0
C      1  0.5637460000000  0.5376970000000  0.4862000000000 1.0
C      1  0.4788440000000  0.4438710000000  0.4608900000000 1.0
C      1  0.5647760000000  0.5077100000000  0.5301080000000 1.0
C      1  0.4861330000000  0.4882840000000  0.5681930000000 1.0
C      1  0.5149900000000  0.5854380000000  0.5126400000000 1.0
C      1  0.4871090000000  0.5097840000000  0.4321660000000 1.0
C      1  0.5459530000000  0.5255730000000  0.4422520000000 1.0
C      1  0.4920080000000  0.4360090000000  0.5220460000000 1.0
C      1  0.5340210000000  0.5073740000000  0.4247940000000 1.0
C      1  0.4801430000000  0.4855430000000  0.5037720000000 1.0
C      1  0.4262550000000  0.5124270000000  0.4854320000000 1.0
C      1  0.5663190000000  0.5165830000000  0.4632510000000 1.0
C      1  0.5361750000000  0.4719220000000  0.4808960000000 1.0
C      1  0.5594930000000  0.4891880000000  0.4794330000000 1.0
C      1  0.5107200000000  0.5531090000000  0.5547640000000 1.0
C      1  0.4455730000000  0.4776170000000  0.4508370000000 1.0
C      1  0.4907870000000  0.5829960000000  0.5241580000000 1.0
C      1  0.5286330000000  0.4472380000000  0.4651380000000 1.0
C      1  0.5275650000000  0.5462940000000  0.4523810000000 1.0
C      1  0.4716940000000  0.4921370000000  0.4526140000000 1.0
C      1  0.4859520000000  0.5659280000000  0.5457080000000 1.0
C      1  0.4452390000000  0.5124460000000  0.5195950000000 1.0
C      1  0.5077980000000  0.4678730000000  0.4260900000000 1.0
C      1  0.5347200000000  0.5658150000000  0.5118570000000 1.0
C      1  0.5159210000000  0.5194230000000  0.5179600000000 1.0
C      1  0.5447820000000  0.4614910000000  0.5332500000000 1.0
C      1  0.4815490000000  0.4607490000000  0.5647540000000 1.0
C      1  0.5126600000000  0.5365880000000  0.5778550000000 1.0
C      1  0.4769370000000  0.5529790000000  0.4537250000000 1.0
C      1  0.5199400000000  0.4267380000000  0.4826570000000 1.0
C      1  0.4532000000000  0.5246100000000  0.5455170000000 1.0
C      1  0.4520330000000  0.4490030000000  0.4513940000000 1.0
C      1  0.4551140000000  0.5499150000000  0.4691940000000 1.0
C      1  0.5164060000000  0.5304630000000  0.4924160000000 1.0
C      1  0.4988480000000  0.4445650000000  0.5496970000000 1.0
C      1  0.5050870000000  0.4495700000000  0.4471980000000 1.0
C      1  0.5291760000000  0.5432460000000  0.5330890000000 1.0
C      1  0.4187370000000  0.4641220000000  0.4902660000000 1.0
C      1  0.5294470000000  0.5153230000000  0.5679780000000 1.0
C      1  0.4420380000000  0.5358010000000  0.4889330000000 1.0
C      1  0.5369140000000  0.5509090000000  0.4844240000000 1.0
C      1  0.4552000000000  0.4842070000000  0.5197820000000 1.0
C      1  0.4720000000000  0.4234170000000  0.5065590000000 1.0
C      1  0.5274400000000  0.4670420000000  0.5095020000000 1.0
C      1  0.5555510000000  0.5118400000000  0.5007530000000 1.0
C      1  0.4358770000000  0.4653850000000  0.5114650000000 1.0
C      1  0.4268340000000  0.4855360000000  0.4732890000000 1.0
C      1  0.5265740000000  0.4507900000000  0.5523300000000 1.0
C      1  0.4775470000000  0.5027950000000  0.4797880000000 1.0
C      1  0.5160010000000  0.4398150000000  0.5071210000000 1.0
C      1  0.5111450000000  0.4955410000000  0.5551870000000 1.0
C      1  0.4626590000000  0.5506260000000  0.5466630000000 1.0
C      1  0.4654330000000  0.5063660000000  0.5627870000000 1.0
C      1  0.5094940000000  0.4950420000000  0.4198400000000 1.0
C      1  0.4982520000000  0.5340520000000  0.4491660000000 1.0
C      1  0.5066690000000  0.4897250000000  0.5190080000000 1.0
C      1  0.5004300000000  0.5185590000000  0.4736460000000 1.0
C      1  0.5625030000000  0.4816240000000  0.5398460000000 1.0
END
