TITL C-38194-9318-414 0.000222515829031539 125000 -354.851169574422 0 0 60 (C1) n - 1
REM
REM in /home/bkarasulu/CARBON/AIRSS/Generating-Clusters/EDIP-Nigel-Params/Higher-Symm/Box-15A/Only-C60/SD-CG/FIRE-HFTN
REM
REM
REM
REM
REM
REM ./C.cell (414f73aa93bd7a1190c7fd0f31ff2f98)
REM
REM compiler GCC version 9.2.1 20190827 (Red Hat 9.2.1-1)
REM options -cpp -mtune=generic -march=x86-64 -g -O0 -fpre-include=/usr/include/finclude/math-vector-fortran.h
REM seed -1983145718 -9278731 -1156087956 -132813233 -503162379 -1126018864 -1129708963 829560189 -612790809 1708017225 -1035305394 2055020661 1569391596 -1227954631 -973249472 355698088 -677370297 1380454305 -1485199872 748785779 1864007940 -1568814188 1903788271 -982579102 -1558668785 1072050489 -74441820 581328973 1220226836 -893128709 -1663299446 1346388527 -893327897
REM
CELL 1.54180   50.00000   50.00000   50.00000   90.00000   90.00000   90.00000
LATT -1
SFAC C  
C      1  0.5260510000000  0.4928410000000  0.5278130000000 1.0
C      1  0.5093670000000  0.4905450000000  0.4709590000000 1.0
C      1  0.4695660000000  0.4899620000000  0.5039570000000 1.0
C      1  0.4504810000000  0.4982540000000  0.4510870000000 1.0
C      1  0.4822070000000  0.4982510000000  0.5615980000000 1.0
C      1  0.5632450000000  0.4968760000000  0.4853950000000 1.0
C      1  0.4565000000000  0.5174070000000  0.5165310000000 1.0
C      1  0.5431270000000  0.5197500000000  0.5306360000000 1.0
C      1  0.5045470000000  0.5177360000000  0.4541490000000 1.0
C      1  0.4917870000000  0.4323610000000  0.5267310000000 1.0
C      1  0.5278840000000  0.4319930000000  0.4931880000000 1.0
C      1  0.4798630000000  0.4330620000000  0.4776820000000 1.0
C      1  0.4820640000000  0.5365440000000  0.4644980000000 1.0
C      1  0.4762140000000  0.5368190000000  0.5301920000000 1.0
C      1  0.5433870000000  0.5371420000000  0.5054360000000 1.0
C      1  0.4955380000000  0.5194130000000  0.5451900000000 1.0
C      1  0.5423980000000  0.5179930000000  0.4825130000000 1.0
C      1  0.4583140000000  0.5191510000000  0.4722780000000 1.0
C      1  0.5179800000000  0.4265720000000  0.5188530000000 1.0
C      1  0.5075170000000  0.4291060000000  0.4740420000000 1.0
C      1  0.4741970000000  0.4291430000000  0.5049520000000 1.0
C      1  0.4820290000000  0.4822560000000  0.4772060000000 1.0
C      1  0.4926690000000  0.4819490000000  0.5223560000000 1.0
C      1  0.5240830000000  0.4815370000000  0.4988960000000 1.0
C      1  0.4415550000000  0.4708560000000  0.4624860000000 1.0
C      1  0.4974590000000  0.4719630000000  0.5675050000000 1.0
C      1  0.5589050000000  0.4705680000000  0.4705170000000 1.0
C      1  0.5687820000000  0.4941930000000  0.5159570000000 1.0
C      1  0.4783620000000  0.4961060000000  0.4354540000000 1.0
C      1  0.4539110000000  0.4957000000000  0.5485770000000 1.0
C      1  0.5223780000000  0.5314450000000  0.5496250000000 1.0
C      1  0.5316920000000  0.5300190000000  0.4578810000000 1.0
C      1  0.4409940000000  0.5302730000000  0.4937680000000 1.0
C      1  0.5255130000000  0.4732360000000  0.5719130000000 1.0
C      1  0.5470040000000  0.4723860000000  0.4451080000000 1.0
C      1  0.4270830000000  0.4718110000000  0.4866390000000 1.0
C      1  0.4862200000000  0.5749210000000  0.4592580000000 1.0
C      1  0.4670760000000  0.5748100000000  0.5307550000000 1.0
C      1  0.5504100000000  0.5755490000000  0.5094370000000 1.0
C      1  0.4698230000000  0.4583710000000  0.4631440000000 1.0
C      1  0.4856470000000  0.4582500000000  0.5418700000000 1.0
C      1  0.5440550000000  0.4576560000000  0.4942200000000 1.0
C      1  0.5002930000000  0.4734820000000  0.4282450000000 1.0
C      1  0.4388260000000  0.4721420000000  0.5345190000000 1.0
C      1  0.5638840000000  0.4715040000000  0.5378930000000 1.0
C      1  0.4775970000000  0.4573310000000  0.4345830000000 1.0
C      1  0.4571390000000  0.4568190000000  0.5498800000000 1.0
C      1  0.5658710000000  0.4554210000000  0.5144050000000 1.0
C      1  0.5196240000000  0.4722430000000  0.4499140000000 1.0
C      1  0.4465650000000  0.4710640000000  0.5066380000000 1.0
C      1  0.5362940000000  0.4726490000000  0.5462330000000 1.0
C      1  0.5307850000000  0.5577570000000  0.4583510000000 1.0
C      1  0.4405070000000  0.5580130000000  0.4951700000000 1.0
C      1  0.5225770000000  0.5591080000000  0.5471350000000 1.0
C      1  0.5341080000000  0.5771280000000  0.5312370000000 1.0
C      1  0.5133500000000  0.5779290000000  0.4597370000000 1.0
C      1  0.4512060000000  0.5783160000000  0.5088190000000 1.0
C      1  0.4628240000000  0.5545740000000  0.5487910000000 1.0
C      1  0.5667830000000  0.5541800000000  0.5040100000000 1.0
C      1  0.4738850000000  0.5555630000000  0.4441910000000 1.0
END
