TITL C-38194-9318-188 0.098075864142778 125000 -350.284449627074 0 0 60 (C1) n - 1
REM
REM in /home/bkarasulu/CARBON/AIRSS/Generating-Clusters/EDIP-Nigel-Params/Higher-Symm/Box-15A/Only-C60/SD-CG/FIRE-HFTN
REM
REM
REM
REM
REM
REM ./C.cell (414f73aa93bd7a1190c7fd0f31ff2f98)
REM
REM compiler GCC version 9.2.1 20190827 (Red Hat 9.2.1-1)
REM options -cpp -mtune=generic -march=x86-64 -g -O0 -fpre-include=/usr/include/finclude/math-vector-fortran.h
REM seed -1382993074 1464212002 1377816323 650577536 -758995902 -1087577617 -96310185 732088416 -1033662202 1870531640 973090976 28682001 1442769963 1090014546 -1251508531 1212997982 -1258420468 2011604790 -514666200 324189172 1718429887 -1735117737 -2000512149 531336357 975543523 1876608761 561347279 456575017 58015828 1041891043 637767757 -1401098894 -1613410414
REM
CELL 1.54180   50.00000   50.00000   50.00000   90.00000   90.00000   90.00000
LATT -1
SFAC C  
C      1  0.4729600000000  0.4064320000000  0.5279380000000 1.0
C      1  0.4464570000000  0.5231780000000  0.4477810000000 1.0
C      1  0.5187290000000  0.5356840000000  0.5152990000000 1.0
C      1  0.4752700000000  0.5761420000000  0.4847720000000 1.0
C      1  0.5414030000000  0.5221330000000  0.5305170000000 1.0
C      1  0.4551700000000  0.5459360000000  0.5209240000000 1.0
C      1  0.4999490000000  0.5315210000000  0.5779050000000 1.0
C      1  0.5060230000000  0.4914960000000  0.4917880000000 1.0
C      1  0.4703980000000  0.5204290000000  0.5125530000000 1.0
C      1  0.5503090000000  0.4393610000000  0.4792420000000 1.0
C      1  0.4677740000000  0.5725420000000  0.5127020000000 1.0
C      1  0.4955590000000  0.5319330000000  0.4723800000000 1.0
C      1  0.4547010000000  0.5438860000000  0.5517090000000 1.0
C      1  0.4975740000000  0.5194940000000  0.4977820000000 1.0
C      1  0.5411410000000  0.4331340000000  0.5062050000000 1.0
C      1  0.5150610000000  0.4765030000000  0.5146430000000 1.0
C      1  0.5509180000000  0.4506480000000  0.5271170000000 1.0
C      1  0.5436760000000  0.4955560000000  0.5484660000000 1.0
C      1  0.5287010000000  0.5585520000000  0.4983980000000 1.0
C      1  0.4481020000000  0.4981320000000  0.4569410000000 1.0
C      1  0.4486860000000  0.4380120000000  0.5001760000000 1.0
C      1  0.4810810000000  0.4248100000000  0.5469980000000 1.0
C      1  0.5433000000000  0.5519550000000  0.4461750000000 1.0
C      1  0.4546530000000  0.4962370000000  0.5155320000000 1.0
C      1  0.5746310000000  0.4291100000000  0.4714710000000 1.0
C      1  0.4274580000000  0.5061280000000  0.5404060000000 1.0
C      1  0.5305350000000  0.4455420000000  0.4590290000000 1.0
C      1  0.5018570000000  0.4481000000000  0.4666340000000 1.0
C      1  0.5138150000000  0.4463030000000  0.5156750000000 1.0
C      1  0.5131770000000  0.5192160000000  0.4065490000000 1.0
C      1  0.4124820000000  0.5371050000000  0.5728910000000 1.0
C      1  0.5113270000000  0.4645850000000  0.4271320000000 1.0
C      1  0.5218400000000  0.5491230000000  0.5641600000000 1.0
C      1  0.5212220000000  0.4865520000000  0.5665000000000 1.0
C      1  0.5237970000000  0.5610940000000  0.4285160000000 1.0
C      1  0.4430260000000  0.4834940000000  0.5372270000000 1.0
C      1  0.4822740000000  0.5329110000000  0.5533370000000 1.0
C      1  0.5400400000000  0.5537460000000  0.4735000000000 1.0
C      1  0.5426510000000  0.4781610000000  0.5243790000000 1.0
C      1  0.5310560000000  0.5397820000000  0.4120040000000 1.0
C      1  0.5991630000000  0.4222800000000  0.4644200000000 1.0
C      1  0.5046250000000  0.4404770000000  0.5438050000000 1.0
C      1  0.4968940000000  0.5123710000000  0.4282750000000 1.0
C      1  0.5097580000000  0.4613510000000  0.5619000000000 1.0
C      1  0.4940660000000  0.5761990000000  0.5258330000000 1.0
C      1  0.4332040000000  0.5258090000000  0.5606010000000 1.0
C      1  0.4603200000000  0.5658470000000  0.4637840000000 1.0
C      1  0.5034260000000  0.5499430000000  0.5377340000000 1.0
C      1  0.4626250000000  0.5456990000000  0.4444600000000 1.0
C      1  0.6224060000000  0.4142660000000  0.4573920000000 1.0
C      1  0.4626910000000  0.4778100000000  0.4686050000000 1.0
C      1  0.5450070000000  0.5332070000000  0.5568970000000 1.0
C      1  0.4908080000000  0.5364420000000  0.4450000000000 1.0
C      1  0.4982050000000  0.4416000000000  0.4376600000000 1.0
C      1  0.5097220000000  0.5801240000000  0.5010060000000 1.0
C      1  0.4513540000000  0.4229410000000  0.5227770000000 1.0
C      1  0.4497200000000  0.4581270000000  0.4828710000000 1.0
C      1  0.5045310000000  0.4878110000000  0.4422710000000 1.0
C      1  0.4928640000000  0.4771990000000  0.4683260000000 1.0
C      1  0.5098300000000  0.5058430000000  0.5830280000000 1.0
END
