TITL C-38185-7677-90 1.23537711678916e-06 125000 -372.733216818704 0 0 60 (C1) n - 1
REM
REM in /home/bkarasulu/CARBON/AIRSS/Generating-Clusters/EDIP-Nigel-Params/Higher-Symm/Box-15A/Only-C60/SD-CG/FIRE-HFTN
REM
REM
REM
REM
REM
REM ./C.cell (414f73aa93bd7a1190c7fd0f31ff2f98)
REM
REM compiler GCC version 9.2.1 20190827 (Red Hat 9.2.1-1)
REM options -cpp -mtune=generic -march=x86-64 -g -O0 -fpre-include=/usr/include/finclude/math-vector-fortran.h
REM seed 985653219 996839764 1164943343 -967900462 -2042430661 224868322 715033005 -2090667311 1560561197 637046537 -917376511 -556809800 -204596138 -1040611400 -1616654284 -1001669698 1145815176 -468344107 1738197063 466394683 -242140548 -581984701 1459915237 1862382582 1691894534 -2071157025 -1706823511 1791207701 667505881 -101429427 -304806894 1693062889 459474790
REM
CELL 1.54180   50.00000   50.00000   50.00000   90.00000   90.00000   90.00000
LATT -1
SFAC C  
C      1  0.4490260000000  0.5432200000000  0.4899960000000 1.0
C      1  0.4484150000000  0.5240170000000  0.5385770000000 1.0
C      1  0.4480360000000  0.4710150000000  0.5343730000000 1.0
C      1  0.4490820000000  0.4587500000000  0.4828470000000 1.0
C      1  0.4476430000000  0.5031580000000  0.4558480000000 1.0
C      1  0.4747360000000  0.5080280000000  0.5729960000000 1.0
C      1  0.4747910000000  0.4338230000000  0.5285470000000 1.0
C      1  0.4747060000000  0.4484660000000  0.4444600000000 1.0
C      1  0.4744610000000  0.5361240000000  0.4382210000000 1.0
C      1  0.4749890000000  0.5722440000000  0.5153860000000 1.0
C      1  0.4400270000000  0.4778740000000  0.4648010000000 1.0
C      1  0.4400720000000  0.5265350000000  0.4692980000000 1.0
C      1  0.4405010000000  0.5386700000000  0.5161400000000 1.0
C      1  0.4406620000000  0.4972090000000  0.5414160000000 1.0
C      1  0.4407600000000  0.4602120000000  0.5095710000000 1.0
C      1  0.4697450000000  0.4548300000000  0.5464480000000 1.0
C      1  0.4699310000000  0.4412510000000  0.4712860000000 1.0
C      1  0.4700980000000  0.5083090000000  0.4377680000000 1.0
C      1  0.4702500000000  0.5637660000000  0.4891480000000 1.0
C      1  0.4699410000000  0.5312580000000  0.5576160000000 1.0
C      1  0.5226800000000  0.4532530000000  0.5523490000000 1.0
C      1  0.5231520000000  0.4360060000000  0.4713350000000 1.0
C      1  0.5222830000000  0.5059290000000  0.4313590000000 1.0
C      1  0.5229410000000  0.5687860000000  0.4855160000000 1.0
C      1  0.5226860000000  0.5359360000000  0.5600460000000 1.0
C      1  0.5208590000000  0.5076730000000  0.5682530000000 1.0
C      1  0.5210690000000  0.4362110000000  0.5281930000000 1.0
C      1  0.5230920000000  0.4512010000000  0.4457610000000 1.0
C      1  0.5212320000000  0.5343570000000  0.4394940000000 1.0
C      1  0.5219860000000  0.5702340000000  0.5152550000000 1.0
C      1  0.5447490000000  0.4932460000000  0.5701200000000 1.0
C      1  0.5452580000000  0.4298590000000  0.5153850000000 1.0
C      1  0.5466570000000  0.4641350000000  0.4378750000000 1.0
C      1  0.5453250000000  0.5470470000000  0.4464530000000 1.0
C      1  0.5459920000000  0.5649610000000  0.5288030000000 1.0
C      1  0.4955540000000  0.4925940000000  0.4352350000000 1.0
C      1  0.4954340000000  0.5634540000000  0.4721590000000 1.0
C      1  0.4953710000000  0.5472650000000  0.5514780000000 1.0
C      1  0.4948960000000  0.4656230000000  0.5600370000000 1.0
C      1  0.4955860000000  0.4334310000000  0.4853250000000 1.0
C      1  0.4969560000000  0.5377250000000  0.4572720000000 1.0
C      1  0.4975230000000  0.5547820000000  0.5228330000000 1.0
C      1  0.4959300000000  0.4953250000000  0.5568790000000 1.0
C      1  0.4968610000000  0.4451800000000  0.5126400000000 1.0
C      1  0.4977010000000  0.4661950000000  0.4481110000000 1.0
C      1  0.5048910000000  0.4887230000000  0.4783540000000 1.0
C      1  0.4959570000000  0.5171520000000  0.4809890000000 1.0
C      1  0.5035110000000  0.5232110000000  0.5106500000000 1.0
C      1  0.4933280000000  0.4992420000000  0.5257740000000 1.0
C      1  0.4972470000000  0.4767520000000  0.5064700000000 1.0
C      1  0.5474540000000  0.4744390000000  0.4952330000000 1.0
C      1  0.5361780000000  0.4940750000000  0.4754290000000 1.0
C      1  0.5447950000000  0.5219840000000  0.4881380000000 1.0
C      1  0.5345980000000  0.5186470000000  0.5160390000000 1.0
C      1  0.5433560000000  0.4885180000000  0.5214020000000 1.0
C      1  0.5444630000000  0.4448290000000  0.4914740000000 1.0
C      1  0.5437370000000  0.4907300000000  0.4460750000000 1.0
C      1  0.5438950000000  0.5488110000000  0.4746900000000 1.0
C      1  0.5431190000000  0.5385340000000  0.5378420000000 1.0
C      1  0.5438270000000  0.4751850000000  0.5485290000000 1.0
END
