TITL C-38191-7580-23 6.42000216137808e-05 125000 -365.542723729714 0 0 60 (C2) n - 1
REM
REM in /home/bkarasulu/CARBON/AIRSS/Generating-Clusters/EDIP-Nigel-Params/Higher-Symm/Box-15A/Only-C60/SD-CG/FIRE-HFTN
REM
REM
REM
REM
REM
REM ./C.cell (414f73aa93bd7a1190c7fd0f31ff2f98)
REM
REM compiler GCC version 9.2.1 20190827 (Red Hat 9.2.1-1)
REM options -cpp -mtune=generic -march=x86-64 -g -O0 -fpre-include=/usr/include/finclude/math-vector-fortran.h
REM seed -1467331164 -912974501 2139099876 -110742014 130997569 733265105 1994323979 -1821620061 1525044703 860335327 -1904444700 1809580464 422117296 -761372179 -1991167043 2079218936 1929770782 -447075438 1760945895 1670301000 -893488230 691419696 1353164287 873864727 186632270 433390712 -40414987 2089346576 535405881 -106810150 -1429162855 -975338065 -539343433
REM
CELL 1.54180   50.00000   50.00000   50.00000   90.00000   90.00000   90.00000
LATT -1
SFAC C  
C      1  0.5140820000000  0.4887980000000  0.5160720000000 1.0
C      1  0.5140810000000  0.5112030000000  0.4839280000000 1.0
C      1  0.4829990000000  0.4875790000000  0.5147440000000 1.0
C      1  0.4829980000000  0.5124200000000  0.4852560000000 1.0
C      1  0.5666420000000  0.5274540000000  0.4743100000000 1.0
C      1  0.5666430000000  0.4725490000000  0.5256900000000 1.0
C      1  0.4334390000000  0.5243690000000  0.4710100000000 1.0
C      1  0.4334400000000  0.4756270000000  0.5289900000000 1.0
C      1  0.4319600000000  0.5006820000000  0.5145190000000 1.0
C      1  0.4319600000000  0.4993150000000  0.4854800000000 1.0
C      1  0.5703990000000  0.4990590000000  0.5143080000000 1.0
C      1  0.5703990000000  0.5009450000000  0.4856920000000 1.0
C      1  0.4847110000000  0.5286370000000  0.4388690000000 1.0
C      1  0.4847120000000  0.4713620000000  0.5611310000000 1.0
C      1  0.5114190000000  0.5202970000000  0.4318660000000 1.0
C      1  0.5114200000000  0.4797040000000  0.5681340000000 1.0
C      1  0.4714560000000  0.4927070000000  0.5434380000000 1.0
C      1  0.4714560000000  0.5072920000000  0.4565620000000 1.0
C      1  0.5253220000000  0.4956900000000  0.5459820000000 1.0
C      1  0.5253210000000  0.5043120000000  0.4540180000000 1.0
C      1  0.5526180000000  0.5391830000000  0.5432920000000 1.0
C      1  0.5526200000000  0.4608200000000  0.4567080000000 1.0
C      1  0.4536920000000  0.5389440000000  0.5431780000000 1.0
C      1  0.4536940000000  0.4610530000000  0.4568220000000 1.0
C      1  0.4453390000000  0.4547030000000  0.5146220000000 1.0
C      1  0.4453370000000  0.5452940000000  0.4853780000000 1.0
C      1  0.5514100000000  0.4557550000000  0.5077390000000 1.0
C      1  0.5514080000000  0.5442480000000  0.4922610000000 1.0
C      1  0.5584320000000  0.5299380000000  0.4474350000000 1.0
C      1  0.5584340000000  0.4700650000000  0.5525650000000 1.0
C      1  0.4355190000000  0.5256640000000  0.4429520000000 1.0
C      1  0.4355200000000  0.4743330000000  0.5570480000000 1.0
C      1  0.5319900000000  0.4764950000000  0.4430710000000 1.0
C      1  0.5319890000000  0.5235070000000  0.5569290000000 1.0
C      1  0.4731200000000  0.4793020000000  0.4462150000000 1.0
C      1  0.4731190000000  0.5206960000000  0.5537850000000 1.0
C      1  0.5359500000000  0.4645970000000  0.5678410000000 1.0
C      1  0.5359490000000  0.5354040000000  0.4321590000000 1.0
C      1  0.4581940000000  0.4704480000000  0.5727760000000 1.0
C      1  0.4581930000000  0.5295500000000  0.4272240000000 1.0
C      1  0.4723910000000  0.5401860000000  0.4917890000000 1.0
C      1  0.4723930000000  0.4598120000000  0.5082110000000 1.0
C      1  0.5234640000000  0.5382720000000  0.4906870000000 1.0
C      1  0.5234660000000  0.4617300000000  0.5093130000000 1.0
C      1  0.4341830000000  0.4748960000000  0.4718150000000 1.0
C      1  0.4341820000000  0.5251000000000  0.5281850000000 1.0
C      1  0.5706130000000  0.4780370000000  0.4698430000000 1.0
C      1  0.5706120000000  0.5219670000000  0.5301570000000 1.0
C      1  0.5392170000000  0.4411750000000  0.4736620000000 1.0
C      1  0.5392140000000  0.5588270000000  0.5263380000000 1.0
C      1  0.4659500000000  0.4374140000000  0.4667270000000 1.0
C      1  0.4659470000000  0.5625850000000  0.5332730000000 1.0
C      1  0.4910070000000  0.5298060000000  0.5728030000000 1.0
C      1  0.4910090000000  0.4701940000000  0.4271970000000 1.0
C      1  0.5166000000000  0.5364170000000  0.5764720000000 1.0
C      1  0.5166020000000  0.4635840000000  0.4235280000000 1.0
C      1  0.4845920000000  0.5560850000000  0.5127990000000 1.0
C      1  0.4845950000000  0.4439140000000  0.4872010000000 1.0
C      1  0.5132870000000  0.5495790000000  0.5148840000000 1.0
C      1  0.5132900000000  0.4504220000000  0.4851160000000 1.0
END
