TITL C-38189-4514-301 -7.01252965020219e-06 125000 -364.528070009348 0 0 60 (C1) n - 1
REM
REM in /home/bkarasulu/CARBON/AIRSS/Generating-Clusters/EDIP-Nigel-Params/Higher-Symm/Box-15A/Only-C60/SD-CG/FIRE-HFTN
REM
REM
REM
REM
REM
REM ./C.cell (414f73aa93bd7a1190c7fd0f31ff2f98)
REM
REM compiler GCC version 9.2.1 20190827 (Red Hat 9.2.1-1)
REM options -cpp -mtune=generic -march=x86-64 -g -O0 -fpre-include=/usr/include/finclude/math-vector-fortran.h
REM seed -1118191335 381375420 -1133784770 -850449613 1442418038 1813392262 358737838 -1714826171 -1339218099 -1333072163 -1135039362 1041430657 1092875055 -1094348251 2005024820 858930021 592893036 793949285 1642103276 -1251309265 1150000721 1476885982 869204259 -984467933 551635130 -1420904705 -1486204381 1680019638 1977788364 457287722 1101054125 -1740104067 -1209008666
REM
CELL 1.54180   50.00000   50.00000   50.00000   90.00000   90.00000   90.00000
LATT -1
SFAC C  
C      1  0.4362950000000  0.4439500000000  0.4528570000000 1.0
C      1  0.4796540000000  0.4330650000000  0.5402340000000 1.0
C      1  0.5150770000000  0.5480600000000  0.4687580000000 1.0
C      1  0.4518130000000  0.4731430000000  0.5382950000000 1.0
C      1  0.4521140000000  0.5032610000000  0.5378070000000 1.0
C      1  0.5109470000000  0.4473320000000  0.5218950000000 1.0
C      1  0.4926400000000  0.4706640000000  0.5678230000000 1.0
C      1  0.5387180000000  0.5434260000000  0.5383830000000 1.0
C      1  0.5214420000000  0.5103900000000  0.5049770000000 1.0
C      1  0.4355670000000  0.5433890000000  0.5189480000000 1.0
C      1  0.5575910000000  0.5572360000000  0.4942610000000 1.0
C      1  0.4724030000000  0.5548950000000  0.4900280000000 1.0
C      1  0.4245360000000  0.5468470000000  0.4932470000000 1.0
C      1  0.4597880000000  0.5440240000000  0.4663350000000 1.0
C      1  0.5387560000000  0.5655770000000  0.5184140000000 1.0
C      1  0.4745650000000  0.5456910000000  0.4413120000000 1.0
C      1  0.4990580000000  0.5028460000000  0.5260800000000 1.0
C      1  0.4711050000000  0.5250500000000  0.4228440000000 1.0
C      1  0.5592150000000  0.4456470000000  0.5098950000000 1.0
C      1  0.5132840000000  0.4893930000000  0.5651010000000 1.0
C      1  0.5017200000000  0.5525370000000  0.4437190000000 1.0
C      1  0.5301720000000  0.5045360000000  0.4568760000000 1.0
C      1  0.4724890000000  0.5143640000000  0.5201360000000 1.0
C      1  0.4111200000000  0.5003680000000  0.5133960000000 1.0
C      1  0.5093100000000  0.5720010000000  0.5142830000000 1.0
C      1  0.5543150000000  0.4590340000000  0.4841900000000 1.0
C      1  0.4923870000000  0.5084590000000  0.4252950000000 1.0
C      1  0.5391050000000  0.4418010000000  0.5305450000000 1.0
C      1  0.5574350000000  0.4966640000000  0.5379790000000 1.0
C      1  0.4592330000000  0.4416080000000  0.4658660000000 1.0
C      1  0.5695660000000  0.5311830000000  0.5029530000000 1.0
C      1  0.4993940000000  0.5650420000000  0.4875510000000 1.0
C      1  0.5619430000000  0.4862510000000  0.4921910000000 1.0
C      1  0.5450120000000  0.5518620000000  0.4671270000000 1.0
C      1  0.4177410000000  0.4759950000000  0.5038350000000 1.0
C      1  0.5099220000000  0.4542390000000  0.4510700000000 1.0
C      1  0.4826840000000  0.4612600000000  0.4612890000000 1.0
C      1  0.4821380000000  0.4704440000000  0.4903450000000 1.0
C      1  0.4671610000000  0.5442140000000  0.5178600000000 1.0
C      1  0.5061350000000  0.4751720000000  0.5075990000000 1.0
C      1  0.5721920000000  0.4808170000000  0.5187520000000 1.0
C      1  0.4609780000000  0.4475590000000  0.4974830000000 1.0
C      1  0.5543430000000  0.5235700000000  0.4578930000000 1.0
C      1  0.4752220000000  0.4250830000000  0.5124560000000 1.0
C      1  0.4319780000000  0.5415440000000  0.4676680000000 1.0
C      1  0.5025420000000  0.4250010000000  0.5034470000000 1.0
C      1  0.5713010000000  0.5121300000000  0.4802450000000 1.0
C      1  0.4268540000000  0.5168800000000  0.5301130000000 1.0
C      1  0.5170810000000  0.4687830000000  0.4278810000000 1.0
C      1  0.5110800000000  0.5396520000000  0.5472760000000 1.0
C      1  0.5040370000000  0.5161760000000  0.5623500000000 1.0
C      1  0.5380840000000  0.4801440000000  0.5526540000000 1.0
C      1  0.4769340000000  0.4603230000000  0.5470390000000 1.0
C      1  0.4913480000000  0.5581150000000  0.5344380000000 1.0
C      1  0.5477240000000  0.5202450000000  0.5216810000000 1.0
C      1  0.5125360000000  0.5189130000000  0.4763180000000 1.0
C      1  0.5173210000000  0.4969110000000  0.4306470000000 1.0
C      1  0.5452400000000  0.4530540000000  0.5556190000000 1.0
C      1  0.4390910000000  0.4611390000000  0.5142130000000 1.0
C      1  0.5305670000000  0.4530420000000  0.4702310000000 1.0
END
