TITL C-38198-1686-280 2.82235183874846e-07 125000 -368.054371080947 0 0 60 (C1) n - 1
REM
REM in /home/bkarasulu/CARBON/AIRSS/Generating-Clusters/EDIP-Nigel-Params/Higher-Symm/Box-15A/Only-C60/SD-CG/FIRE-HFTN
REM
REM
REM
REM
REM
REM ./C.cell (414f73aa93bd7a1190c7fd0f31ff2f98)
REM
REM compiler GCC version 9.2.1 20190827 (Red Hat 9.2.1-1)
REM options -cpp -mtune=generic -march=x86-64 -g -O0 -fpre-include=/usr/include/finclude/math-vector-fortran.h
REM seed 709154562 -967162608 493600051 -476017158 1512469759 -1649932117 1012494781 1616176940 -1028811715 1584517061 1759822308 -1176291497 1558769256 -297114607 -1248693575 676773391 -170718511 2097900369 2002642924 -1864102247 -133292377 -1552617604 -1140545672 1756360820 1460686927 2012166996 -771902731 1460486003 -755050118 -1528369697 -481961990 -640858446 1307053591
REM
CELL 1.54180   50.00000   50.00000   50.00000   90.00000   90.00000   90.00000
LATT -1
SFAC C  
C      1  0.5330020000000  0.5389780000000  0.4674480000000 1.0
C      1  0.5163550000000  0.4518490000000  0.4680130000000 1.0
C      1  0.4515250000000  0.5093240000000  0.4648030000000 1.0
C      1  0.4731080000000  0.5501280000000  0.4789350000000 1.0
C      1  0.5562280000000  0.4982300000000  0.4783740000000 1.0
C      1  0.4692410000000  0.4515810000000  0.4801440000000 1.0
C      1  0.5263580000000  0.5113230000000  0.5580030000000 1.0
C      1  0.4966870000000  0.4713580000000  0.5579710000000 1.0
C      1  0.4769080000000  0.5171000000000  0.5578980000000 1.0
C      1  0.5097760000000  0.5796920000000  0.4923150000000 1.0
C      1  0.5637830000000  0.4523200000000  0.4901630000000 1.0
C      1  0.4259590000000  0.4697130000000  0.4906460000000 1.0
C      1  0.5232260000000  0.4319570000000  0.4866340000000 1.0
C      1  0.4323530000000  0.5138170000000  0.4849160000000 1.0
C      1  0.5475230000000  0.5534780000000  0.4866150000000 1.0
C      1  0.4550970000000  0.4924700000000  0.5226350000000 1.0
C      1  0.5155990000000  0.5424920000000  0.5226960000000 1.0
C      1  0.5294170000000  0.4652350000000  0.5226360000000 1.0
C      1  0.5440550000000  0.4673730000000  0.5490350000000 1.0
C      1  0.4495970000000  0.4783850000000  0.5488650000000 1.0
C      1  0.5063030000000  0.5542350000000  0.5490080000000 1.0
C      1  0.4982640000000  0.4606450000000  0.5293560000000 1.0
C      1  0.4666670000000  0.5214360000000  0.5293510000000 1.0
C      1  0.5351290000000  0.5180970000000  0.5294510000000 1.0
C      1  0.5098280000000  0.5507840000000  0.4540750000000 1.0
C      1  0.5366460000000  0.4674840000000  0.4529580000000 1.0
C      1  0.4536790000000  0.4824000000000  0.4520920000000 1.0
C      1  0.5331650000000  0.4929370000000  0.5098740000000 1.0
C      1  0.4773450000000  0.4754030000000  0.5100490000000 1.0
C      1  0.4896420000000  0.5320870000000  0.5096760000000 1.0
C      1  0.5683180000000  0.4811800000000  0.5479070000000 1.0
C      1  0.4493590000000  0.4504900000000  0.5473970000000 1.0
C      1  0.4823060000000  0.5684830000000  0.5477770000000 1.0
C      1  0.4910300000000  0.4765350000000  0.4155470000000 1.0
C      1  0.4980300000000  0.5230320000000  0.4148450000000 1.0
C      1  0.5092910000000  0.4976470000000  0.4190990000000 1.0
C      1  0.4941530000000  0.5691990000000  0.4714960000000 1.0
C      1  0.5614900000000  0.4709770000000  0.4692940000000 1.0
C      1  0.4432850000000  0.4608270000000  0.4703700000000 1.0
C      1  0.4659460000000  0.4310230000000  0.5393740000000 1.0
C      1  0.4571010000000  0.5641000000000  0.5397880000000 1.0
C      1  0.5769390000000  0.5052920000000  0.5399740000000 1.0
C      1  0.4801760000000  0.4731300000000  0.4416280000000 1.0
C      1  0.4916390000000  0.5319080000000  0.4409200000000 1.0
C      1  0.5288390000000  0.4942390000000  0.4414030000000 1.0
C      1  0.4311920000000  0.4935650000000  0.5041060000000 1.0
C      1  0.5284320000000  0.5630270000000  0.5047210000000 1.0
C      1  0.5410880000000  0.4441400000000  0.5042490000000 1.0
C      1  0.4912270000000  0.4324820000000  0.5301020000000 1.0
C      1  0.4457530000000  0.5415490000000  0.5303350000000 1.0
C      1  0.5629640000000  0.5263220000000  0.5305040000000 1.0
C      1  0.4727790000000  0.4883200000000  0.5650370000000 1.0
C      1  0.5034590000000  0.5292330000000  0.5651500000000 1.0
C      1  0.5236680000000  0.4822210000000  0.5651780000000 1.0
C      1  0.5446600000000  0.5145910000000  0.4565420000000 1.0
C      1  0.4891020000000  0.4513230000000  0.4584900000000 1.0
C      1  0.4658470000000  0.5330790000000  0.4554420000000 1.0
C      1  0.4848510000000  0.4873370000000  0.4827470000000 1.0
C      1  0.4968140000000  0.5193980000000  0.4825450000000 1.0
C      1  0.5177990000000  0.4930400000000  0.4834000000000 1.0
END
