TITL C-38193-7935-624 0.000320364405777818 125000 -349.03045510333 0 0 60 (C1) n - 1
REM
REM in /home/bkarasulu/CARBON/AIRSS/Generating-Clusters/EDIP-Nigel-Params/Higher-Symm/Box-15A/Only-C60/SD-CG/FIRE-HFTN
REM
REM
REM
REM
REM
REM ./C.cell (414f73aa93bd7a1190c7fd0f31ff2f98)
REM
REM compiler GCC version 9.2.1 20190827 (Red Hat 9.2.1-1)
REM options -cpp -mtune=generic -march=x86-64 -g -O0 -fpre-include=/usr/include/finclude/math-vector-fortran.h
REM seed 1538032857 1589397795 495025729 -441747512 958771807 1942745183 1966588013 -103213676 -854886901 605956699 -799703062 292039426 1822710755 99878104 1090597238 -481271068 -165425611 -1190365113 -2053816047 789115413 1348164391 712699170 -751124117 -1506364107 786888076 -1029942036 -2004382933 1903958581 -564073458 -766870676 -254357268 -1231945535 -422410589
REM
CELL 1.54180   50.00000   50.00000   50.00000   90.00000   90.00000   90.00000
LATT -1
SFAC C  
C      1  0.4789310000000  0.5054180000000  0.5062590000000 1.0
C      1  0.5038960000000  0.5052100000000  0.4880720000000 1.0
C      1  0.5075720000000  0.5060060000000  0.5179510000000 1.0
C      1  0.5344250000000  0.4788870000000  0.4366090000000 1.0
C      1  0.5442650000000  0.4749690000000  0.5599770000000 1.0
C      1  0.4265490000000  0.4722340000000  0.4964990000000 1.0
C      1  0.5637440000000  0.5123120000000  0.5329800000000 1.0
C      1  0.4201460000000  0.5172270000000  0.5184580000000 1.0
C      1  0.5047430000000  0.5185160000000  0.4301810000000 1.0
C      1  0.5093120000000  0.4644710000000  0.4337890000000 1.0
C      1  0.5509500000000  0.4596180000000  0.5361790000000 1.0
C      1  0.4350200000000  0.4644520000000  0.5232860000000 1.0
C      1  0.5529990000000  0.5134970000000  0.4798980000000 1.0
C      1  0.5037000000000  0.5161200000000  0.5676440000000 1.0
C      1  0.4574810000000  0.5080270000000  0.4613270000000 1.0
C      1  0.5521930000000  0.5425900000000  0.4745560000000 1.0
C      1  0.5151070000000  0.5428180000000  0.5718010000000 1.0
C      1  0.4518990000000  0.5370430000000  0.4599910000000 1.0
C      1  0.4602280000000  0.5705540000000  0.4937940000000 1.0
C      1  0.5157730000000  0.5744860000000  0.4793230000000 1.0
C      1  0.5172500000000  0.5704350000000  0.5369100000000 1.0
C      1  0.5525340000000  0.5393800000000  0.5374110000000 1.0
C      1  0.4290180000000  0.5412260000000  0.5047100000000 1.0
C      1  0.5119000000000  0.5433060000000  0.4442210000000 1.0
C      1  0.5001160000000  0.4341190000000  0.5550480000000 1.0
C      1  0.4692670000000  0.4304040000000  0.4880730000000 1.0
C      1  0.5390220000000  0.4310110000000  0.4735450000000 1.0
C      1  0.5302430000000  0.5059340000000  0.4286580000000 1.0
C      1  0.5572700000000  0.5002820000000  0.5580640000000 1.0
C      1  0.4149610000000  0.4982300000000  0.4979940000000 1.0
C      1  0.5719680000000  0.4704140000000  0.5211310000000 1.0
C      1  0.4254300000000  0.4810310000000  0.5436070000000 1.0
C      1  0.4896600000000  0.4782130000000  0.4194450000000 1.0
C      1  0.5361110000000  0.5570120000000  0.5212230000000 1.0
C      1  0.4433030000000  0.5635350000000  0.5142010000000 1.0
C      1  0.4976850000000  0.5604490000000  0.4628690000000 1.0
C      1  0.4446810000000  0.4388700000000  0.5274810000000 1.0
C      1  0.5087470000000  0.4371950000000  0.4383100000000 1.0
C      1  0.5422280000000  0.4334770000000  0.5340020000000 1.0
C      1  0.4640380000000  0.4518990000000  0.4730970000000 1.0
C      1  0.5496880000000  0.4553690000000  0.4764080000000 1.0
C      1  0.4984040000000  0.4588540000000  0.5649540000000 1.0
C      1  0.4526500000000  0.5065130000000  0.4910820000000 1.0
C      1  0.5259890000000  0.5086060000000  0.4673710000000 1.0
C      1  0.5216480000000  0.5089210000000  0.5448640000000 1.0
C      1  0.4601320000000  0.4232060000000  0.5121790000000 1.0
C      1  0.5212210000000  0.4214020000000  0.4560110000000 1.0
C      1  0.5195130000000  0.4214880000000  0.5416170000000 1.0
C      1  0.4710740000000  0.5552310000000  0.4728600000000 1.0
C      1  0.5355200000000  0.5589880000000  0.4924390000000 1.0
C      1  0.5022920000000  0.5643270000000  0.5588230000000 1.0
C      1  0.5797660000000  0.4962030000000  0.5158100000000 1.0
C      1  0.4205050000000  0.5077690000000  0.5450420000000 1.0
C      1  0.4834250000000  0.5047670000000  0.4174950000000 1.0
C      1  0.4290960000000  0.5390390000000  0.4767130000000 1.0
C      1  0.5396810000000  0.5447450000000  0.4490750000000 1.0
C      1  0.5422900000000  0.5415220000000  0.5636990000000 1.0
C      1  0.5162440000000  0.4799030000000  0.5702990000000 1.0
C      1  0.4454580000000  0.4729490000000  0.4729290000000 1.0
C      1  0.5510400000000  0.4793190000000  0.4617530000000 1.0
END
