TITL C-38189-4514-25 -0.000200674131235432 125000 -356.269271367305 0 0 60 (C1) n - 1
REM
REM in /home/bkarasulu/CARBON/AIRSS/Generating-Clusters/EDIP-Nigel-Params/Higher-Symm/Box-15A/Only-C60/SD-CG/FIRE-HFTN
REM
REM
REM
REM
REM
REM ./C.cell (414f73aa93bd7a1190c7fd0f31ff2f98)
REM
REM compiler GCC version 9.2.1 20190827 (Red Hat 9.2.1-1)
REM options -cpp -mtune=generic -march=x86-64 -g -O0 -fpre-include=/usr/include/finclude/math-vector-fortran.h
REM seed 979623124 856189846 -765840781 -1284360493 1822475750 801162550 -979150015 97513287 907230035 2039813523 1725912440 -1621563729 -593932626 1644586818 2077880493 315542461 1090547148 299774050 432832968 932975192 1094607783 1914163920 858488683 -1575722716 -730735695 -608521591 1951675082 1784850843 -1858700951 -2132913114 -2086568087 -1655997306 983053595
REM
CELL 1.54180   50.00000   50.00000   50.00000   90.00000   90.00000   90.00000
LATT -1
SFAC C  
C      1  0.4321070000000  0.4682260000000  0.5402030000000 1.0
C      1  0.5666430000000  0.4708950000000  0.5378510000000 1.0
C      1  0.4665870000000  0.5729020000000  0.4820190000000 1.0
C      1  0.5190710000000  0.5707870000000  0.4843630000000 1.0
C      1  0.4229350000000  0.4690160000000  0.5144650000000 1.0
C      1  0.5743830000000  0.4661170000000  0.5122110000000 1.0
C      1  0.4676310000000  0.4801810000000  0.4452690000000 1.0
C      1  0.5272330000000  0.4730820000000  0.4440070000000 1.0
C      1  0.5478080000000  0.4938990000000  0.4503010000000 1.0
C      1  0.4508550000000  0.5028870000000  0.4550900000000 1.0
C      1  0.5455510000000  0.5186210000000  0.5529210000000 1.0
C      1  0.4507530000000  0.5156190000000  0.5510590000000 1.0
C      1  0.5344760000000  0.4487280000000  0.4564150000000 1.0
C      1  0.4571050000000  0.4556770000000  0.4540430000000 1.0
C      1  0.5515760000000  0.4419880000000  0.4765400000000 1.0
C      1  0.4405120000000  0.4484420000000  0.4742330000000 1.0
C      1  0.5615540000000  0.5143700000000  0.5294790000000 1.0
C      1  0.4410520000000  0.5087490000000  0.5249770000000 1.0
C      1  0.4505610000000  0.5525830000000  0.5263420000000 1.0
C      1  0.5418500000000  0.5561570000000  0.5270720000000 1.0
C      1  0.4516160000000  0.5292670000000  0.5087570000000 1.0
C      1  0.5510660000000  0.5330190000000  0.5110900000000 1.0
C      1  0.5232790000000  0.4534460000000  0.5308910000000 1.0
C      1  0.4756540000000  0.4538470000000  0.5290590000000 1.0
C      1  0.5280400000000  0.5456810000000  0.4369660000000 1.0
C      1  0.4762550000000  0.5469080000000  0.4394410000000 1.0
C      1  0.4275170000000  0.4696690000000  0.4868250000000 1.0
C      1  0.5684390000000  0.4625320000000  0.4851760000000 1.0
C      1  0.4701810000000  0.5693230000000  0.5130080000000 1.0
C      1  0.5189700000000  0.5689900000000  0.5134480000000 1.0
C      1  0.4643400000000  0.5299440000000  0.4613960000000 1.0
C      1  0.5377420000000  0.5224630000000  0.4567520000000 1.0
C      1  0.5302070000000  0.5442760000000  0.5522020000000 1.0
C      1  0.4610630000000  0.5427520000000  0.5519120000000 1.0
C      1  0.4312660000000  0.4937920000000  0.4731580000000 1.0
C      1  0.5673760000000  0.4843540000000  0.4679970000000 1.0
C      1  0.5399200000000  0.4705260000000  0.5473270000000 1.0
C      1  0.4594820000000  0.4687850000000  0.5479260000000 1.0
C      1  0.5229230000000  0.4256270000000  0.5339810000000 1.0
C      1  0.4760420000000  0.4259270000000  0.5301400000000 1.0
C      1  0.5408860000000  0.5591580000000  0.4688650000000 1.0
C      1  0.4484810000000  0.5554270000000  0.4654640000000 1.0
C      1  0.4710500000000  0.4954920000000  0.5575390000000 1.0
C      1  0.5265790000000  0.4964770000000  0.5567700000000 1.0
C      1  0.5303140000000  0.5283730000000  0.4882760000000 1.0
C      1  0.4778070000000  0.5309780000000  0.4901600000000 1.0
C      1  0.4931690000000  0.5632420000000  0.4754650000000 1.0
C      1  0.5008310000000  0.4624880000000  0.4900980000000 1.0
C      1  0.5021210000000  0.5099490000000  0.4352070000000 1.0
C      1  0.4990040000000  0.3849620000000  0.5347210000000 1.0
C      1  0.4985580000000  0.4852260000000  0.4478950000000 1.0
C      1  0.4949540000000  0.5553120000000  0.5215250000000 1.0
C      1  0.5012120000000  0.5366090000000  0.4284600000000 1.0
C      1  0.5010440000000  0.4873680000000  0.4771080000000 1.0
C      1  0.4986900000000  0.5070440000000  0.5472710000000 1.0
C      1  0.5008870000000  0.4969070000000  0.5204250000000 1.0
C      1  0.5000340000000  0.4669810000000  0.5183540000000 1.0
C      1  0.4989120000000  0.5395470000000  0.5477800000000 1.0
C      1  0.4993980000000  0.4112290000000  0.5319680000000 1.0
C      1  0.5024810000000  0.5117450000000  0.4944510000000 1.0
END
