TITL C-38184-643-234 2.83710665711345e-07 125000 -340.762931212946 0 0 60 (D3) n - 1
REM
REM in /home/bkarasulu/CARBON/AIRSS/Generating-Clusters/EDIP-Nigel-Params/Higher-Symm/Box-15A/Only-C60/SD-CG/FIRE-HFTN
REM
REM
REM
REM
REM
REM ./C.cell (414f73aa93bd7a1190c7fd0f31ff2f98)
REM
REM compiler GCC version 9.2.1 20190827 (Red Hat 9.2.1-1)
REM options -cpp -mtune=generic -march=x86-64 -g -O0 -fpre-include=/usr/include/finclude/math-vector-fortran.h
REM seed 1729079162 -948308356 1724677109 -498726923 -1290593617 -551176551 -1370400972 -1486620561 90505613 -1010371866 -456528163 -1898509443 2084278402 -907669859 -357168365 -179491003 -616292066 1759024348 -878116809 -1400229575 385848959 1040086846 -396967741 -24897240 -1550196313 -1517034517 -1650438195 960875004 -291909142 1586051875 2106607608 -1737411392 2119920907
REM
CELL 1.54180   50.00000   50.00000   50.00000   90.00000   90.00000   90.00000
LATT -1
SFAC C  
C      1  0.5074480000000  0.4840720000000  0.5244820000000 1.0
C      1  0.5074480000000  0.4867620000000  0.4739650000000 1.0
C      1  0.5074480000000  0.5291660000000  0.5015530000000 1.0
C      1  0.4925520000000  0.5159280000000  0.5244820000000 1.0
C      1  0.4925520000000  0.5132380000000  0.4739650000000 1.0
C      1  0.4925520000000  0.4708340000000  0.5015530000000 1.0
C      1  0.4628620000000  0.4915750000000  0.5657810000000 1.0
C      1  0.4628620000000  0.4472440000000  0.4598140000000 1.0
C      1  0.4628620000000  0.5611800000000  0.4744050000000 1.0
C      1  0.5371380000000  0.5084250000000  0.5657810000000 1.0
C      1  0.5371380000000  0.5527560000000  0.4598140000000 1.0
C      1  0.5371380000000  0.4388200000000  0.4744050000000 1.0
C      1  0.5432970000000  0.4507340000000  0.5216480000000 1.0
C      1  0.5432970000000  0.5058850000000  0.4465110000000 1.0
C      1  0.5432970000000  0.5433800000000  0.5318420000000 1.0
C      1  0.4567030000000  0.5492660000000  0.5216480000000 1.0
C      1  0.4567030000000  0.4941150000000  0.4465110000000 1.0
C      1  0.4567030000000  0.4566200000000  0.5318420000000 1.0
C      1  0.5805200000000  0.4749010000000  0.4687890000000 1.0
C      1  0.5805200000000  0.5395790000000  0.4938690000000 1.0
C      1  0.5805200000000  0.4855200000000  0.5373420000000 1.0
C      1  0.4194800000000  0.5250990000000  0.4687890000000 1.0
C      1  0.4194800000000  0.4604210000000  0.4938690000000 1.0
C      1  0.4194800000000  0.5144800000000  0.5373420000000 1.0
C      1  0.5372420000000  0.4937860000000  0.4730340000000 1.0
C      1  0.5372420000000  0.5264600000000  0.5081020000000 1.0
C      1  0.5372420000000  0.4797540000000  0.5188640000000 1.0
C      1  0.4627580000000  0.5062140000000  0.4730340000000 1.0
C      1  0.4627580000000  0.4735400000000  0.5081020000000 1.0
C      1  0.4627580000000  0.5202460000000  0.5188640000000 1.0
C      1  0.4975800000000  0.4410020000000  0.5044410000000 1.0
C      1  0.4975800000000  0.5256540000000  0.4466860000000 1.0
C      1  0.4975800000000  0.5333450000000  0.5488740000000 1.0
C      1  0.5024200000000  0.5589980000000  0.5044410000000 1.0
C      1  0.5024200000000  0.4743460000000  0.4466860000000 1.0
C      1  0.5024200000000  0.4666550000000  0.5488740000000 1.0
C      1  0.4914570000000  0.4876770000000  0.5679270000000 1.0
C      1  0.4914570000000  0.4473350000000  0.4553640000000 1.0
C      1  0.4914570000000  0.5649880000000  0.4767090000000 1.0
C      1  0.5085430000000  0.5123230000000  0.5679270000000 1.0
C      1  0.5085430000000  0.5526650000000  0.4553640000000 1.0
C      1  0.5085430000000  0.4350120000000  0.4767090000000 1.0
C      1  0.5560510000000  0.4964100000000  0.5343550000000 1.0
C      1  0.5560510000000  0.4720430000000  0.4797130000000 1.0
C      1  0.5560510000000  0.5315480000000  0.4859320000000 1.0
C      1  0.4439490000000  0.5035900000000  0.5343550000000 1.0
C      1  0.4439490000000  0.5279570000000  0.4797130000000 1.0
C      1  0.4439490000000  0.4684520000000  0.4859320000000 1.0
C      1  0.4466720000000  0.4708820000000  0.5548540000000 1.0
C      1  0.4466720000000  0.4670540000000  0.4473560000000 1.0
C      1  0.4466720000000  0.5620640000000  0.4977900000000 1.0
C      1  0.5533280000000  0.5291180000000  0.5548540000000 1.0
C      1  0.5533280000000  0.5329460000000  0.4473560000000 1.0
C      1  0.5533280000000  0.4379360000000  0.4977900000000 1.0
C      1  0.5179040000000  0.4372380000000  0.5275410000000 1.0
C      1  0.5179040000000  0.5075300000000  0.4318760000000 1.0
C      1  0.5179040000000  0.5552320000000  0.5405830000000 1.0
C      1  0.4820960000000  0.5627620000000  0.5275410000000 1.0
C      1  0.4820960000000  0.4924700000000  0.4318760000000 1.0
C      1  0.4820960000000  0.4447680000000  0.5405830000000 1.0
END
