TITL C-38191-7580-286 7.94282629345779e-06 125000 -359.775439439462 0 0 60 (C1) n - 1
REM
REM in /home/bkarasulu/CARBON/AIRSS/Generating-Clusters/EDIP-Nigel-Params/Higher-Symm/Box-15A/Only-C60/SD-CG/FIRE-HFTN
REM
REM
REM
REM
REM
REM ./C.cell (414f73aa93bd7a1190c7fd0f31ff2f98)
REM
REM compiler GCC version 9.2.1 20190827 (Red Hat 9.2.1-1)
REM options -cpp -mtune=generic -march=x86-64 -g -O0 -fpre-include=/usr/include/finclude/math-vector-fortran.h
REM seed 1529317516 -1808950524 -719463619 541448973 1350746320 -508594909 -1448332879 811156820 -264041841 1340252388 375609775 1600121336 761523280 837679823 1000486319 -207917337 1283647770 1033506254 1640671338 221740692 631703506 448064432 129041012 -180414615 699914585 -1078915953 -78240673 1837527539 169886145 -920858017 251467785 1068852455 -20266678
REM
CELL 1.54180   50.00000   50.00000   50.00000   90.00000   90.00000   90.00000
LATT -1
SFAC C  
C      1  0.4551890000000  0.4447610000000  0.4644250000000 1.0
C      1  0.4599140000000  0.4650140000000  0.5623210000000 1.0
C      1  0.4595210000000  0.5579420000000  0.5345840000000 1.0
C      1  0.4480410000000  0.5351340000000  0.4416960000000 1.0
C      1  0.5429320000000  0.4413830000000  0.5360770000000 1.0
C      1  0.5456560000000  0.4671900000000  0.4411980000000 1.0
C      1  0.5584090000000  0.5590310000000  0.4730130000000 1.0
C      1  0.5438970000000  0.5422900000000  0.5575270000000 1.0
C      1  0.5440340000000  0.4774290000000  0.4992470000000 1.0
C      1  0.5519180000000  0.4932820000000  0.5257370000000 1.0
C      1  0.5463830000000  0.5199390000000  0.5106050000000 1.0
C      1  0.5410510000000  0.5040500000000  0.4845550000000 1.0
C      1  0.4534410000000  0.4781780000000  0.5044780000000 1.0
C      1  0.4428920000000  0.4933360000000  0.4794620000000 1.0
C      1  0.4424190000000  0.5201750000000  0.4973730000000 1.0
C      1  0.4461900000000  0.5013950000000  0.5225590000000 1.0
C      1  0.5434460000000  0.5685160000000  0.4952420000000 1.0
C      1  0.5402920000000  0.4949350000000  0.4342230000000 1.0
C      1  0.5384840000000  0.4294080000000  0.5095950000000 1.0
C      1  0.5373690000000  0.5187840000000  0.5732500000000 1.0
C      1  0.4678920000000  0.5638090000000  0.5086310000000 1.0
C      1  0.4662570000000  0.4918660000000  0.5681410000000 1.0
C      1  0.4599590000000  0.4315730000000  0.4901250000000 1.0
C      1  0.4579330000000  0.5102890000000  0.4322550000000 1.0
C      1  0.4682670000000  0.5069150000000  0.5418580000000 1.0
C      1  0.4655750000000  0.5399590000000  0.4907310000000 1.0
C      1  0.4622730000000  0.4927320000000  0.4562880000000 1.0
C      1  0.4543890000000  0.4505860000000  0.5146870000000 1.0
C      1  0.5478240000000  0.5130220000000  0.4580920000000 1.0
C      1  0.5474420000000  0.5492140000000  0.5194040000000 1.0
C      1  0.5412270000000  0.4867610000000  0.5526100000000 1.0
C      1  0.5453490000000  0.4506180000000  0.4869610000000 1.0
C      1  0.4760910000000  0.5372590000000  0.5433120000000 1.0
C      1  0.4646400000000  0.5480650000000  0.4605320000000 1.0
C      1  0.4704240000000  0.4636890000000  0.4496790000000 1.0
C      1  0.4707480000000  0.4497220000000  0.5410360000000 1.0
C      1  0.5403260000000  0.5414820000000  0.4600250000000 1.0
C      1  0.5247770000000  0.5545420000000  0.5386700000000 1.0
C      1  0.5266770000000  0.4601350000000  0.5504970000000 1.0
C      1  0.5317910000000  0.4506320000000  0.4596970000000 1.0
C      1  0.4903790000000  0.4960440000000  0.5822590000000 1.0
C      1  0.4929950000000  0.5762180000000  0.5053510000000 1.0
C      1  0.4836180000000  0.5104530000000  0.4195210000000 1.0
C      1  0.4873360000000  0.4194790000000  0.4897860000000 1.0
C      1  0.5083760000000  0.4977780000000  0.4267320000000 1.0
C      1  0.5139850000000  0.5722920000000  0.4868420000000 1.0
C      1  0.5093890000000  0.5123250000000  0.5689490000000 1.0
C      1  0.5075350000000  0.4235090000000  0.5100170000000 1.0
C      1  0.5093660000000  0.4914080000000  0.4570390000000 1.0
C      1  0.5083320000000  0.4542100000000  0.5099840000000 1.0
C      1  0.5134170000000  0.5098010000000  0.5384360000000 1.0
C      1  0.5126960000000  0.5448640000000  0.4736980000000 1.0
C      1  0.4923770000000  0.4922870000000  0.5299380000000 1.0
C      1  0.4890000000000  0.4576670000000  0.4885070000000 1.0
C      1  0.4871390000000  0.5080120000000  0.4658670000000 1.0
C      1  0.4951950000000  0.5292110000000  0.4975130000000 1.0
C      1  0.5012010000000  0.4624330000000  0.4604790000000 1.0
C      1  0.4984750000000  0.4638330000000  0.5360310000000 1.0
C      1  0.4906980000000  0.5369850000000  0.4540640000000 1.0
C      1  0.5024770000000  0.5361470000000  0.5285860000000 1.0
END
