TITL C-38187-2739-194 -4.83860899668743e-05 125000 -361.33779052022 0 0 60 (C1) n - 1
REM
REM in /home/bkarasulu/CARBON/AIRSS/Generating-Clusters/EDIP-Nigel-Params/Higher-Symm/Box-15A/Only-C60/SD-CG/FIRE-HFTN
REM
REM
REM
REM
REM
REM ./C.cell (414f73aa93bd7a1190c7fd0f31ff2f98)
REM
REM compiler GCC version 9.2.1 20190827 (Red Hat 9.2.1-1)
REM options -cpp -mtune=generic -march=x86-64 -g -O0 -fpre-include=/usr/include/finclude/math-vector-fortran.h
REM seed 687957768 -1447125685 73662286 1070606744 1622519977 1990944667 -836656400 338891918 1978350389 539612551 1428712360 1734506172 116738660 1060289353 1343426164 -1495950359 -1026679299 2063048003 -816664303 1387870921 -1872788091 1078860411 1627150163 959315730 -2064932447 1628688965 -2051136221 1185135913 -874464883 1448480559 2077273567 -1925372071 -1498231611
REM
CELL 1.54180   50.00000   50.00000   50.00000   90.00000   90.00000   90.00000
LATT -1
SFAC C  
C      1  0.5515600000000  0.5065530000000  0.4450840000000 1.0
C      1  0.5083600000000  0.4375630000000  0.4720480000000 1.0
C      1  0.5651540000000  0.4546750000000  0.4940330000000 1.0
C      1  0.5025850000000  0.5412010000000  0.4468790000000 1.0
C      1  0.4884870000000  0.4754620000000  0.4225160000000 1.0
C      1  0.5508990000000  0.5223470000000  0.5441800000000 1.0
C      1  0.5412450000000  0.5044340000000  0.4882390000000 1.0
C      1  0.4394040000000  0.5325640000000  0.4833160000000 1.0
C      1  0.4625030000000  0.5397130000000  0.4996340000000 1.0
C      1  0.5568320000000  0.4561540000000  0.4675140000000 1.0
C      1  0.5668600000000  0.4731350000000  0.5149580000000 1.0
C      1  0.4711870000000  0.4811640000000  0.5474220000000 1.0
C      1  0.4898090000000  0.5194470000000  0.4362540000000 1.0
C      1  0.5592930000000  0.4812020000000  0.4548230000000 1.0
C      1  0.4895290000000  0.4600560000000  0.5743310000000 1.0
C      1  0.5453990000000  0.4744910000000  0.5346840000000 1.0
C      1  0.5034510000000  0.4472010000000  0.5310320000000 1.0
C      1  0.5252810000000  0.5709780000000  0.5092540000000 1.0
C      1  0.4489220000000  0.4972600000000  0.5544440000000 1.0
C      1  0.5103390000000  0.5560530000000  0.4911580000000 1.0
C      1  0.4173730000000  0.4941230000000  0.5117720000000 1.0
C      1  0.5029800000000  0.4421270000000  0.5018300000000 1.0
C      1  0.5738430000000  0.5479680000000  0.5055670000000 1.0
C      1  0.5274110000000  0.4938650000000  0.5730330000000 1.0
C      1  0.4294590000000  0.4540410000000  0.4550370000000 1.0
C      1  0.5342930000000  0.4409840000000  0.4624470000000 1.0
C      1  0.5477270000000  0.4955890000000  0.5535100000000 1.0
C      1  0.4452420000000  0.5244900000000  0.4576630000000 1.0
C      1  0.4794390000000  0.4530790000000  0.5475800000000 1.0
C      1  0.5280470000000  0.4537040000000  0.5465680000000 1.0
C      1  0.5455940000000  0.5262240000000  0.4682610000000 1.0
C      1  0.5258040000000  0.5188020000000  0.5866820000000 1.0
C      1  0.5214810000000  0.5451070000000  0.4666090000000 1.0
C      1  0.4620600000000  0.4398650000000  0.4206600000000 1.0
C      1  0.4567450000000  0.5586860000000  0.5321720000000 1.0
C      1  0.5367550000000  0.5366360000000  0.5666190000000 1.0
C      1  0.4728060000000  0.5751300000000  0.5155660000000 1.0
C      1  0.5330340000000  0.5037790000000  0.4243950000000 1.0
C      1  0.5055710000000  0.4992500000000  0.4238360000000 1.0
C      1  0.5197630000000  0.5062950000000  0.5042740000000 1.0
C      1  0.4181600000000  0.4699580000000  0.4984040000000 1.0
C      1  0.4471180000000  0.4595050000000  0.4343250000000 1.0
C      1  0.5700880000000  0.5246960000000  0.5212770000000 1.0
C      1  0.4209190000000  0.5169060000000  0.4965780000000 1.0
C      1  0.5266820000000  0.5722990000000  0.5359600000000 1.0
C      1  0.4298860000000  0.4506000000000  0.4825520000000 1.0
C      1  0.4921840000000  0.5552370000000  0.5647060000000 1.0
C      1  0.4669770000000  0.5470260000000  0.5560340000000 1.0
C      1  0.4557760000000  0.5226550000000  0.5633700000000 1.0
C      1  0.4525890000000  0.4382330000000  0.4923090000000 1.0
C      1  0.4866970000000  0.4492090000000  0.4121890000000 1.0
C      1  0.5689110000000  0.5005400000000  0.5024410000000 1.0
C      1  0.4637650000000  0.5100990000000  0.4431950000000 1.0
C      1  0.4271090000000  0.4950000000000  0.5376250000000 1.0
C      1  0.5193770000000  0.5588450000000  0.5591430000000 1.0
C      1  0.5179710000000  0.4656200000000  0.5725770000000 1.0
C      1  0.5679310000000  0.5408920000000  0.4797760000000 1.0
C      1  0.4818580000000  0.5617000000000  0.4916320000000 1.0
C      1  0.4793320000000  0.4371380000000  0.4845870000000 1.0
C      1  0.4641430000000  0.4824480000000  0.4354400000000 1.0
END
