TITL C-38192-7909-566 1.80185934820532e-05 125000 -364.669676942758 0 0 60 (Ci) n - 1
REM
REM in /home/bkarasulu/CARBON/AIRSS/Generating-Clusters/EDIP-Nigel-Params/Higher-Symm/Box-15A/Only-C60/SD-CG/FIRE-HFTN
REM
REM
REM
REM
REM
REM ./C.cell (414f73aa93bd7a1190c7fd0f31ff2f98)
REM
REM compiler GCC version 9.2.1 20190827 (Red Hat 9.2.1-1)
REM options -cpp -mtune=generic -march=x86-64 -g -O0 -fpre-include=/usr/include/finclude/math-vector-fortran.h
REM seed -1041419965 -1667907416 -660493053 -969667839 265440292 -1041617949 -2102203601 -925924508 -1457407752 -1667448218 -1723757599 1031598321 430032050 -30175132 183272424 -667065097 -1065803623 503202878 624308227 1305019613 653939101 -1196680671 2070758019 821795825 229799920 -1016335904 -921035087 -1765914 -1906714882 -805262880 588267185 282206029 1809978830
REM
CELL 1.54180   50.00000   50.00000   50.00000   90.00000   90.00000   90.00000
LATT -1
SFAC C  
C      1  0.4970000000000  0.5135610000000  0.5295310000000 1.0
C      1  0.5026140000000  0.4861470000000  0.5289320000000 1.0
C      1  0.4973860000000  0.5138530000000  0.4710680000000 1.0
C      1  0.5030000000000  0.4864390000000  0.4704690000000 1.0
C      1  0.4885040000000  0.4439490000000  0.4863110000000 1.0
C      1  0.5132420000000  0.5615690000000  0.4852380000000 1.0
C      1  0.4867580000000  0.4384310000000  0.5147620000000 1.0
C      1  0.5114960000000  0.5560510000000  0.5136890000000 1.0
C      1  0.4291580000000  0.5406710000000  0.4857650000000 1.0
C      1  0.5713850000000  0.4597430000000  0.4856150000000 1.0
C      1  0.4286150000000  0.5402570000000  0.5143850000000 1.0
C      1  0.5708420000000  0.4593290000000  0.5142350000000 1.0
C      1  0.5111450000000  0.4366910000000  0.4682760000000 1.0
C      1  0.4887900000000  0.5644060000000  0.4671900000000 1.0
C      1  0.5112100000000  0.4355940000000  0.5328100000000 1.0
C      1  0.4888550000000  0.5633090000000  0.5317240000000 1.0
C      1  0.4490830000000  0.4733580000000  0.4854470000000 1.0
C      1  0.5497150000000  0.5266180000000  0.4854590000000 1.0
C      1  0.4502850000000  0.4733820000000  0.5145410000000 1.0
C      1  0.5509170000000  0.5266420000000  0.5145530000000 1.0
C      1  0.5501720000000  0.4990940000000  0.4728240000000 1.0
C      1  0.4500560000000  0.5011800000000  0.4729180000000 1.0
C      1  0.5499440000000  0.4988200000000  0.5270820000000 1.0
C      1  0.4498280000000  0.5009060000000  0.5271760000000 1.0
C      1  0.4984460000000  0.5539940000000  0.4407300000000 1.0
C      1  0.5012950000000  0.4455480000000  0.4414140000000 1.0
C      1  0.4987050000000  0.5544520000000  0.5585860000000 1.0
C      1  0.5015540000000  0.4460060000000  0.5592700000000 1.0
C      1  0.4648240000000  0.5486940000000  0.4761450000000 1.0
C      1  0.5360180000000  0.4516070000000  0.4747730000000 1.0
C      1  0.4639820000000  0.5483930000000  0.5252270000000 1.0
C      1  0.5351760000000  0.4513060000000  0.5238550000000 1.0
C      1  0.5494660000000  0.5008900000000  0.4451780000000 1.0
C      1  0.4513060000000  0.4995970000000  0.4451990000000 1.0
C      1  0.5486940000000  0.5004030000000  0.5548010000000 1.0
C      1  0.4505340000000  0.4991100000000  0.5548220000000 1.0
C      1  0.5316610000000  0.5182850000000  0.4315630000000 1.0
C      1  0.4685170000000  0.4815900000000  0.4316400000000 1.0
C      1  0.5314830000000  0.5184100000000  0.5683600000000 1.0
C      1  0.4683390000000  0.4817150000000  0.5684370000000 1.0
C      1  0.5009920000000  0.5219580000000  0.4422770000000 1.0
C      1  0.4991360000000  0.4776570000000  0.4418770000000 1.0
C      1  0.5008640000000  0.5223430000000  0.5581230000000 1.0
C      1  0.4990080000000  0.4780420000000  0.5577230000000 1.0
C      1  0.4699750000000  0.4519980000000  0.5580130000000 1.0
C      1  0.5302590000000  0.5479380000000  0.5572110000000 1.0
C      1  0.4697410000000  0.4520620000000  0.4427890000000 1.0
C      1  0.5300250000000  0.5480020000000  0.4419870000000 1.0
C      1  0.5287040000000  0.4794250000000  0.4836440000000 1.0
C      1  0.4716620000000  0.5206640000000  0.4843580000000 1.0
C      1  0.5283380000000  0.4793360000000  0.5156420000000 1.0
C      1  0.4712960000000  0.5205750000000  0.5163560000000 1.0
C      1  0.5363760000000  0.5492210000000  0.5276180000000 1.0
C      1  0.4632180000000  0.4500950000000  0.5285770000000 1.0
C      1  0.5367820000000  0.5499050000000  0.4714230000000 1.0
C      1  0.4636240000000  0.4507790000000  0.4723820000000 1.0
C      1  0.4261380000000  0.5155860000000  0.4729730000000 1.0
C      1  0.5743120000000  0.4851640000000  0.4734310000000 1.0
C      1  0.4256880000000  0.5148360000000  0.5265690000000 1.0
C      1  0.5738620000000  0.4844140000000  0.5270270000000 1.0
END
