TITL C-38197-8510-417 1.60726614710918e-05 125000 -362.297171526523 0 0 60 (C1) n - 1
REM
REM in /home/bkarasulu/CARBON/AIRSS/Generating-Clusters/EDIP-Nigel-Params/Higher-Symm/Box-15A/Only-C60/SD-CG/FIRE-HFTN
REM
REM
REM
REM
REM
REM ./C.cell (414f73aa93bd7a1190c7fd0f31ff2f98)
REM
REM compiler GCC version 9.2.1 20190827 (Red Hat 9.2.1-1)
REM options -cpp -mtune=generic -march=x86-64 -g -O0 -fpre-include=/usr/include/finclude/math-vector-fortran.h
REM seed 1230428982 -1565423777 600818913 -1239093545 -1958033355 -1395084356 431126926 -1993081359 1082111918 -624671000 1377716233 -1462475721 -268142417 -794006203 -1514617885 -364495956 -191011534 1489045171 1099819841 391513464 -1933687321 -675707233 -1176391180 -2010268486 374033941 1089715915 -1207619546 -564350535 2025246526 -2013303692 -195280394 1476976853 -336505167
REM
CELL 1.54180   50.00000   50.00000   50.00000   90.00000   90.00000   90.00000
LATT -1
SFAC C  
C      1  0.4591060000000  0.4441130000000  0.5117950000000 1.0
C      1  0.4205650000000  0.4989190000000  0.5061820000000 1.0
C      1  0.4487220000000  0.5601060000000  0.5026400000000 1.0
C      1  0.5133090000000  0.5716510000000  0.5079100000000 1.0
C      1  0.5641290000000  0.5339300000000  0.5075620000000 1.0
C      1  0.5742820000000  0.4692580000000  0.5038480000000 1.0
C      1  0.5233090000000  0.4259100000000  0.5062190000000 1.0
C      1  0.4623030000000  0.5072320000000  0.4238330000000 1.0
C      1  0.4827520000000  0.5298410000000  0.4252070000000 1.0
C      1  0.5115350000000  0.5249970000000  0.4310320000000 1.0
C      1  0.5347620000000  0.5077150000000  0.4237730000000 1.0
C      1  0.5289270000000  0.4780200000000  0.4239050000000 1.0
C      1  0.5010160000000  0.4709440000000  0.4319660000000 1.0
C      1  0.4725860000000  0.4786060000000  0.4267640000000 1.0
C      1  0.4963550000000  0.4662960000000  0.5578760000000 1.0
C      1  0.4739030000000  0.4857530000000  0.5579930000000 1.0
C      1  0.4745590000000  0.5047400000000  0.5826750000000 1.0
C      1  0.4921620000000  0.5287770000000  0.5743910000000 1.0
C      1  0.5154440000000  0.5181840000000  0.5927140000000 1.0
C      1  0.5294200000000  0.5015850000000  0.5697740000000 1.0
C      1  0.5152070000000  0.4759890000000  0.5791750000000 1.0
C      1  0.5299690000000  0.5481970000000  0.5163630000000 1.0
C      1  0.5596120000000  0.5049800000000  0.5082240000000 1.0
C      1  0.5499000000000  0.4541580000000  0.5107940000000 1.0
C      1  0.4974280000000  0.4373720000000  0.5150970000000 1.0
C      1  0.4444690000000  0.4700650000000  0.5163890000000 1.0
C      1  0.4349850000000  0.5242350000000  0.5103750000000 1.0
C      1  0.4777160000000  0.5570250000000  0.5075130000000 1.0
C      1  0.4735290000000  0.5493100000000  0.4463210000000 1.0
C      1  0.5207170000000  0.5457110000000  0.4485410000000 1.0
C      1  0.5551410000000  0.5132210000000  0.4457490000000 1.0
C      1  0.5464180000000  0.4653950000000  0.4454080000000 1.0
C      1  0.5018420000000  0.4488890000000  0.4505320000000 1.0
C      1  0.4569030000000  0.4657120000000  0.4488410000000 1.0
C      1  0.4421640000000  0.5118320000000  0.4459570000000 1.0
C      1  0.5042920000000  0.4641160000000  0.5282330000000 1.0
C      1  0.4646830000000  0.4899900000000  0.5284450000000 1.0
C      1  0.4605520000000  0.5178500000000  0.5226120000000 1.0
C      1  0.4845160000000  0.5290760000000  0.5114990000000 1.0
C      1  0.5125730000000  0.5220970000000  0.5226250000000 1.0
C      1  0.5311130000000  0.4995630000000  0.5115020000000 1.0
C      1  0.5312590000000  0.4730450000000  0.5226300000000 1.0
C      1  0.5282130000000  0.4494970000000  0.4623420000000 1.0
C      1  0.4770370000000  0.4516320000000  0.4653380000000 1.0
C      1  0.4416860000000  0.4868880000000  0.4618970000000 1.0
C      1  0.4509820000000  0.5361870000000  0.4597230000000 1.0
C      1  0.4977150000000  0.5558350000000  0.4622450000000 1.0
C      1  0.5433550000000  0.5350070000000  0.4622880000000 1.0
C      1  0.5596190000000  0.4877170000000  0.4592200000000 1.0
C      1  0.5372700000000  0.4312470000000  0.4822120000000 1.0
C      1  0.4709350000000  0.4347130000000  0.4877470000000 1.0
C      1  0.4255410000000  0.4809760000000  0.4849310000000 1.0
C      1  0.4356980000000  0.5484900000000  0.4804030000000 1.0
C      1  0.5004600000000  0.5758930000000  0.4825530000000 1.0
C      1  0.5535530000000  0.5480800000000  0.4856650000000 1.0
C      1  0.5782740000000  0.4851020000000  0.4807470000000 1.0
C      1  0.4904980000000  0.4873930000000  0.4877840000000 1.0
C      1  0.4892620000000  0.4849070000000  0.5142410000000 1.0
C      1  0.4978940000000  0.4927850000000  0.5994120000000 1.0
C      1  0.5047020000000  0.5092710000000  0.5516040000000 1.0
END
