TITL C-38185-7677-407 1.5562284288875e-05 125000 -354.134252886546 0 0 60 (Ci) n - 1
REM
REM in /home/bkarasulu/CARBON/AIRSS/Generating-Clusters/EDIP-Nigel-Params/Higher-Symm/Box-15A/Only-C60/SD-CG/FIRE-HFTN
REM
REM
REM
REM
REM
REM ./C.cell (414f73aa93bd7a1190c7fd0f31ff2f98)
REM
REM compiler GCC version 9.2.1 20190827 (Red Hat 9.2.1-1)
REM options -cpp -mtune=generic -march=x86-64 -g -O0 -fpre-include=/usr/include/finclude/math-vector-fortran.h
REM seed 940051139 -199249702 -1185103703 -983774452 2070770337 536449284 1426536686 -1774076441 -1467794044 188116526 1352280269 -1779035758 -502308584 685361006 -514141953 1699674743 -2029795429 -567888234 272625620 1094645884 -345022763 -1611932429 -117263520 279643722 -275122261 -1699109007 1795981707 -290623756 1101078836 1480623273 1481436838 -1064418261 -924326089
REM
CELL 1.54180   50.00000   50.00000   50.00000   90.00000   90.00000   90.00000
LATT -1
SFAC C  
C      1  0.4778080000000  0.5161140000000  0.4840660000000 1.0
C      1  0.4777750000000  0.4851770000000  0.5159260000000 1.0
C      1  0.5221530000000  0.5145770000000  0.4838690000000 1.0
C      1  0.5221030000000  0.4835720000000  0.5157170000000 1.0
C      1  0.4820390000000  0.5162080000000  0.5148650000000 1.0
C      1  0.4803640000000  0.4845450000000  0.4843390000000 1.0
C      1  0.5185700000000  0.5152400000000  0.5155080000000 1.0
C      1  0.5188580000000  0.4836540000000  0.4850040000000 1.0
C      1  0.4549200000000  0.5303240000000  0.4722600000000 1.0
C      1  0.4568810000000  0.4708450000000  0.5306350000000 1.0
C      1  0.5429910000000  0.5290420000000  0.4692370000000 1.0
C      1  0.5449620000000  0.4694570000000  0.5276920000000 1.0
C      1  0.4602450000000  0.5337840000000  0.5282190000000 1.0
C      1  0.4560650000000  0.4704620000000  0.4708900000000 1.0
C      1  0.5432220000000  0.5292480000000  0.5292070000000 1.0
C      1  0.5404950000000  0.4662690000000  0.4715570000000 1.0
C      1  0.5176210000000  0.5706500000000  0.5292200000000 1.0
C      1  0.5060350000000  0.4406630000000  0.4608100000000 1.0
C      1  0.4943740000000  0.5596230000000  0.5393600000000 1.0
C      1  0.4827650000000  0.4297040000000  0.4709970000000 1.0
C      1  0.5082550000000  0.5622620000000  0.4712450000000 1.0
C      1  0.5164510000000  0.4291750000000  0.5402440000000 1.0
C      1  0.4834170000000  0.5707330000000  0.4600160000000 1.0
C      1  0.4915900000000  0.4375170000000  0.5289490000000 1.0
C      1  0.5418620000000  0.5579430000000  0.5322960000000 1.0
C      1  0.5312140000000  0.4394660000000  0.4731700000000 1.0
C      1  0.4694180000000  0.5606010000000  0.5266240000000 1.0
C      1  0.4581550000000  0.4417450000000  0.4679890000000 1.0
C      1  0.5345500000000  0.5558180000000  0.4621050000000 1.0
C      1  0.5414460000000  0.4408300000000  0.5326690000000 1.0
C      1  0.4584480000000  0.5589920000000  0.4675260000000 1.0
C      1  0.4652880000000  0.4441110000000  0.5380020000000 1.0
C      1  0.5125620000000  0.5161500000000  0.5977480000000 1.0
C      1  0.5191460000000  0.4877620000000  0.4044180000000 1.0
C      1  0.4807660000000  0.5124170000000  0.5956000000000 1.0
C      1  0.4873570000000  0.4840250000000  0.4024520000000 1.0
C      1  0.5148050000000  0.5188460000000  0.4004400000000 1.0
C      1  0.5160110000000  0.4855950000000  0.5952920000000 1.0
C      1  0.4838920000000  0.5145690000000  0.4046280000000 1.0
C      1  0.4851030000000  0.4813170000000  0.5995150000000 1.0
C      1  0.5248410000000  0.5364340000000  0.4232510000000 1.0
C      1  0.5204050000000  0.4749240000000  0.5684120000000 1.0
C      1  0.4794240000000  0.5252990000000  0.4314780000000 1.0
C      1  0.4750380000000  0.4637340000000  0.5767110000000 1.0
C      1  0.5207930000000  0.5327620000000  0.5736030000000 1.0
C      1  0.5256920000000  0.4755050000000  0.4308120000000 1.0
C      1  0.4744480000000  0.5247230000000  0.5691860000000 1.0
C      1  0.4793480000000  0.4676230000000  0.4267480000000 1.0
C      1  0.4546710000000  0.4702420000000  0.4416500000000 1.0
C      1  0.4506930000000  0.5259740000000  0.5540740000000 1.0
C      1  0.5496390000000  0.4741040000000  0.4455680000000 1.0
C      1  0.5451450000000  0.5291670000000  0.5583920000000 1.0
C      1  0.4548480000000  0.4750960000000  0.5593020000000 1.0
C      1  0.4538280000000  0.5288840000000  0.4432940000000 1.0
C      1  0.5459750000000  0.4711560000000  0.5566450000000 1.0
C      1  0.5451240000000  0.5250570000000  0.4405530000000 1.0
C      1  0.5000420000000  0.4546710000000  0.5628090000000 1.0
C      1  0.4998190000000  0.5455030000000  0.4371820000000 1.0
C      1  0.5033990000000  0.4610610000000  0.4409490000000 1.0
C      1  0.4968480000000  0.5390450000000  0.5590770000000 1.0
END
