TITL C-38194-9318-315 2.03094939914949e-06 125000 -370.200442117421 0 0 60 (C1) n - 1
REM
REM in /home/bkarasulu/CARBON/AIRSS/Generating-Clusters/EDIP-Nigel-Params/Higher-Symm/Box-15A/Only-C60/SD-CG/FIRE-HFTN
REM
REM
REM
REM
REM
REM ./C.cell (414f73aa93bd7a1190c7fd0f31ff2f98)
REM
REM compiler GCC version 9.2.1 20190827 (Red Hat 9.2.1-1)
REM options -cpp -mtune=generic -march=x86-64 -g -O0 -fpre-include=/usr/include/finclude/math-vector-fortran.h
REM seed -1658935390 -1865760575 31340525 -949517258 -753675041 1210808685 -205077402 1776309079 -2032263650 -1064337424 1126703088 1242667201 -969451179 1479835055 -186442519 1431297565 -1982242420 -1086900828 -2011016179 -2025641305 1204068002 666871259 -1491505602 776931466 727671724 -1567708001 343459625 -2136643532 1006142841 -909846012 -109190949 57096142 1731865581
REM
CELL 1.54180   50.00000   50.00000   50.00000   90.00000   90.00000   90.00000
LATT -1
SFAC C  
C      1  0.4317620000000  0.4791810000000  0.5405390000000 1.0
C      1  0.4984810000000  0.5587800000000  0.5345680000000 1.0
C      1  0.5083530000000  0.4719440000000  0.5007830000000 1.0
C      1  0.5246470000000  0.5552570000000  0.5446930000000 1.0
C      1  0.4687980000000  0.5196370000000  0.4457910000000 1.0
C      1  0.5416320000000  0.5326490000000  0.5382420000000 1.0
C      1  0.5257790000000  0.5142050000000  0.5216110000000 1.0
C      1  0.4817660000000  0.4510330000000  0.4490490000000 1.0
C      1  0.4882940000000  0.5125830000000  0.5452980000000 1.0
C      1  0.4692040000000  0.5543050000000  0.4917690000000 1.0
C      1  0.5111980000000  0.4836890000000  0.4718610000000 1.0
C      1  0.5374680000000  0.5485960000000  0.4667810000000 1.0
C      1  0.4761190000000  0.4360500000000  0.4904530000000 1.0
C      1  0.5173790000000  0.5660370000000  0.4832990000000 1.0
C      1  0.4817330000000  0.4800280000000  0.5119870000000 1.0
C      1  0.5429390000000  0.5206780000000  0.4768500000000 1.0
C      1  0.4892570000000  0.4773520000000  0.4519820000000 1.0
C      1  0.4401480000000  0.4889020000000  0.4657450000000 1.0
C      1  0.4486260000000  0.5155050000000  0.4658300000000 1.0
C      1  0.5457610000000  0.4898720000000  0.5665430000000 1.0
C      1  0.5637110000000  0.5216220000000  0.4998930000000 1.0
C      1  0.4791110000000  0.4964790000000  0.4341510000000 1.0
C      1  0.5369500000000  0.4748210000000  0.4597930000000 1.0
C      1  0.5288760000000  0.4759840000000  0.5485670000000 1.0
C      1  0.4499350000000  0.4565200000000  0.5315030000000 1.0
C      1  0.5065930000000  0.5474200000000  0.4295600000000 1.0
C      1  0.5496810000000  0.5162330000000  0.5608200000000 1.0
C      1  0.4801470000000  0.5408200000000  0.5500750000000 1.0
C      1  0.4540750000000  0.4553210000000  0.5004080000000 1.0
C      1  0.5002890000000  0.5822960000000  0.4671160000000 1.0
C      1  0.4828630000000  0.5446850000000  0.4444020000000 1.0
C      1  0.5452350000000  0.5177590000000  0.4322000000000 1.0
C      1  0.4994520000000  0.4409510000000  0.5347510000000 1.0
C      1  0.4355950000000  0.5210880000000  0.5154880000000 1.0
C      1  0.4779150000000  0.4649320000000  0.5393310000000 1.0
C      1  0.4819550000000  0.5084590000000  0.5167240000000 1.0
C      1  0.5633880000000  0.5404960000000  0.5210130000000 1.0
C      1  0.5464410000000  0.4380140000000  0.5216570000000 1.0
C      1  0.4979800000000  0.5520320000000  0.5041750000000 1.0
C      1  0.4326220000000  0.4680860000000  0.4826370000000 1.0
C      1  0.5318290000000  0.4848880000000  0.5202700000000 1.0
C      1  0.4463660000000  0.5260630000000  0.5426520000000 1.0
C      1  0.5324010000000  0.4349140000000  0.4953110000000 1.0
C      1  0.5142380000000  0.5123150000000  0.4786750000000 1.0
C      1  0.5041170000000  0.5223700000000  0.5038800000000 1.0
C      1  0.5437620000000  0.4514070000000  0.4747420000000 1.0
C      1  0.5271040000000  0.4464020000000  0.5446350000000 1.0
C      1  0.5035480000000  0.4412240000000  0.5040590000000 1.0
C      1  0.4469470000000  0.4996370000000  0.5572180000000 1.0
C      1  0.5784290000000  0.4985810000000  0.5042840000000 1.0
C      1  0.4220410000000  0.4940240000000  0.5169110000000 1.0
C      1  0.4761750000000  0.4293990000000  0.4635670000000 1.0
C      1  0.4750960000000  0.4894460000000  0.5594130000000 1.0
C      1  0.4521800000000  0.5292790000000  0.4915570000000 1.0
C      1  0.5700530000000  0.4537300000000  0.5193830000000 1.0
C      1  0.4103860000000  0.4775670000000  0.4967680000000 1.0
C      1  0.5332900000000  0.5432250000000  0.4374680000000 1.0
C      1  0.5604600000000  0.4789380000000  0.5119470000000 1.0
C      1  0.5520150000000  0.5012060000000  0.4546690000000 1.0
C      1  0.4774040000000  0.5650880000000  0.4646490000000 1.0
END
