TITL C-38192-7909-97 1.48124498969231e-05 125000 -362.397171722436 0 0 60 (Ci) n - 1
REM
REM in /home/bkarasulu/CARBON/AIRSS/Generating-Clusters/EDIP-Nigel-Params/Higher-Symm/Box-15A/Only-C60/SD-CG/FIRE-HFTN
REM
REM
REM
REM
REM
REM ./C.cell (414f73aa93bd7a1190c7fd0f31ff2f98)
REM
REM compiler GCC version 9.2.1 20190827 (Red Hat 9.2.1-1)
REM options -cpp -mtune=generic -march=x86-64 -g -O0 -fpre-include=/usr/include/finclude/math-vector-fortran.h
REM seed -288888947 1818373240 1060095467 606849131 -1051167320 -1566845074 -436790516 909370425 -2084930175 -450591253 141740774 -394258651 1297838101 968651888 401820914 -44205722 1000278852 -175031455 -165237592 486514653 -981447212 -675429037 -113355945 2061098450 185211180 -1554950627 298032763 -1931045168 834333042 1227707566 -1207092623 -1278984130 353879460
REM
CELL 1.54180   50.00000   50.00000   50.00000   90.00000   90.00000   90.00000
LATT -1
SFAC C  
C      1  0.4562390000000  0.4397010000000  0.4498420000000 1.0
C      1  0.5437610000000  0.5602990000000  0.5501580000000 1.0
C      1  0.5629470000000  0.4492820000000  0.5173310000000 1.0
C      1  0.4370530000000  0.5507180000000  0.4826690000000 1.0
C      1  0.4616160000000  0.4499330000000  0.5254900000000 1.0
C      1  0.5383840000000  0.5500670000000  0.4745100000000 1.0
C      1  0.5047340000000  0.4791300000000  0.4788960000000 1.0
C      1  0.4952660000000  0.5208700000000  0.5211040000000 1.0
C      1  0.5409240000000  0.5245590000000  0.4568020000000 1.0
C      1  0.4590760000000  0.4754410000000  0.5431980000000 1.0
C      1  0.4989860000000  0.4723880000000  0.5081390000000 1.0
C      1  0.5010140000000  0.5276120000000  0.4918610000000 1.0
C      1  0.5203690000000  0.5042510000000  0.4821990000000 1.0
C      1  0.4796310000000  0.4957490000000  0.5178010000000 1.0
C      1  0.4812470000000  0.5701220000000  0.4811490000000 1.0
C      1  0.5187530000000  0.4298780000000  0.5188510000000 1.0
C      1  0.5307620000000  0.4306370000000  0.4909730000000 1.0
C      1  0.4692380000000  0.5693630000000  0.5090270000000 1.0
C      1  0.5156410000000  0.5169770000000  0.4398200000000 1.0
C      1  0.4843590000000  0.4830230000000  0.5601800000000 1.0
C      1  0.4431490000000  0.5289580000000  0.5261740000000 1.0
C      1  0.5568510000000  0.4710420000000  0.4738260000000 1.0
C      1  0.4851350000000  0.4319800000000  0.4870600000000 1.0
C      1  0.5148650000000  0.5680200000000  0.5129400000000 1.0
C      1  0.4900920000000  0.4431630000000  0.5137870000000 1.0
C      1  0.5099080000000  0.5568370000000  0.4862130000000 1.0
C      1  0.4879850000000  0.5568010000000  0.5544110000000 1.0
C      1  0.5120150000000  0.4431990000000  0.4455890000000 1.0
C      1  0.4906510000000  0.5692740000000  0.5292460000000 1.0
C      1  0.5093490000000  0.4307260000000  0.4707540000000 1.0
C      1  0.5552460000000  0.4477960000000  0.4900970000000 1.0
C      1  0.4447540000000  0.5522040000000  0.5099030000000 1.0
C      1  0.5408560000000  0.5622940000000  0.5223410000000 1.0
C      1  0.4591440000000  0.4377060000000  0.4776590000000 1.0
C      1  0.5804220000000  0.5218160000000  0.5206440000000 1.0
C      1  0.4195780000000  0.4781840000000  0.4793560000000 1.0
C      1  0.4571810000000  0.5062380000000  0.4827820000000 1.0
C      1  0.5428190000000  0.4937620000000  0.5172180000000 1.0
C      1  0.4501910000000  0.4852190000000  0.4434640000000 1.0
C      1  0.5498090000000  0.5147810000000  0.5565360000000 1.0
C      1  0.4490460000000  0.5011600000000  0.5258860000000 1.0
C      1  0.5509540000000  0.4988400000000  0.4741140000000 1.0
C      1  0.4189230000000  0.4588720000000  0.4982650000000 1.0
C      1  0.5810770000000  0.5411280000000  0.5017350000000 1.0
C      1  0.4376840000000  0.4948280000000  0.4663850000000 1.0
C      1  0.5623160000000  0.5051720000000  0.5336150000000 1.0
C      1  0.5314880000000  0.5358340000000  0.5567910000000 1.0
C      1  0.4685120000000  0.4641660000000  0.4432090000000 1.0
C      1  0.5550730000000  0.5512490000000  0.4992000000000 1.0
C      1  0.4449270000000  0.4487510000000  0.5008000000000 1.0
C      1  0.5233640000000  0.4750930000000  0.5272250000000 1.0
C      1  0.4766360000000  0.5249070000000  0.4727750000000 1.0
C      1  0.5127940000000  0.4839370000000  0.5531540000000 1.0
C      1  0.4872060000000  0.5160630000000  0.4468460000000 1.0
C      1  0.4895130000000  0.5109300000000  0.5681800000000 1.0
C      1  0.5104870000000  0.4890700000000  0.4318200000000 1.0
C      1  0.4983570000000  0.4686870000000  0.4500860000000 1.0
C      1  0.5016430000000  0.5313130000000  0.5499140000000 1.0
C      1  0.4623230000000  0.5510060000000  0.4691610000000 1.0
C      1  0.5376770000000  0.4489940000000  0.5308390000000 1.0
END
