TITL C-38198-1686-52 4.05912745933552e-05 125000 -360.930530038772 0 0 60 (C2) n - 1
REM
REM in /home/bkarasulu/CARBON/AIRSS/Generating-Clusters/EDIP-Nigel-Params/Higher-Symm/Box-15A/Only-C60/SD-CG/FIRE-HFTN
REM
REM
REM
REM
REM
REM ./C.cell (414f73aa93bd7a1190c7fd0f31ff2f98)
REM
REM compiler GCC version 9.2.1 20190827 (Red Hat 9.2.1-1)
REM options -cpp -mtune=generic -march=x86-64 -g -O0 -fpre-include=/usr/include/finclude/math-vector-fortran.h
REM seed 1154811845 702650747 -263444313 -314255692 1202071566 -260800175 -1818830926 -1066333945 1407024732 -587413962 1621297761 1392991802 -164486156 2109512091 -632762530 1361166551 -1060698753 1077916209 -924042280 -1903486058 -332357824 -448719116 565481781 2042207872 2126571947 793140667 -2094296546 1247583350 847443815 -476896987 -267834210 -1849055970 -264097187
REM
CELL 1.54180   50.00000   50.00000   50.00000   90.00000   90.00000   90.00000
LATT -1
SFAC C  
C      1  0.4929070000000  0.5241130000000  0.4321860000000 1.0
C      1  0.4910640000000  0.4318080000000  0.5123040000000 1.0
C      1  0.4846480000000  0.5419790000000  0.5541390000000 1.0
C      1  0.5070930000000  0.5241130000000  0.5678140000000 1.0
C      1  0.5089360000000  0.4318080000000  0.4876960000000 1.0
C      1  0.5153520000000  0.5419790000000  0.4458610000000 1.0
C      1  0.4787880000000  0.5627010000000  0.4787910000000 1.0
C      1  0.4717300000000  0.4514700000000  0.4576720000000 1.0
C      1  0.4772680000000  0.4833880000000  0.5685410000000 1.0
C      1  0.5212120000000  0.5627010000000  0.5212090000000 1.0
C      1  0.5282700000000  0.4514700000000  0.5423280000000 1.0
C      1  0.5227320000000  0.4833880000000  0.4314590000000 1.0
C      1  0.5283410000000  0.4907440000000  0.5224290000000 1.0
C      1  0.5215200000000  0.5272870000000  0.4945200000000 1.0
C      1  0.5202430000000  0.4854520000000  0.4754140000000 1.0
C      1  0.4716590000000  0.4907440000000  0.4775710000000 1.0
C      1  0.4784800000000  0.5272870000000  0.5054800000000 1.0
C      1  0.4797570000000  0.4854520000000  0.5245860000000 1.0
C      1  0.4567760000000  0.5285160000000  0.5508550000000 1.0
C      1  0.4645720000000  0.5312630000000  0.4378350000000 1.0
C      1  0.4617320000000  0.4370810000000  0.5083730000000 1.0
C      1  0.5432240000000  0.5285160000000  0.4491450000000 1.0
C      1  0.5354280000000  0.5312630000000  0.5621650000000 1.0
C      1  0.5382680000000  0.4370810000000  0.4916270000000 1.0
C      1  0.5494470000000  0.4535150000000  0.4684580000000 1.0
C      1  0.5529400000000  0.5080160000000  0.5540220000000 1.0
C      1  0.5555380000000  0.5322910000000  0.4776920000000 1.0
C      1  0.4505530000000  0.4535150000000  0.5315420000000 1.0
C      1  0.4470600000000  0.5080160000000  0.4459780000000 1.0
C      1  0.4444620000000  0.5322910000000  0.5223080000000 1.0
C      1  0.4585490000000  0.5475080000000  0.4621490000000 1.0
C      1  0.4546130000000  0.4504150000000  0.4827880000000 1.0
C      1  0.4579760000000  0.5035680000000  0.5639530000000 1.0
C      1  0.5414510000000  0.5475080000000  0.5378510000000 1.0
C      1  0.5453870000000  0.4504150000000  0.5172120000000 1.0
C      1  0.5420240000000  0.5035680000000  0.4360470000000 1.0
C      1  0.5002710000000  0.4426130000000  0.4608630000000 1.0
C      1  0.5049520000000  0.4943470000000  0.5679080000000 1.0
C      1  0.5073620000000  0.5614660000000  0.4694480000000 1.0
C      1  0.4997290000000  0.4426130000000  0.5391370000000 1.0
C      1  0.4950480000000  0.4943470000000  0.4320920000000 1.0
C      1  0.4926380000000  0.5614660000000  0.5305520000000 1.0
C      1  0.4705440000000  0.4820280000000  0.4476130000000 1.0
C      1  0.4768190000000  0.4627570000000  0.5459930000000 1.0
C      1  0.4716890000000  0.5568650000000  0.5090910000000 1.0
C      1  0.5294560000000  0.4820280000000  0.5523870000000 1.0
C      1  0.5231810000000  0.4627570000000  0.4540070000000 1.0
C      1  0.5283110000000  0.5568650000000  0.4909090000000 1.0
C      1  0.4914000000000  0.5142460000000  0.5282270000000 1.0
C      1  0.4796630000000  0.5182390000000  0.4773630000000 1.0
C      1  0.4845800000000  0.4729300000000  0.4984910000000 1.0
C      1  0.5086000000000  0.5142460000000  0.4717730000000 1.0
C      1  0.5203370000000  0.5182390000000  0.5226370000000 1.0
C      1  0.5154200000000  0.4729300000000  0.5015090000000 1.0
C      1  0.5631130000000  0.5172570000000  0.5267420000000 1.0
C      1  0.5609100000000  0.5084350000000  0.4981770000000 1.0
C      1  0.5558900000000  0.4777020000000  0.4912390000000 1.0
C      1  0.4368870000000  0.5172570000000  0.4732580000000 1.0
C      1  0.4390900000000  0.5084350000000  0.5018230000000 1.0
C      1  0.4441100000000  0.4777020000000  0.5087610000000 1.0
END
