TITL C-38189-4514-668 7.41924234438072e-05 125000 -350.138007893543 0 0 60 (C1) n - 1
REM
REM in /home/bkarasulu/CARBON/AIRSS/Generating-Clusters/EDIP-Nigel-Params/Higher-Symm/Box-15A/Only-C60/SD-CG/FIRE-HFTN
REM
REM
REM
REM
REM
REM ./C.cell (414f73aa93bd7a1190c7fd0f31ff2f98)
REM
REM compiler GCC version 9.2.1 20190827 (Red Hat 9.2.1-1)
REM options -cpp -mtune=generic -march=x86-64 -g -O0 -fpre-include=/usr/include/finclude/math-vector-fortran.h
REM seed 84636762 -1222280123 1851750719 -2016973521 476371560 -927458599 1355580213 414708761 939723165 315469408 -1175887294 1791696791 -60065498 861112962 238593226 366814126 -444903242 1141191011 911772009 1469287499 -580712856 -703680095 1635006243 211867053 -362723172 -1123852254 -1504002597 1089334439 899850685 1939119888 -1019348045 72991917 2049263911
REM
CELL 1.54180   50.00000   50.00000   50.00000   90.00000   90.00000   90.00000
LATT -1
SFAC C  
C      1  0.5948120000000  0.5162030000000  0.4673370000000 1.0
C      1  0.5997320000000  0.4902130000000  0.4657550000000 1.0
C      1  0.5946060000000  0.4665140000000  0.4764370000000 1.0
C      1  0.5816480000000  0.4532850000000  0.4954870000000 1.0
C      1  0.5658260000000  0.4525210000000  0.5180400000000 1.0
C      1  0.5745440000000  0.4677180000000  0.5393060000000 1.0
C      1  0.5863640000000  0.4912240000000  0.5434980000000 1.0
C      1  0.5877280000000  0.5164710000000  0.5351460000000 1.0
C      1  0.5720690000000  0.5379010000000  0.5277010000000 1.0
C      1  0.5643540000000  0.5422860000000  0.5005220000000 1.0
C      1  0.5815670000000  0.5351980000000  0.4802970000000 1.0
C      1  0.4913450000000  0.5544880000000  0.5063550000000 1.0
C      1  0.4763040000000  0.5521920000000  0.4792660000000 1.0
C      1  0.4836810000000  0.5318490000000  0.4579280000000 1.0
C      1  0.4672560000000  0.5073250000000  0.4568330000000 1.0
C      1  0.4769390000000  0.4818940000000  0.4460220000000 1.0
C      1  0.4853530000000  0.4326450000000  0.4955250000000 1.0
C      1  0.4920040000000  0.4311190000000  0.5228780000000 1.0
C      1  0.4701760000000  0.4407770000000  0.5405280000000 1.0
C      1  0.4808210000000  0.4618940000000  0.5576400000000 1.0
C      1  0.4824180000000  0.5306650000000  0.5493330000000 1.0
C      1  0.4732130000000  0.5497320000000  0.5293500000000 1.0
C      1  0.4427460000000  0.4537290000000  0.4998960000000 1.0
C      1  0.4480190000000  0.4552100000000  0.5283680000000 1.0
C      1  0.4609470000000  0.4824970000000  0.5525790000000 1.0
C      1  0.4663420000000  0.5092810000000  0.5575040000000 1.0
C      1  0.4458810000000  0.5536670000000  0.5256240000000 1.0
C      1  0.4345890000000  0.5650170000000  0.5039800000000 1.0
C      1  0.4468000000000  0.5540000000000  0.4813100000000 1.0
C      1  0.4318200000000  0.5372210000000  0.4647930000000 1.0
C      1  0.4386150000000  0.5098040000000  0.4643680000000 1.0
C      1  0.4674860000000  0.4581360000000  0.4574600000000 1.0
C      1  0.4644470000000  0.4455550000000  0.4823170000000 1.0
C      1  0.5365700000000  0.5650180000000  0.4686090000000 1.0
C      1  0.5262260000000  0.5521010000000  0.4477920000000 1.0
C      1  0.5417200000000  0.5074460000000  0.4203650000000 1.0
C      1  0.4979540000000  0.4741450000000  0.4052170000000 1.0
C      1  0.5274940000000  0.4448070000000  0.4621800000000 1.0
C      1  0.5316690000000  0.4393590000000  0.4878750000000 1.0
C      1  0.5283020000000  0.4213550000000  0.5517370000000 1.0
C      1  0.5243320000000  0.4828200000000  0.5661110000000 1.0
C      1  0.5220810000000  0.5094310000000  0.5679990000000 1.0
C      1  0.5540630000000  0.5475770000000  0.5461320000000 1.0
C      1  0.5186950000000  0.5906880000000  0.5202120000000 1.0
C      1  0.5414730000000  0.5588980000000  0.4949420000000 1.0
C      1  0.5102470000000  0.5297490000000  0.4473410000000 1.0
C      1  0.5176640000000  0.5072150000000  0.4313400000000 1.0
C      1  0.5029510000000  0.4810520000000  0.4311010000000 1.0
C      1  0.5193450000000  0.4608140000000  0.4426310000000 1.0
C      1  0.5379610000000  0.4471910000000  0.5136070000000 1.0
C      1  0.5181890000000  0.4406940000000  0.5353330000000 1.0
C      1  0.5092490000000  0.4645750000000  0.5517010000000 1.0
C      1  0.5107760000000  0.5288110000000  0.5518180000000 1.0
C      1  0.5270060000000  0.5497580000000  0.5409360000000 1.0
C      1  0.5196990000000  0.5638780000000  0.5152670000000 1.0
C      1  0.4341430000000  0.4962510000000  0.4903300000000 1.0
C      1  0.5099170000000  0.4956770000000  0.4999690000000 1.0
C      1  0.4228970000000  0.4705080000000  0.4891000000000 1.0
C      1  0.4850670000000  0.4949470000000  0.5064180000000 1.0
C      1  0.4582600000000  0.4978450000000  0.5050920000000 1.0
END
