TITL C-38197-8510-473 2.40859179220053e-05 125000 -365.617295211568 0 0 60 (C1) n - 1
REM
REM in /home/bkarasulu/CARBON/AIRSS/Generating-Clusters/EDIP-Nigel-Params/Higher-Symm/Box-15A/Only-C60/SD-CG/FIRE-HFTN
REM
REM
REM
REM
REM
REM ./C.cell (414f73aa93bd7a1190c7fd0f31ff2f98)
REM
REM compiler GCC version 9.2.1 20190827 (Red Hat 9.2.1-1)
REM options -cpp -mtune=generic -march=x86-64 -g -O0 -fpre-include=/usr/include/finclude/math-vector-fortran.h
REM seed 1218736670 -34199758 -392711076 -1196165585 1081207550 1234600985 26591966 -1068620668 -1797483007 -995997809 -1151097406 -304925299 461479593 -2039865273 -434412254 -122323461 1796989955 1811763915 725307575 -1480653260 215001754 -859990606 -110985229 -642015468 -1864505285 -1583957914 1812579674 -626953626 640998549 -994047539 -1938266937 1169538663 1829676148
REM
CELL 1.54180   50.00000   50.00000   50.00000   90.00000   90.00000   90.00000
LATT -1
SFAC C  
C      1  0.5264530000000  0.4469920000000  0.5192850000000 1.0
C      1  0.4756310000000  0.4536480000000  0.5180380000000 1.0
C      1  0.4430180000000  0.4904980000000  0.5192790000000 1.0
C      1  0.4563790000000  0.5378310000000  0.5192410000000 1.0
C      1  0.5035400000000  0.5507950000000  0.5207630000000 1.0
C      1  0.5475900000000  0.5301650000000  0.5214430000000 1.0
C      1  0.5604300000000  0.4825510000000  0.5200430000000 1.0
C      1  0.5133350000000  0.5295460000000  0.4336690000000 1.0
C      1  0.5327510000000  0.5084640000000  0.4342880000000 1.0
C      1  0.5267170000000  0.4806290000000  0.4395810000000 1.0
C      1  0.5021060000000  0.4661040000000  0.4347380000000 1.0
C      1  0.4763560000000  0.4773260000000  0.4405360000000 1.0
C      1  0.4680900000000  0.5036510000000  0.4339950000000 1.0
C      1  0.4854160000000  0.5258270000000  0.4371970000000 1.0
C      1  0.4311600000000  0.4743750000000  0.4524670000000 1.0
C      1  0.4454030000000  0.5417680000000  0.4530060000000 1.0
C      1  0.4879970000000  0.5689290000000  0.4555830000000 1.0
C      1  0.5525340000000  0.5454910000000  0.4558100000000 1.0
C      1  0.5753600000000  0.5019700000000  0.4566810000000 1.0
C      1  0.5379540000000  0.4377700000000  0.4558820000000 1.0
C      1  0.4767430000000  0.4317710000000  0.4563640000000 1.0
C      1  0.5244300000000  0.4654190000000  0.4942110000000 1.0
C      1  0.4746760000000  0.4728530000000  0.4841070000000 1.0
C      1  0.4544750000000  0.4953420000000  0.4914220000000 1.0
C      1  0.4693320000000  0.5246870000000  0.4931000000000 1.0
C      1  0.5037820000000  0.5374760000000  0.4932330000000 1.0
C      1  0.5337460000000  0.5194100000000  0.4942950000000 1.0
C      1  0.5471970000000  0.4858640000000  0.4928900000000 1.0
C      1  0.5587630000000  0.5196250000000  0.4421390000000 1.0
C      1  0.5491660000000  0.4638250000000  0.4476540000000 1.0
C      1  0.5025000000000  0.4386730000000  0.4439720000000 1.0
C      1  0.4544780000000  0.4596260000000  0.4446270000000 1.0
C      1  0.4409200000000  0.5114310000000  0.4444630000000 1.0
C      1  0.4713110000000  0.5503540000000  0.4407460000000 1.0
C      1  0.5235730000000  0.5543060000000  0.4469540000000 1.0
C      1  0.5650150000000  0.4788120000000  0.4687720000000 1.0
C      1  0.5255710000000  0.4389020000000  0.4812240000000 1.0
C      1  0.4696690000000  0.4429010000000  0.4822480000000 1.0
C      1  0.4328700000000  0.4966250000000  0.4705220000000 1.0
C      1  0.4503660000000  0.5443790000000  0.4813350000000 1.0
C      1  0.5086770000000  0.5600720000000  0.4733000000000 1.0
C      1  0.5539980000000  0.5389080000000  0.4840620000000 1.0
C      1  0.4616280000000  0.5111520000000  0.5592050000000 1.0
C      1  0.4811550000000  0.5341760000000  0.5610300000000 1.0
C      1  0.5195350000000  0.5328430000000  0.5656640000000 1.0
C      1  0.5417280000000  0.5014810000000  0.5606140000000 1.0
C      1  0.5328080000000  0.4730750000000  0.5591680000000 1.0
C      1  0.5040390000000  0.4638470000000  0.5578220000000 1.0
C      1  0.4699450000000  0.4823190000000  0.5583950000000 1.0
C      1  0.4445450000000  0.5154150000000  0.5352390000000 1.0
C      1  0.4784080000000  0.5494860000000  0.5355830000000 1.0
C      1  0.5262900000000  0.5435930000000  0.5377120000000 1.0
C      1  0.5583790000000  0.5069710000000  0.5365640000000 1.0
C      1  0.5468450000000  0.4612060000000  0.5358760000000 1.0
C      1  0.5004070000000  0.4467340000000  0.5337860000000 1.0
C      1  0.4566730000000  0.4694080000000  0.5348720000000 1.0
C      1  0.5048490000000  0.5054670000000  0.5729870000000 1.0
C      1  0.5003780000000  0.4814660000000  0.4942550000000 1.0
C      1  0.4997530000000  0.4993960000000  0.5148160000000 1.0
C      1  0.5011840000000  0.4994960000000  0.5431450000000 1.0
END
