TITL C-38186-4112-561 7.9164916443141e-06 125000 -368.492787031203 0 0 60 (C2) n - 1
REM
REM in /home/bkarasulu/CARBON/AIRSS/Generating-Clusters/EDIP-Nigel-Params/Higher-Symm/Box-15A/Only-C60/SD-CG/FIRE-HFTN
REM
REM
REM
REM
REM
REM ./C.cell (414f73aa93bd7a1190c7fd0f31ff2f98)
REM
REM compiler GCC version 9.2.1 20190827 (Red Hat 9.2.1-1)
REM options -cpp -mtune=generic -march=x86-64 -g -O0 -fpre-include=/usr/include/finclude/math-vector-fortran.h
REM seed -1780957968 679668870 183890985 -1689510221 -1922099479 -1214672671 896664265 1822499653 955103667 580094432 -117053618 -1135890789 -944929268 -1170176870 -1303779934 -116992716 1401869117 -1326401905 1250878631 576562338 2113288011 -666446823 1361550544 1669724033 1928605992 -177475897 -2136345142 -710933862 -1648922201 -1258925281 -1542598388 -1335057708 912982157
REM
CELL 1.54180   50.00000   50.00000   50.00000   90.00000   90.00000   90.00000
LATT -1
SFAC C  
C      1  0.4933150000000  0.5607970000000  0.4555460000000 1.0
C      1  0.4933150000000  0.4392030000000  0.5444540000000 1.0
C      1  0.4952480000000  0.4409990000000  0.4543050000000 1.0
C      1  0.4952480000000  0.5590010000000  0.5456950000000 1.0
C      1  0.4373830000000  0.5139650000000  0.5333790000000 1.0
C      1  0.4373830000000  0.4860350000000  0.4666210000000 1.0
C      1  0.4415010000000  0.4863890000000  0.5252860000000 1.0
C      1  0.4415010000000  0.5136110000000  0.4747140000000 1.0
C      1  0.4137680000000  0.4801440000000  0.4829870000000 1.0
C      1  0.4137680000000  0.5198560000000  0.5170130000000 1.0
C      1  0.4160340000000  0.5182580000000  0.4882440000000 1.0
C      1  0.4160340000000  0.4817420000000  0.5117560000000 1.0
C      1  0.5351310000000  0.4419930000000  0.5147410000000 1.0
C      1  0.5351310000000  0.5580070000000  0.4852590000000 1.0
C      1  0.5358230000000  0.5575040000000  0.5140440000000 1.0
C      1  0.5358230000000  0.4424960000000  0.4859560000000 1.0
C      1  0.4821630000000  0.5353080000000  0.4552240000000 1.0
C      1  0.4821630000000  0.4646920000000  0.5447760000000 1.0
C      1  0.4820230000000  0.4653450000000  0.4520410000000 1.0
C      1  0.4820230000000  0.5346550000000  0.5479590000000 1.0
C      1  0.5013010000000  0.5134440000000  0.5525570000000 1.0
C      1  0.5013010000000  0.4865560000000  0.4474430000000 1.0
C      1  0.4996410000000  0.4846380000000  0.5565830000000 1.0
C      1  0.4996410000000  0.5153620000000  0.4434170000000 1.0
C      1  0.5550580000000  0.4577650000000  0.5281760000000 1.0
C      1  0.5550580000000  0.5422350000000  0.4718240000000 1.0
C      1  0.5561590000000  0.5411740000000  0.5263390000000 1.0
C      1  0.5561590000000  0.4588260000000  0.4736610000000 1.0
C      1  0.5712260000000  0.5125860000000  0.5624830000000 1.0
C      1  0.5712260000000  0.4874140000000  0.4375170000000 1.0
C      1  0.5698510000000  0.4858200000000  0.5643100000000 1.0
C      1  0.5698510000000  0.5141800000000  0.4356900000000 1.0
C      1  0.5139240000000  0.5685450000000  0.4709500000000 1.0
C      1  0.5139240000000  0.4314550000000  0.5290500000000 1.0
C      1  0.5150440000000  0.4327730000000  0.4704970000000 1.0
C      1  0.5150440000000  0.5672270000000  0.5295030000000 1.0
C      1  0.5787780000000  0.4627410000000  0.5145100000000 1.0
C      1  0.5787780000000  0.5372590000000  0.4854900000000 1.0
C      1  0.5799430000000  0.5369190000000  0.5124350000000 1.0
C      1  0.5799430000000  0.4630810000000  0.4875650000000 1.0
C      1  0.4376960000000  0.5776860000000  0.5119340000000 1.0
C      1  0.4376960000000  0.4223140000000  0.4880660000000 1.0
C      1  0.4366390000000  0.4227810000000  0.5146190000000 1.0
C      1  0.4366390000000  0.5772190000000  0.4853810000000 1.0
C      1  0.4433100000000  0.4401800000000  0.5337030000000 1.0
C      1  0.4433100000000  0.5598200000000  0.4662970000000 1.0
C      1  0.4458830000000  0.5605410000000  0.5306290000000 1.0
C      1  0.4458830000000  0.4394590000000  0.4693710000000 1.0
C      1  0.5243730000000  0.4730280000000  0.5626500000000 1.0
C      1  0.5243730000000  0.5269720000000  0.4373500000000 1.0
C      1  0.5257830000000  0.5245430000000  0.5601140000000 1.0
C      1  0.5257830000000  0.4754570000000  0.4398860000000 1.0
C      1  0.5520470000000  0.5299840000000  0.5525510000000 1.0
C      1  0.5520470000000  0.4700160000000  0.4474490000000 1.0
C      1  0.5506850000000  0.4682610000000  0.5546260000000 1.0
C      1  0.5506850000000  0.5317390000000  0.4453740000000 1.0
C      1  0.4537030000000  0.4650870000000  0.5401200000000 1.0
C      1  0.4537030000000  0.5349130000000  0.4598800000000 1.0
C      1  0.4565650000000  0.5353800000000  0.5346770000000 1.0
C      1  0.4565650000000  0.4646200000000  0.4653230000000 1.0
END
