TITL C-38192-7909-614 1.12089294409086e-06 125000 -346.033942504892 0 0 60 (D2) n - 1
REM
REM in /home/bkarasulu/CARBON/AIRSS/Generating-Clusters/EDIP-Nigel-Params/Higher-Symm/Box-15A/Only-C60/SD-CG/FIRE-HFTN
REM
REM
REM
REM
REM
REM ./C.cell (414f73aa93bd7a1190c7fd0f31ff2f98)
REM
REM compiler GCC version 9.2.1 20190827 (Red Hat 9.2.1-1)
REM options -cpp -mtune=generic -march=x86-64 -g -O0 -fpre-include=/usr/include/finclude/math-vector-fortran.h
REM seed -1707483731 1485289172 1186182425 -474830656 -60042863 -1530046944 222557678 831937064 -2136054681 1180834437 13634770 -553636838 756613037 -1192662192 -2121479490 -962066925 1962215460 -2047264607 -524513934 1217097017 1802202012 -2042482037 800390499 -982342940 521984104 -899239113 767647629 1012668461 -394981367 -370161959 1860327933 -104144691 -2046947765
REM
CELL 1.54180   50.00000   50.00000   50.00000   90.00000   90.00000   90.00000
LATT -1
SFAC C  
C      1  0.4468790000000  0.5140430000000  0.5512670000000 1.0
C      1  0.4468790000000  0.4859570000000  0.4487330000000 1.0
C      1  0.5531210000000  0.4859570000000  0.5512670000000 1.0
C      1  0.5531210000000  0.5140430000000  0.4487330000000 1.0
C      1  0.4854100000000  0.4765020000000  0.5303070000000 1.0
C      1  0.4854100000000  0.5234980000000  0.4696930000000 1.0
C      1  0.5145900000000  0.5234980000000  0.5303070000000 1.0
C      1  0.5145900000000  0.4765020000000  0.4696930000000 1.0
C      1  0.4385330000000  0.5136300000000  0.4548270000000 1.0
C      1  0.4385330000000  0.4863700000000  0.5451730000000 1.0
C      1  0.5614670000000  0.4863700000000  0.4548270000000 1.0
C      1  0.5614670000000  0.5136300000000  0.5451730000000 1.0
C      1  0.5414420000000  0.5361820000000  0.5423880000000 1.0
C      1  0.5414420000000  0.4638180000000  0.4576120000000 1.0
C      1  0.4585580000000  0.4638180000000  0.5423880000000 1.0
C      1  0.4585580000000  0.5361820000000  0.4576120000000 1.0
C      1  0.4419150000000  0.5334520000000  0.5301090000000 1.0
C      1  0.4419150000000  0.4665480000000  0.4698910000000 1.0
C      1  0.5580850000000  0.4665480000000  0.5301090000000 1.0
C      1  0.5580850000000  0.5334520000000  0.4698910000000 1.0
C      1  0.5342920000000  0.4321250000000  0.4793660000000 1.0
C      1  0.5342920000000  0.5678750000000  0.5206340000000 1.0
C      1  0.4657080000000  0.5678750000000  0.4793660000000 1.0
C      1  0.4657080000000  0.4321250000000  0.5206340000000 1.0
C      1  0.4763990000000  0.4859770000000  0.5018580000000 1.0
C      1  0.4763990000000  0.5140230000000  0.4981420000000 1.0
C      1  0.5236010000000  0.5140230000000  0.5018580000000 1.0
C      1  0.5236010000000  0.4859770000000  0.4981420000000 1.0
C      1  0.4869070000000  0.4956540000000  0.5547790000000 1.0
C      1  0.4869070000000  0.5043460000000  0.4452210000000 1.0
C      1  0.5130930000000  0.5043460000000  0.5547790000000 1.0
C      1  0.5130930000000  0.4956540000000  0.4452210000000 1.0
C      1  0.5296250000000  0.4843820000000  0.5655940000000 1.0
C      1  0.5296250000000  0.5156180000000  0.4344060000000 1.0
C      1  0.4703750000000  0.5156180000000  0.5655940000000 1.0
C      1  0.4703750000000  0.4843820000000  0.4344060000000 1.0
C      1  0.4802200000000  0.4724410000000  0.4745880000000 1.0
C      1  0.4802200000000  0.5275590000000  0.5254120000000 1.0
C      1  0.5197800000000  0.5275590000000  0.4745880000000 1.0
C      1  0.5197800000000  0.4724410000000  0.5254120000000 1.0
C      1  0.4231930000000  0.4827900000000  0.4863180000000 1.0
C      1  0.4231930000000  0.5172100000000  0.5136820000000 1.0
C      1  0.5768070000000  0.5172100000000  0.4863180000000 1.0
C      1  0.5768070000000  0.4827900000000  0.5136820000000 1.0
C      1  0.5270000000000  0.5561100000000  0.4755930000000 1.0
C      1  0.5270000000000  0.4438900000000  0.5244070000000 1.0
C      1  0.4730000000000  0.4438900000000  0.4755930000000 1.0
C      1  0.4730000000000  0.5561100000000  0.5244070000000 1.0
C      1  0.5568300000000  0.5501120000000  0.5205240000000 1.0
C      1  0.5568300000000  0.4498880000000  0.4794760000000 1.0
C      1  0.4431700000000  0.4498880000000  0.5205240000000 1.0
C      1  0.4431700000000  0.5501120000000  0.4794760000000 1.0
C      1  0.4846220000000  0.5682520000000  0.5011540000000 1.0
C      1  0.4846220000000  0.4317480000000  0.4988460000000 1.0
C      1  0.5153780000000  0.4317480000000  0.5011540000000 1.0
C      1  0.5153780000000  0.5682520000000  0.4988460000000 1.0
C      1  0.5749950000000  0.5151330000000  0.5176370000000 1.0
C      1  0.5749950000000  0.4848670000000  0.4823630000000 1.0
C      1  0.4250050000000  0.4848670000000  0.5176370000000 1.0
C      1  0.4250050000000  0.5151330000000  0.4823630000000 1.0
END
