TITL C-38186-4112-266 5.57728612400967e-08 125000 -359.141483628536 0 0 60 (C2) n - 1
REM
REM in /home/bkarasulu/CARBON/AIRSS/Generating-Clusters/EDIP-Nigel-Params/Higher-Symm/Box-15A/Only-C60/SD-CG/FIRE-HFTN
REM
REM
REM
REM
REM
REM ./C.cell (414f73aa93bd7a1190c7fd0f31ff2f98)
REM
REM compiler GCC version 9.2.1 20190827 (Red Hat 9.2.1-1)
REM options -cpp -mtune=generic -march=x86-64 -g -O0 -fpre-include=/usr/include/finclude/math-vector-fortran.h
REM seed 368517826 34410327 188487357 95231262 915808109 -1890698936 362090613 2052876470 1747784878 -511515044 -203111952 -477405386 1916613541 -1183458722 -373626587 -1748438784 -1597981356 -1187640038 -710173648 1956894434 -1036025715 1596442356 -1603581301 -199531417 2080992063 787326969 -1909602202 -1567877540 2021152329 537664602 1130648270 -1037382603 288479191
REM
CELL 1.54180   50.00000   50.00000   50.00000   90.00000   90.00000   90.00000
LATT -1
SFAC C  
C      1  0.5574680000000  0.4901740000000  0.5529720000000 1.0
C      1  0.4425320000000  0.5098260000000  0.5529720000000 1.0
C      1  0.5185470000000  0.4590910000000  0.5380920000000 1.0
C      1  0.4814530000000  0.5409090000000  0.5380920000000 1.0
C      1  0.4663800000000  0.5362730000000  0.4488170000000 1.0
C      1  0.5336200000000  0.4637270000000  0.4488170000000 1.0
C      1  0.4853330000000  0.4976730000000  0.4669380000000 1.0
C      1  0.5146670000000  0.5023270000000  0.4669380000000 1.0
C      1  0.4877130000000  0.5273620000000  0.5662580000000 1.0
C      1  0.5122870000000  0.4726380000000  0.5662580000000 1.0
C      1  0.5046710000000  0.5135210000000  0.5279300000000 1.0
C      1  0.4953290000000  0.4864790000000  0.5279300000000 1.0
C      1  0.4496110000000  0.4613020000000  0.4588710000000 1.0
C      1  0.5503890000000  0.5386980000000  0.4588710000000 1.0
C      1  0.4681760000000  0.5040890000000  0.5664840000000 1.0
C      1  0.5318240000000  0.4959110000000  0.5664840000000 1.0
C      1  0.4282820000000  0.4961130000000  0.4762360000000 1.0
C      1  0.5717180000000  0.5038870000000  0.4762360000000 1.0
C      1  0.4707620000000  0.5057320000000  0.4421510000000 1.0
C      1  0.5292380000000  0.4942680000000  0.4421510000000 1.0
C      1  0.4641050000000  0.4377160000000  0.4978030000000 1.0
C      1  0.5358950000000  0.5622840000000  0.4978030000000 1.0
C      1  0.4775990000000  0.4268240000000  0.4732970000000 1.0
C      1  0.5224010000000  0.5731760000000  0.4732970000000 1.0
C      1  0.4446760000000  0.4567740000000  0.4884360000000 1.0
C      1  0.5553240000000  0.5432260000000  0.4884360000000 1.0
C      1  0.4469020000000  0.4875120000000  0.4443860000000 1.0
C      1  0.5530980000000  0.5124880000000  0.4443860000000 1.0
C      1  0.5407510000000  0.4939880000000  0.5125880000000 1.0
C      1  0.4592490000000  0.5060120000000  0.5125880000000 1.0
C      1  0.5174560000000  0.5207450000000  0.5542750000000 1.0
C      1  0.4825440000000  0.4792550000000  0.5542750000000 1.0
C      1  0.5242930000000  0.5618850000000  0.5257490000000 1.0
C      1  0.4757070000000  0.4381150000000  0.5257490000000 1.0
C      1  0.4835010000000  0.5612790000000  0.4979670000000 1.0
C      1  0.5164990000000  0.4387210000000  0.4979670000000 1.0
C      1  0.4124210000000  0.4888530000000  0.4990910000000 1.0
C      1  0.5875790000000  0.5111470000000  0.4990910000000 1.0
C      1  0.5065340000000  0.4282240000000  0.4729530000000 1.0
C      1  0.4934660000000  0.5717760000000  0.4729530000000 1.0
C      1  0.4236910000000  0.4643700000000  0.5063670000000 1.0
C      1  0.5763090000000  0.5356300000000  0.5063670000000 1.0
C      1  0.4565290000000  0.5512300000000  0.4989730000000 1.0
C      1  0.5434710000000  0.4487700000000  0.4989730000000 1.0
C      1  0.5048620000000  0.4352030000000  0.5246760000000 1.0
C      1  0.4951380000000  0.5647970000000  0.5246760000000 1.0
C      1  0.5445980000000  0.4664880000000  0.5246330000000 1.0
C      1  0.4554020000000  0.5335120000000  0.5246330000000 1.0
C      1  0.5447900000000  0.4931470000000  0.4834570000000 1.0
C      1  0.4552100000000  0.5068530000000  0.4834570000000 1.0
C      1  0.5282790000000  0.5558840000000  0.4503880000000 1.0
C      1  0.4717210000000  0.4441160000000  0.4503880000000 1.0
C      1  0.4504680000000  0.5346110000000  0.4750140000000 1.0
C      1  0.5495320000000  0.4653890000000  0.4750140000000 1.0
C      1  0.4377810000000  0.4932530000000  0.5281710000000 1.0
C      1  0.5622190000000  0.5067470000000  0.5281710000000 1.0
C      1  0.4669600000000  0.4551950000000  0.5473460000000 1.0
C      1  0.5330400000000  0.5448050000000  0.5473460000000 1.0
C      1  0.4897190000000  0.5544890000000  0.4496820000000 1.0
C      1  0.5102810000000  0.4455110000000  0.4496820000000 1.0
END
