TITL C-38196-2854-400 -4.00861541044227e-06 125000 -358.379399887193 0 0 60 (C1) n - 1
REM
REM in /home/bkarasulu/CARBON/AIRSS/Generating-Clusters/EDIP-Nigel-Params/Higher-Symm/Box-15A/Only-C60/SD-CG/FIRE-HFTN
REM
REM
REM
REM
REM
REM ./C.cell (414f73aa93bd7a1190c7fd0f31ff2f98)
REM
REM compiler GCC version 9.2.1 20190827 (Red Hat 9.2.1-1)
REM options -cpp -mtune=generic -march=x86-64 -g -O0 -fpre-include=/usr/include/finclude/math-vector-fortran.h
REM seed -1821044289 966238091 121081924 982165066 -255782405 -1542052080 -591335581 1635591098 794503763 -1768640406 -1094794450 -220161411 1045145504 -1145422448 -1292060008 109171580 960057061 580462098 1452198339 1608492056 -57148965 141915835 1952297681 621363843 -827672068 537160368 -838964886 -372231048 -1666261059 930297712 -1513195265 -1912738015 8949228
REM
CELL 1.54180   50.00000   50.00000   50.00000   90.00000   90.00000   90.00000
LATT -1
SFAC C  
C      1  0.4517450000000  0.4609220000000  0.5547950000000 1.0
C      1  0.4562220000000  0.4882520000000  0.5583890000000 1.0
C      1  0.4847560000000  0.5256570000000  0.5610070000000 1.0
C      1  0.5134060000000  0.5340640000000  0.5616430000000 1.0
C      1  0.5279030000000  0.5135740000000  0.5754640000000 1.0
C      1  0.5311640000000  0.4883710000000  0.5624910000000 1.0
C      1  0.5062360000000  0.4732560000000  0.5625470000000 1.0
C      1  0.4610570000000  0.4846920000000  0.4331220000000 1.0
C      1  0.4728150000000  0.5109510000000  0.4455800000000 1.0
C      1  0.4895820000000  0.5375270000000  0.4362380000000 1.0
C      1  0.5211050000000  0.5349100000000  0.4340720000000 1.0
C      1  0.5344710000000  0.5075780000000  0.4314580000000 1.0
C      1  0.5205420000000  0.4590900000000  0.4360720000000 1.0
C      1  0.4821220000000  0.4624750000000  0.4315340000000 1.0
C      1  0.4686470000000  0.5073470000000  0.4963340000000 1.0
C      1  0.4946340000000  0.5241310000000  0.4988210000000 1.0
C      1  0.5130410000000  0.5171960000000  0.4752960000000 1.0
C      1  0.5350610000000  0.4975540000000  0.4838140000000 1.0
C      1  0.5226400000000  0.4699120000000  0.4826180000000 1.0
C      1  0.4947120000000  0.4735070000000  0.4731520000000 1.0
C      1  0.4786040000000  0.4799950000000  0.4956940000000 1.0
C      1  0.5359600000000  0.4539390000000  0.4606750000000 1.0
C      1  0.4845800000000  0.4478650000000  0.4597440000000 1.0
C      1  0.4385150000000  0.4762380000000  0.4476020000000 1.0
C      1  0.4568100000000  0.5167090000000  0.4705010000000 1.0
C      1  0.4852890000000  0.5567940000000  0.4571020000000 1.0
C      1  0.5262900000000  0.5412230000000  0.4629900000000 1.0
C      1  0.5556870000000  0.5052010000000  0.4520390000000 1.0
C      1  0.5232200000000  0.5353250000000  0.5325470000000 1.0
C      1  0.5505690000000  0.5222790000000  0.5308360000000 1.0
C      1  0.5396770000000  0.4940640000000  0.5343940000000 1.0
C      1  0.4983880000000  0.4567230000000  0.5393340000000 1.0
C      1  0.4694270000000  0.4532820000000  0.5343850000000 1.0
C      1  0.4503520000000  0.5064740000000  0.5367960000000 1.0
C      1  0.4689290000000  0.5279510000000  0.5354020000000 1.0
C      1  0.5206320000000  0.5577720000000  0.5105070000000 1.0
C      1  0.5644100000000  0.5229170000000  0.5043810000000 1.0
C      1  0.5552980000000  0.4755920000000  0.5165680000000 1.0
C      1  0.5140110000000  0.4444020000000  0.5175830000000 1.0
C      1  0.4617220000000  0.4581160000000  0.5049340000000 1.0
C      1  0.4361420000000  0.5024670000000  0.5114450000000 1.0
C      1  0.4603850000000  0.5473380000000  0.5135780000000 1.0
C      1  0.5436680000000  0.4471620000000  0.5114170000000 1.0
C      1  0.4974910000000  0.4280470000000  0.5013170000000 1.0
C      1  0.4348710000000  0.4727080000000  0.4994510000000 1.0
C      1  0.4279320000000  0.5302000000000  0.5015390000000 1.0
C      1  0.4829230000000  0.5650770000000  0.5075890000000 1.0
C      1  0.5480080000000  0.5574560000000  0.4982780000000 1.0
C      1  0.5740340000000  0.4933770000000  0.4988400000000 1.0
C      1  0.4950630000000  0.5651350000000  0.4822940000000 1.0
C      1  0.5530410000000  0.5437970000000  0.4739240000000 1.0
C      1  0.5702190000000  0.4882680000000  0.4700300000000 1.0
C      1  0.5474770000000  0.4385540000000  0.4833150000000 1.0
C      1  0.4740310000000  0.4353530000000  0.4865850000000 1.0
C      1  0.4284750000000  0.4718360000000  0.4722410000000 1.0
C      1  0.4428370000000  0.5401620000000  0.4797050000000 1.0
C      1  0.4803030000000  0.4980990000000  0.5718060000000 1.0
C      1  0.5083120000000  0.5134570000000  0.5211350000000 1.0
C      1  0.4979880000000  0.4981640000000  0.4556020000000 1.0
C      1  0.5122440000000  0.4871760000000  0.4308800000000 1.0
END
