TITL C-38199-1586-110 -1.80414953263955e-07 125000 -367.75627915591 0 0 60 (C2v) n - 1
REM
REM in /home/bkarasulu/CARBON/AIRSS/Generating-Clusters/EDIP-Nigel-Params/Higher-Symm/Box-15A/Only-C60/SD-CG/FIRE-HFTN
REM
REM
REM
REM
REM
REM ./C.cell (414f73aa93bd7a1190c7fd0f31ff2f98)
REM
REM compiler GCC version 9.2.1 20190827 (Red Hat 9.2.1-1)
REM options -cpp -mtune=generic -march=x86-64 -g -O0 -fpre-include=/usr/include/finclude/math-vector-fortran.h
REM seed 835239266 1639229383 2099780173 -504072560 247390364 -1040050438 -797698280 -1167725770 1562692258 722446841 -1849876333 -957562522 -900060237 -935817494 -1299686285 427697487 924732791 1507953335 1787627311 315660103 -1839132707 -1741495967 -487366916 1973984493 -1870209308 255672729 -1515251433 -1563013834 1721213309 1109801991 1322896229 998325652 475702945
REM
CELL 1.54180   50.00000   50.00000   50.00000   90.00000   90.00000   90.00000
LATT -1
SFAC C  
C      1  0.5293330000000  0.5814150000000  0.4986450000000 1.0
C      1  0.4706670000000  0.4185850000000  0.4986450000000 1.0
C      1  0.5293330000000  0.4185850000000  0.4986450000000 1.0
C      1  0.4706670000000  0.5814150000000  0.4986450000000 1.0
C      1  0.5519750000000  0.5551100000000  0.5134730000000 1.0
C      1  0.4480250000000  0.4448900000000  0.5134730000000 1.0
C      1  0.5519750000000  0.4448900000000  0.5134730000000 1.0
C      1  0.4480250000000  0.5551100000000  0.5134730000000 1.0
C      1  0.5278130000000  0.5152280000000  0.5116790000000 1.0
C      1  0.4721870000000  0.4847720000000  0.5116790000000 1.0
C      1  0.5278130000000  0.4847720000000  0.5116790000000 1.0
C      1  0.4721870000000  0.5152280000000  0.5116790000000 1.0
C      1  0.4849920000000  0.4262880000000  0.4746620000000 1.0
C      1  0.5150080000000  0.5737120000000  0.4746620000000 1.0
C      1  0.4849920000000  0.5737120000000  0.4746620000000 1.0
C      1  0.5150080000000  0.4262880000000  0.4746620000000 1.0
C      1  0.4835430000000  0.5291440000000  0.5368780000000 1.0
C      1  0.5164570000000  0.4708560000000  0.5368780000000 1.0
C      1  0.4835430000000  0.4708560000000  0.5368780000000 1.0
C      1  0.5164570000000  0.5291440000000  0.5368780000000 1.0
C      1  0.5159400000000  0.4847790000000  0.4389520000000 1.0
C      1  0.4840600000000  0.5152210000000  0.4389520000000 1.0
C      1  0.5159400000000  0.5152210000000  0.4389520000000 1.0
C      1  0.4840600000000  0.4847790000000  0.4389520000000 1.0
C      1  0.5295530000000  0.4715930000000  0.4628860000000 1.0
C      1  0.4704470000000  0.5284070000000  0.4628860000000 1.0
C      1  0.5295530000000  0.5284070000000  0.4628860000000 1.0
C      1  0.4704470000000  0.4715930000000  0.4628860000000 1.0
C      1  0.4846640000000  0.5778740000000  0.5241030000000 1.0
C      1  0.5153360000000  0.4221260000000  0.5241030000000 1.0
C      1  0.4846640000000  0.4221260000000  0.5241030000000 1.0
C      1  0.5153360000000  0.5778740000000  0.5241030000000 1.0
C      1  0.4743980000000  0.4865860000000  0.5589410000000 1.0
C      1  0.5256020000000  0.5134140000000  0.5589410000000 1.0
C      1  0.4743980000000  0.5134140000000  0.5589410000000 1.0
C      1  0.5256020000000  0.4865860000000  0.5589410000000 1.0
C      1  0.4441270000000  0.5260450000000  0.5047210000000 1.0
C      1  0.5558730000000  0.4739550000000  0.5047210000000 1.0
C      1  0.4441270000000  0.4739550000000  0.5047210000000 1.0
C      1  0.5558730000000  0.5260450000000  0.5047210000000 1.0
C      1  0.5138360000000  0.5240660000000  0.4874900000000 1.0
C      1  0.4861640000000  0.4759340000000  0.4874900000000 1.0
C      1  0.5138360000000  0.4759340000000  0.4874900000000 1.0
C      1  0.4861640000000  0.5240660000000  0.4874900000000 1.0
C      1  0.5301960000000  0.5570180000000  0.4577650000000 1.0
C      1  0.4698040000000  0.4429820000000  0.4577650000000 1.0
C      1  0.5301960000000  0.4429820000000  0.4577650000000 1.0
C      1  0.4698040000000  0.5570180000000  0.4577650000000 1.0
C      1  0.5310890000000  0.5557650000000  0.5351940000000 1.0
C      1  0.4689110000000  0.4442350000000  0.5351940000000 1.0
C      1  0.5310890000000  0.4442350000000  0.5351940000000 1.0
C      1  0.4689110000000  0.5557650000000  0.5351940000000 1.0
C      1  0.5759010000000  0.4867100000000  0.5205220000000 1.0
C      1  0.4240990000000  0.5132900000000  0.5205220000000 1.0
C      1  0.5759010000000  0.5132900000000  0.5205220000000 1.0
C      1  0.4240990000000  0.4867100000000  0.5205220000000 1.0
C      1  0.5557200000000  0.5155130000000  0.4740900000000 1.0
C      1  0.4442800000000  0.4844870000000  0.4740900000000 1.0
C      1  0.5557200000000  0.4844870000000  0.4740900000000 1.0
C      1  0.4442800000000  0.5155130000000  0.4740900000000 1.0
END
