TITL C-38189-4514-698 1.66017279400198e-06 125000 -357.727182780778 0 0 60 (T23) n - 1
REM
REM in /home/bkarasulu/CARBON/AIRSS/Generating-Clusters/EDIP-Nigel-Params/Higher-Symm/Box-15A/Only-C60/SD-CG/FIRE-HFTN
REM
REM
REM
REM
REM
REM ./C.cell (414f73aa93bd7a1190c7fd0f31ff2f98)
REM
REM compiler GCC version 9.2.1 20190827 (Red Hat 9.2.1-1)
REM options -cpp -mtune=generic -march=x86-64 -g -O0 -fpre-include=/usr/include/finclude/math-vector-fortran.h
REM seed 575039885 -1420425107 -1729403560 1132844882 -919443287 -377299626 -1956938398 1976396447 -316828076 137054507 1195131822 -152717606 1233090114 -1897555924 -698538685 -394491996 -749960747 -1579034553 -1249848521 -1124879568 -453725032 1805875733 787022560 -1416103097 1173415746 507950180 -1267860271 -1698542608 -1078095452 2078212786 532836058 56843173 1818580081
REM
CELL 1.54180   50.00000   50.00000   50.00000   90.00000   90.00000   90.00000
LATT -1
SFAC C  
C      1  0.4476470000000  0.5527110000000  0.5137400000000 1.0
C      1  0.5137400000000  0.4476470000000  0.5527110000000 1.0
C      1  0.5527110000000  0.5137400000000  0.4476470000000 1.0
C      1  0.5523530000000  0.5527110000000  0.4862600000000 1.0
C      1  0.4476470000000  0.4472890000000  0.4862600000000 1.0
C      1  0.5523530000000  0.4472890000000  0.5137400000000 1.0
C      1  0.4862600000000  0.4476470000000  0.4472890000000 1.0
C      1  0.5137400000000  0.5523530000000  0.4472890000000 1.0
C      1  0.4862600000000  0.5523530000000  0.5527110000000 1.0
C      1  0.4472890000000  0.5137400000000  0.5523530000000 1.0
C      1  0.5527110000000  0.4862600000000  0.5523530000000 1.0
C      1  0.4472890000000  0.4862600000000  0.4476470000000 1.0
C      1  0.4459650000000  0.5176950000000  0.4453870000000 1.0
C      1  0.4453870000000  0.4459650000000  0.5176950000000 1.0
C      1  0.5176950000000  0.4453870000000  0.4459650000000 1.0
C      1  0.5540350000000  0.5176950000000  0.5546130000000 1.0
C      1  0.4459650000000  0.4823050000000  0.5546130000000 1.0
C      1  0.5540350000000  0.4823050000000  0.4453870000000 1.0
C      1  0.5546130000000  0.4459650000000  0.4823050000000 1.0
C      1  0.4453870000000  0.5540350000000  0.4823050000000 1.0
C      1  0.5546130000000  0.5540350000000  0.5176950000000 1.0
C      1  0.4823050000000  0.4453870000000  0.5540350000000 1.0
C      1  0.5176950000000  0.5546130000000  0.5540350000000 1.0
C      1  0.4823050000000  0.5546130000000  0.4459650000000 1.0
C      1  0.5652780000000  0.5300490000000  0.5303470000000 1.0
C      1  0.5303470000000  0.5652780000000  0.5300490000000 1.0
C      1  0.5300490000000  0.5303470000000  0.5652780000000 1.0
C      1  0.4347220000000  0.5300490000000  0.4696530000000 1.0
C      1  0.5652780000000  0.4699510000000  0.4696530000000 1.0
C      1  0.4347220000000  0.4699510000000  0.5303470000000 1.0
C      1  0.4696530000000  0.5652780000000  0.4699510000000 1.0
C      1  0.5303470000000  0.4347220000000  0.4699510000000 1.0
C      1  0.4696530000000  0.4347220000000  0.5300490000000 1.0
C      1  0.4699510000000  0.5303470000000  0.4347220000000 1.0
C      1  0.5300490000000  0.4696530000000  0.4347220000000 1.0
C      1  0.4699510000000  0.4696530000000  0.5652780000000 1.0
C      1  0.5266640000000  0.5252570000000  0.4374800000000 1.0
C      1  0.4374800000000  0.5266640000000  0.5252570000000 1.0
C      1  0.5252570000000  0.4374800000000  0.5266640000000 1.0
C      1  0.4733360000000  0.5252570000000  0.5625200000000 1.0
C      1  0.5266640000000  0.4747430000000  0.5625200000000 1.0
C      1  0.4733360000000  0.4747430000000  0.4374800000000 1.0
C      1  0.5625200000000  0.5266640000000  0.4747430000000 1.0
C      1  0.4374800000000  0.4733360000000  0.4747430000000 1.0
C      1  0.5625200000000  0.4733360000000  0.5252570000000 1.0
C      1  0.4747430000000  0.4374800000000  0.4733360000000 1.0
C      1  0.5252570000000  0.5625200000000  0.4733360000000 1.0
C      1  0.4747430000000  0.5625200000000  0.5266640000000 1.0
C      1  0.4989170000000  0.4851250000000  0.4484100000000 1.0
C      1  0.4484100000000  0.4989170000000  0.4851250000000 1.0
C      1  0.4851250000000  0.4484100000000  0.4989170000000 1.0
C      1  0.5010830000000  0.4851250000000  0.5515900000000 1.0
C      1  0.4989170000000  0.5148750000000  0.5515900000000 1.0
C      1  0.5010830000000  0.5148750000000  0.4484100000000 1.0
C      1  0.5515900000000  0.4989170000000  0.5148750000000 1.0
C      1  0.4484100000000  0.5010830000000  0.5148750000000 1.0
C      1  0.5515900000000  0.5010830000000  0.4851250000000 1.0
C      1  0.5148750000000  0.4484100000000  0.5010830000000 1.0
C      1  0.4851250000000  0.5515900000000  0.5010830000000 1.0
C      1  0.5148750000000  0.5515900000000  0.4989170000000 1.0
END
