TITL C-38196-2854-432 8.63709914512118e-06 125000 -362.974295789732 0 0 60 (C1) n - 1
REM
REM in /home/bkarasulu/CARBON/AIRSS/Generating-Clusters/EDIP-Nigel-Params/Higher-Symm/Box-15A/Only-C60/SD-CG/FIRE-HFTN
REM
REM
REM
REM
REM
REM ./C.cell (414f73aa93bd7a1190c7fd0f31ff2f98)
REM
REM compiler GCC version 9.2.1 20190827 (Red Hat 9.2.1-1)
REM options -cpp -mtune=generic -march=x86-64 -g -O0 -fpre-include=/usr/include/finclude/math-vector-fortran.h
REM seed 1035098771 -1179320725 -797722043 -1015338175 -929482688 -14211674 -1458234508 -1422915972 1805585877 1270271782 -743210519 954191260 -1641041811 1815842795 1025363237 2072952035 -644608628 948413355 -1315053819 498618691 -1796403600 1698035254 -2099743665 1512883913 -961468278 769577026 1274205875 850819383 -208761885 -9416993 1916524413 -795419410 -2069818971
REM
CELL 1.54180   50.00000   50.00000   50.00000   90.00000   90.00000   90.00000
LATT -1
SFAC C  
C      1  0.5783010000000  0.5235710000000  0.4703240000000 1.0
C      1  0.5497790000000  0.4466570000000  0.4791340000000 1.0
C      1  0.5137000000000  0.4169460000000  0.4722160000000 1.0
C      1  0.4352350000000  0.4635700000000  0.4767300000000 1.0
C      1  0.4275210000000  0.5246830000000  0.4678340000000 1.0
C      1  0.4723040000000  0.5626950000000  0.4655320000000 1.0
C      1  0.5418650000000  0.5574650000000  0.4759770000000 1.0
C      1  0.4575530000000  0.4682320000000  0.5223120000000 1.0
C      1  0.4433730000000  0.5130610000000  0.5342410000000 1.0
C      1  0.4720490000000  0.5486510000000  0.5148150000000 1.0
C      1  0.5333550000000  0.5522640000000  0.5259230000000 1.0
C      1  0.5640650000000  0.5155180000000  0.5286820000000 1.0
C      1  0.5431070000000  0.4645690000000  0.5255730000000 1.0
C      1  0.5000850000000  0.4423950000000  0.5272840000000 1.0
C      1  0.4987710000000  0.5194580000000  0.5557780000000 1.0
C      1  0.5266880000000  0.5169640000000  0.5632450000000 1.0
C      1  0.5309630000000  0.4908580000000  0.5734500000000 1.0
C      1  0.5157850000000  0.4679760000000  0.5674990000000 1.0
C      1  0.4891400000000  0.4682720000000  0.5763330000000 1.0
C      1  0.4705000000000  0.4881140000000  0.5692960000000 1.0
C      1  0.4806380000000  0.5134490000000  0.5772290000000 1.0
C      1  0.4244450000000  0.5503730000000  0.5104960000000 1.0
C      1  0.5014350000000  0.5759810000000  0.4968880000000 1.0
C      1  0.5742960000000  0.5346500000000  0.5074230000000 1.0
C      1  0.5790420000000  0.4825340000000  0.4960760000000 1.0
C      1  0.5173800000000  0.4251100000000  0.5100150000000 1.0
C      1  0.4689760000000  0.4322720000000  0.4907410000000 1.0
C      1  0.4266800000000  0.5031570000000  0.5120900000000 1.0
C      1  0.4788070000000  0.5176420000000  0.4554120000000 1.0
C      1  0.5031280000000  0.5289180000000  0.4689600000000 1.0
C      1  0.5264710000000  0.5128460000000  0.4653740000000 1.0
C      1  0.5247720000000  0.4881260000000  0.4814690000000 1.0
C      1  0.5074200000000  0.4669070000000  0.4692760000000 1.0
C      1  0.4797770000000  0.4718940000000  0.4576340000000 1.0
C      1  0.4654110000000  0.4956080000000  0.4701740000000 1.0
C      1  0.4656950000000  0.4914820000000  0.5392180000000 1.0
C      1  0.4466260000000  0.5419340000000  0.5265790000000 1.0
C      1  0.5064340000000  0.5622380000000  0.5220610000000 1.0
C      1  0.5393680000000  0.5265070000000  0.5387480000000 1.0
C      1  0.5621890000000  0.4872380000000  0.5194150000000 1.0
C      1  0.5154590000000  0.4660660000000  0.5380180000000 1.0
C      1  0.4769640000000  0.4501930000000  0.5122110000000 1.0
C      1  0.4372310000000  0.4981380000000  0.4622180000000 1.0
C      1  0.4588340000000  0.5399770000000  0.4542910000000 1.0
C      1  0.5106020000000  0.5591020000000  0.4722110000000 1.0
C      1  0.5499080000000  0.5294420000000  0.4709330000000 1.0
C      1  0.5581930000000  0.4745660000000  0.4770720000000 1.0
C      1  0.5239120000000  0.4427270000000  0.4644540000000 1.0
C      1  0.4585880000000  0.4479920000000  0.4668730000000 1.0
C      1  0.4396960000000  0.4785370000000  0.5019330000000 1.0
C      1  0.4187940000000  0.5267380000000  0.4956350000000 1.0
C      1  0.4732150000000  0.5694080000000  0.4936020000000 1.0
C      1  0.5534930000000  0.5578130000000  0.5046410000000 1.0
C      1  0.5924920000000  0.5068960000000  0.4880010000000 1.0
C      1  0.5434430000000  0.4404160000000  0.5078560000000 1.0
C      1  0.4896660000000  0.4126330000000  0.4857280000000 1.0
C      1  0.4953930000000  0.4992690000000  0.5320440000000 1.0
C      1  0.5117450000000  0.4961690000000  0.5070940000000 1.0
C      1  0.4854410000000  0.5003010000000  0.4314450000000 1.0
C      1  0.4730760000000  0.5022600000000  0.4083680000000 1.0
END
