TITL C-38186-4112-191 6.93551881682657e-05 125000 -355.749502935217 0 0 60 (C1) n - 1
REM
REM in /home/bkarasulu/CARBON/AIRSS/Generating-Clusters/EDIP-Nigel-Params/Higher-Symm/Box-15A/Only-C60/SD-CG/FIRE-HFTN
REM
REM
REM
REM
REM
REM ./C.cell (414f73aa93bd7a1190c7fd0f31ff2f98)
REM
REM compiler GCC version 9.2.1 20190827 (Red Hat 9.2.1-1)
REM options -cpp -mtune=generic -march=x86-64 -g -O0 -fpre-include=/usr/include/finclude/math-vector-fortran.h
REM seed -446327377 1251641009 817784351 -531126470 -229981178 -1197154916 1794371103 -24453936 1542216562 -848560142 122448093 1921472450 -1466831020 -738412647 -1079359157 -520808691 -358598237 -260120165 1880397475 -1157001248 1597668135 1544461054 1205861105 683527435 815549469 1081140335 2104895388 -1479793101 281018808 -1529628105 -167807884 -792283369 1697022667
REM
CELL 1.54180   50.00000   50.00000   50.00000   90.00000   90.00000   90.00000
LATT -1
SFAC C  
C      1  0.4859480000000  0.5514100000000  0.4681370000000 1.0
C      1  0.5156390000000  0.4376530000000  0.4660400000000 1.0
C      1  0.4939010000000  0.5729690000000  0.4852810000000 1.0
C      1  0.4693240000000  0.4712810000000  0.4965360000000 1.0
C      1  0.5104400000000  0.4623690000000  0.5550150000000 1.0
C      1  0.4496720000000  0.4997220000000  0.5348210000000 1.0
C      1  0.5306500000000  0.5079340000000  0.5337220000000 1.0
C      1  0.5189620000000  0.4508920000000  0.4412910000000 1.0
C      1  0.4269070000000  0.4808980000000  0.5349690000000 1.0
C      1  0.4905280000000  0.5845010000000  0.5224040000000 1.0
C      1  0.4534670000000  0.5170500000000  0.5558860000000 1.0
C      1  0.4767730000000  0.4981440000000  0.4527580000000 1.0
C      1  0.5405390000000  0.4695560000000  0.4432770000000 1.0
C      1  0.4957650000000  0.5083810000000  0.4339300000000 1.0
C      1  0.5085060000000  0.5315990000000  0.4669010000000 1.0
C      1  0.5712120000000  0.4846700000000  0.4820220000000 1.0
C      1  0.5762960000000  0.4896090000000  0.5334060000000 1.0
C      1  0.4879620000000  0.4889420000000  0.4789600000000 1.0
C      1  0.4402290000000  0.4755850000000  0.4885690000000 1.0
C      1  0.4147180000000  0.5559000000000  0.4899020000000 1.0
C      1  0.5297520000000  0.4699290000000  0.5021370000000 1.0
C      1  0.4217540000000  0.4715960000000  0.5092660000000 1.0
C      1  0.5047950000000  0.5556870000000  0.5737680000000 1.0
C      1  0.4320430000000  0.5756450000000  0.4959880000000 1.0
C      1  0.4788310000000  0.5615820000000  0.5665790000000 1.0
C      1  0.5184630000000  0.5008890000000  0.4207660000000 1.0
C      1  0.5367450000000  0.5369440000000  0.5373330000000 1.0
C      1  0.4352950000000  0.4973110000000  0.4717600000000 1.0
C      1  0.5214580000000  0.4252260000000  0.5089480000000 1.0
C      1  0.5381050000000  0.4651870000000  0.5567550000000 1.0
C      1  0.4949920000000  0.4503450000000  0.4262590000000 1.0
C      1  0.4592700000000  0.5401300000000  0.4722900000000 1.0
C      1  0.5570700000000  0.5105240000000  0.4933400000000 1.0
C      1  0.5286100000000  0.5365440000000  0.4449160000000 1.0
C      1  0.4754110000000  0.4415160000000  0.4435840000000 1.0
C      1  0.4986630000000  0.4366330000000  0.5541890000000 1.0
C      1  0.4872000000000  0.4326330000000  0.4679420000000 1.0
C      1  0.5765470000000  0.5127650000000  0.5157970000000 1.0
C      1  0.4962320000000  0.4811500000000  0.5400540000000 1.0
C      1  0.5562460000000  0.4652290000000  0.4670620000000 1.0
C      1  0.5808630000000  0.4747930000000  0.5079520000000 1.0
C      1  0.5496350000000  0.4896210000000  0.5483820000000 1.0
C      1  0.5052980000000  0.5640530000000  0.5095420000000 1.0
C      1  0.5331110000000  0.4437020000000  0.4898730000000 1.0
C      1  0.5321370000000  0.5521160000000  0.5123600000000 1.0
C      1  0.5429090000000  0.4894590000000  0.4238260000000 1.0
C      1  0.5460620000000  0.5397290000000  0.4892090000000 1.0
C      1  0.4556280000000  0.4563070000000  0.5407770000000 1.0
C      1  0.4704430000000  0.4785040000000  0.5273120000000 1.0
C      1  0.4376820000000  0.5591930000000  0.4735600000000 1.0
C      1  0.4937430000000  0.4289860000000  0.5164940000000 1.0
C      1  0.4613140000000  0.5403280000000  0.5660290000000 1.0
C      1  0.4714110000000  0.4335370000000  0.5472570000000 1.0
C      1  0.4769290000000  0.4411820000000  0.4944100000000 1.0
C      1  0.5075860000000  0.5086880000000  0.4876460000000 1.0
C      1  0.4771990000000  0.5797510000000  0.5458280000000 1.0
C      1  0.5269240000000  0.5489670000000  0.5604500000000 1.0
C      1  0.5307220000000  0.4988980000000  0.5043150000000 1.0
C      1  0.4528660000000  0.5147310000000  0.4586800000000 1.0
C      1  0.5426160000000  0.5509270000000  0.4635340000000 1.0
END
