TITL C-38184-643-651 -3.0430242160346e-06 125000 -345.015840363053 0 0 60 (C6) n - 1
REM
REM in /home/bkarasulu/CARBON/AIRSS/Generating-Clusters/EDIP-Nigel-Params/Higher-Symm/Box-15A/Only-C60/SD-CG/FIRE-HFTN
REM
REM
REM
REM
REM
REM ./C.cell (414f73aa93bd7a1190c7fd0f31ff2f98)
REM
REM compiler GCC version 9.2.1 20190827 (Red Hat 9.2.1-1)
REM options -cpp -mtune=generic -march=x86-64 -g -O0 -fpre-include=/usr/include/finclude/math-vector-fortran.h
REM seed -124351471 1567469158 286289485 -242790197 -754996383 -2091730551 1694472739 1089640778 244314135 -287539638 -1334821879 -2112663429 -1090114868 -1472479769 -1764127051 915559830 282389184 1293700269 -1575741883 -938469362 -834858716 -1579391404 1290928775 -1493908288 1472314244 1306170795 436056702 -948958145 -419344158 1238320262 1436839343 -1799004625 -1923371519
REM
CELL 1.54180   50.00000   50.00000   50.00000   90.00000   90.00000   90.00000
LATT -1
SFAC C  
C      1  0.5287320000000  0.4153590000000  0.5044120000000 1.0
C      1  0.5105450000000  0.4153590000000  0.5270890000000 1.0
C      1  0.4818130000000  0.4153590000000  0.5226770000000 1.0
C      1  0.4712680000000  0.4153590000000  0.4955880000000 1.0
C      1  0.4894550000000  0.4153590000000  0.4729110000000 1.0
C      1  0.5181870000000  0.4153590000000  0.4773230000000 1.0
C      1  0.4712680000000  0.5846410000000  0.5044120000000 1.0
C      1  0.4894550000000  0.5846410000000  0.5270890000000 1.0
C      1  0.5181870000000  0.5846410000000  0.5226770000000 1.0
C      1  0.5287320000000  0.5846410000000  0.4955880000000 1.0
C      1  0.5105450000000  0.5846410000000  0.4729110000000 1.0
C      1  0.4818130000000  0.5846410000000  0.4773230000000 1.0
C      1  0.5355070000000  0.4790190000000  0.4532910000000 1.0
C      1  0.5582040000000  0.4790190000000  0.5073950000000 1.0
C      1  0.5226980000000  0.4790190000000  0.5541040000000 1.0
C      1  0.4644930000000  0.4790190000000  0.5467090000000 1.0
C      1  0.4417960000000  0.4790190000000  0.4926050000000 1.0
C      1  0.4773020000000  0.4790190000000  0.4458960000000 1.0
C      1  0.4644930000000  0.5209810000000  0.4532910000000 1.0
C      1  0.4417960000000  0.5209810000000  0.5073950000000 1.0
C      1  0.4773020000000  0.5209810000000  0.5541040000000 1.0
C      1  0.5355070000000  0.5209810000000  0.5467090000000 1.0
C      1  0.5582040000000  0.5209810000000  0.4926050000000 1.0
C      1  0.5226980000000  0.5209810000000  0.4458960000000 1.0
C      1  0.4333750000000  0.4916670000000  0.5183900000000 1.0
C      1  0.4507610000000  0.4916670000000  0.4514960000000 1.0
C      1  0.5173860000000  0.4916670000000  0.4331060000000 1.0
C      1  0.5666250000000  0.4916670000000  0.4816100000000 1.0
C      1  0.5492390000000  0.4916670000000  0.5485040000000 1.0
C      1  0.4826140000000  0.4916670000000  0.5668940000000 1.0
C      1  0.5666250000000  0.5083330000000  0.5183900000000 1.0
C      1  0.5492390000000  0.5083330000000  0.4514960000000 1.0
C      1  0.4826140000000  0.5083330000000  0.4331060000000 1.0
C      1  0.4333750000000  0.5083330000000  0.4816100000000 1.0
C      1  0.4507610000000  0.5083330000000  0.5485040000000 1.0
C      1  0.5173860000000  0.5083330000000  0.5668940000000 1.0
C      1  0.5313620000000  0.4339200000000  0.4608990000000 1.0
C      1  0.5495440000000  0.4339200000000  0.5076090000000 1.0
C      1  0.5181820000000  0.4339200000000  0.5467110000000 1.0
C      1  0.4686380000000  0.4339200000000  0.5391010000000 1.0
C      1  0.4504560000000  0.4339200000000  0.4923910000000 1.0
C      1  0.4818180000000  0.4339200000000  0.4532890000000 1.0
C      1  0.4686380000000  0.5660800000000  0.4608990000000 1.0
C      1  0.4504560000000  0.5660800000000  0.5076090000000 1.0
C      1  0.4818180000000  0.5660800000000  0.5467110000000 1.0
C      1  0.5313620000000  0.5660800000000  0.5391010000000 1.0
C      1  0.5495440000000  0.5660800000000  0.4923910000000 1.0
C      1  0.5181820000000  0.5660800000000  0.4532890000000 1.0
C      1  0.4872140000000  0.4593670000000  0.4675360000000 1.0
C      1  0.5217220000000  0.4593670000000  0.4726950000000 1.0
C      1  0.5345070000000  0.4593670000000  0.5051590000000 1.0
C      1  0.5127860000000  0.4593670000000  0.5324640000000 1.0
C      1  0.4782780000000  0.4593670000000  0.5273050000000 1.0
C      1  0.4654930000000  0.4593670000000  0.4948410000000 1.0
C      1  0.5127860000000  0.5406330000000  0.4675360000000 1.0
C      1  0.4782780000000  0.5406330000000  0.4726950000000 1.0
C      1  0.4654930000000  0.5406330000000  0.5051590000000 1.0
C      1  0.4872140000000  0.5406330000000  0.5324640000000 1.0
C      1  0.5217220000000  0.5406330000000  0.5273050000000 1.0
C      1  0.5345070000000  0.5406330000000  0.4948410000000 1.0
END
