TITL C-38191-7580-301 9.30852110243108e-06 125000 -353.628193055406 0 0 60 (C3) n - 1
REM
REM in /home/bkarasulu/CARBON/AIRSS/Generating-Clusters/EDIP-Nigel-Params/Higher-Symm/Box-15A/Only-C60/SD-CG/FIRE-HFTN
REM
REM
REM
REM
REM
REM ./C.cell (414f73aa93bd7a1190c7fd0f31ff2f98)
REM
REM compiler GCC version 9.2.1 20190827 (Red Hat 9.2.1-1)
REM options -cpp -mtune=generic -march=x86-64 -g -O0 -fpre-include=/usr/include/finclude/math-vector-fortran.h
REM seed 970855803 133544660 -327004124 -1397326781 788345869 434319912 166769387 522669749 395126529 -1998303850 1170882184 -853064471 -476054543 95732828 -1628568694 1243701698 -116482668 -1253387309 -1791706301 -173582524 25460002 -2096978560 -1843687727 -1640691160 -868490749 -1261978376 1380431771 -63348479 1128493464 -20145731 889838729 1431560323 66424077
REM
CELL 1.54180   50.00000   50.00000   50.00000   90.00000   90.00000   90.00000
LATT -1
SFAC C  
C      1  0.5187470000000  0.5662600000000  0.4682930000000 1.0
C      1  0.5480100000000  0.4506340000000  0.4682930000000 1.0
C      1  0.4332430000000  0.4831050000000  0.4682930000000 1.0
C      1  0.4490150000000  0.5045100000000  0.5488490000000 1.0
C      1  0.5293980000000  0.5418990000000  0.5488490000000 1.0
C      1  0.5215860000000  0.4535910000000  0.5488500000000 1.0
C      1  0.4870850000000  0.4743250000000  0.4997270000000 1.0
C      1  0.4842220000000  0.5240220000000  0.4997270000000 1.0
C      1  0.5286930000000  0.5016530000000  0.4997270000000 1.0
C      1  0.4683320000000  0.4840720000000  0.5554700000000 1.0
C      1  0.5020400000000  0.5353900000000  0.5554700000000 1.0
C      1  0.5296280000000  0.4805390000000  0.5554700000000 1.0
C      1  0.4776210000000  0.5611040000000  0.5224330000000 1.0
C      1  0.5641070000000  0.4888290000000  0.5224330000000 1.0
C      1  0.4582720000000  0.4500670000000  0.5224330000000 1.0
C      1  0.4801460000000  0.5455790000000  0.4481850000000 1.0
C      1  0.5494000000000  0.4944040000000  0.4481850000000 1.0
C      1  0.4704540000000  0.4600150000000  0.4481850000000 1.0
C      1  0.4769930000000  0.5498130000000  0.5499040000000 1.0
C      1  0.5546430000000  0.4950190000000  0.5499040000000 1.0
C      1  0.4683640000000  0.4551690000000  0.5499050000000 1.0
C      1  0.4157440000000  0.5042700000000  0.4783180000000 1.0
C      1  0.5458260000000  0.5708320000000  0.4783180000000 1.0
C      1  0.5384300000000  0.4248970000000  0.4783190000000 1.0
C      1  0.4845280000000  0.5163240000000  0.4559380000000 1.0
C      1  0.5218730000000  0.5052370000000  0.4559380000000 1.0
C      1  0.4935990000000  0.4784380000000  0.4559380000000 1.0
C      1  0.5542320000000  0.4660670000000  0.4450510000000 1.0
C      1  0.4434980000000  0.4700000000000  0.4450510000000 1.0
C      1  0.5022710000000  0.5639320000000  0.4450510000000 1.0
C      1  0.5270810000000  0.5225300000000  0.4803870000000 1.0
C      1  0.5059710000000  0.4652820000000  0.4803870000000 1.0
C      1  0.4669480000000  0.5121880000000  0.4803870000000 1.0
C      1  0.5185520000000  0.5049050000000  0.5279610000000 1.0
C      1  0.4949720000000  0.4814810000000  0.5279610000000 1.0
C      1  0.4864760000000  0.5136140000000  0.5279610000000 1.0
C      1  0.4351950000000  0.4980950000000  0.5237750000000 1.0
C      1  0.5307520000000  0.5570750000000  0.5237750000000 1.0
C      1  0.5340520000000  0.4448300000000  0.5237750000000 1.0
C      1  0.5510460000000  0.4648180000000  0.5101420000000 1.0
C      1  0.4440080000000  0.4733840000000  0.5101410000000 1.0
C      1  0.5049460000000  0.5617990000000  0.5101410000000 1.0
C      1  0.4702710000000  0.5652880000000  0.4675610000000 1.0
C      1  0.5714060000000  0.4931010000000  0.4675620000000 1.0
C      1  0.4583230000000  0.4416100000000  0.4675620000000 1.0
C      1  0.5549110000000  0.5333930000000  0.4831710000000 1.0
C      1  0.5014640000000  0.4357490000000  0.4831720000000 1.0
C      1  0.4436250000000  0.5308580000000  0.4831710000000 1.0
C      1  0.5493900000000  0.5225870000000  0.5535520000000 1.0
C      1  0.4948660000000  0.4459340000000  0.5535530000000 1.0
C      1  0.4557440000000  0.5314800000000  0.5535520000000 1.0
C      1  0.5052520000000  0.5444830000000  0.4850670000000 1.0
C      1  0.5358970000000  0.4732100000000  0.4850680000000 1.0
C      1  0.4588500000000  0.4823070000000  0.4850680000000 1.0
C      1  0.4565820000000  0.5573390000000  0.4920640000000 1.0
C      1  0.5713660000000  0.5089320000000  0.4920640000000 1.0
C      1  0.4720520000000  0.4337300000000  0.4920650000000 1.0
C      1  0.5538920000000  0.5575590000000  0.5041490000000 1.0
C      1  0.5229020000000  0.4245490000000  0.5041490000000 1.0
C      1  0.4232070000000  0.5178920000000  0.5041490000000 1.0
END
