TITL C-38198-1686-151 2.62185059169785e-06 125000 -373.362189627762 0 0 60 (C5) n - 1
REM
REM in /home/bkarasulu/CARBON/AIRSS/Generating-Clusters/EDIP-Nigel-Params/Higher-Symm/Box-15A/Only-C60/SD-CG/FIRE-HFTN
REM
REM
REM
REM
REM
REM ./C.cell (414f73aa93bd7a1190c7fd0f31ff2f98)
REM
REM compiler GCC version 9.2.1 20190827 (Red Hat 9.2.1-1)
REM options -cpp -mtune=generic -march=x86-64 -g -O0 -fpre-include=/usr/include/finclude/math-vector-fortran.h
REM seed -118140469 -412415676 -1230756022 601382525 -1571722539 -1251112426 -1171996225 1438111918 155135990 -402761074 574356956 933264197 -1352558027 -595311228 505827170 240457438 1461516453 37403396 -1817894001 952020233 -2121518814 -1882653132 218240248 -682595306 -1928282707 -106691562 1266183020 -896627913 -1845657867 203292744 774718343 -48161640 239426097
REM
CELL 1.54180   50.00000   50.00000   50.00000   90.00000   90.00000   90.00000
LATT -1
SFAC C  
C      1  0.4461790000000  0.5587090000000  0.4972270000000 1.0
C      1  0.4807320000000  0.5587080000000  0.5503300000000 1.0
C      1  0.5419140000000  0.5587070000000  0.5338780000000 1.0
C      1  0.5451740000000  0.5587060000000  0.4706070000000 1.0
C      1  0.4860060000000  0.5587070000000  0.4479550000000 1.0
C      1  0.5538470000000  0.5588230000000  0.4977500000000 1.0
C      1  0.5187800000000  0.5588250000000  0.5505150000000 1.0
C      1  0.4577610000000  0.5588260000000  0.5334690000000 1.0
C      1  0.4551170000000  0.5588250000000  0.4701700000000 1.0
C      1  0.5145010000000  0.5588240000000  0.4480940000000 1.0
C      1  0.5604100000000  0.5100730000000  0.4651800000000 1.0
C      1  0.4855520000000  0.5100740000000  0.4317870000000 1.0
C      1  0.4306610000000  0.5100760000000  0.4926620000000 1.0
C      1  0.4715940000000  0.5100750000000  0.5636780000000 1.0
C      1  0.5517830000000  0.5100740000000  0.5466930000000 1.0
C      1  0.4404040000000  0.5104470000000  0.4650310000000 1.0
C      1  0.5148410000000  0.5104450000000  0.4325140000000 1.0
C      1  0.5687690000000  0.5104440000000  0.4932610000000 1.0
C      1  0.5276600000000  0.5104460000000  0.5633200000000 1.0
C      1  0.4483260000000  0.5104470000000  0.5458730000000 1.0
C      1  0.4328920000000  0.4867130000000  0.5377420000000 1.0
C      1  0.5151570000000  0.4867120000000  0.5754870000000 1.0
C      1  0.5764760000000  0.4867100000000  0.5089110000000 1.0
C      1  0.5321070000000  0.4867100000000  0.4300210000000 1.0
C      1  0.4433670000000  0.4867120000000  0.4478400000000 1.0
C      1  0.5656400000000  0.4857150000000  0.5367890000000 1.0
C      1  0.4852950000000  0.4857170000000  0.5737960000000 1.0
C      1  0.4252720000000  0.4857180000000  0.5088200000000 1.0
C      1  0.4685200000000  0.4857160000000  0.4316550000000 1.0
C      1  0.5552720000000  0.4857150000000  0.4489410000000 1.0
C      1  0.4853880000000  0.4448040000000  0.4555730000000 1.0
C      1  0.4532310000000  0.4448050000000  0.5001680000000 1.0
C      1  0.4857060000000  0.4448050000000  0.5445310000000 1.0
C      1  0.5379330000000  0.4448030000000  0.5273550000000 1.0
C      1  0.5377370000000  0.4448030000000  0.4723760000000 1.0
C      1  0.5136000000000  0.4529830000000  0.4580310000000 1.0
C      1  0.5441170000000  0.4529820000000  0.4999670000000 1.0
C      1  0.5136650000000  0.4529830000000  0.5419490000000 1.0
C      1  0.4643270000000  0.4529840000000  0.5259600000000 1.0
C      1  0.4642870000000  0.4529840000000  0.4740960000000 1.0
C      1  0.4720660000000  0.5357940000000  0.4362780000000 1.0
C      1  0.4307660000000  0.5357960000000  0.5068760000000 1.0
C      1  0.4851460000000  0.5357950000000  0.5679710000000 1.0
C      1  0.5600540000000  0.5357930000000  0.5351320000000 1.0
C      1  0.5519710000000  0.5357930000000  0.4537420000000 1.0
C      1  0.5284560000000  0.5359830000000  0.4364060000000 1.0
C      1  0.5692760000000  0.5359830000000  0.5074110000000 1.0
C      1  0.5143590000000  0.5359850000000  0.5681740000000 1.0
C      1  0.4396000000000  0.5359860000000  0.5347230000000 1.0
C      1  0.4483120000000  0.5359850000000  0.4532850000000 1.0
C      1  0.4743600000000  0.4586700000000  0.5686630000000 1.0
C      1  0.5573780000000  0.4586690000000  0.5456020000000 1.0
C      1  0.5611000000000  0.4586680000000  0.4595220000000 1.0
C      1  0.4803830000000  0.4586690000000  0.4293810000000 1.0
C      1  0.4267750000000  0.4586710000000  0.4968340000000 1.0
C      1  0.5261320000000  0.4612850000000  0.5668530000000 1.0
C      1  0.4444940000000  0.4612870000000  0.5455120000000 1.0
C      1  0.4395630000000  0.4612860000000  0.4612760000000 1.0
C      1  0.5181530000000  0.4612840000000  0.4305550000000 1.0
C      1  0.5716550000000  0.4612840000000  0.4958050000000 1.0
END
