TITL C-38184-643-590 -5.2887556304434e-06 125000 -374.809413567498 0 0 60 (C1) n - 1
REM
REM in /home/bkarasulu/CARBON/AIRSS/Generating-Clusters/EDIP-Nigel-Params/Higher-Symm/Box-15A/Only-C60/SD-CG/FIRE-HFTN
REM
REM
REM
REM
REM
REM ./C.cell (414f73aa93bd7a1190c7fd0f31ff2f98)
REM
REM compiler GCC version 9.2.1 20190827 (Red Hat 9.2.1-1)
REM options -cpp -mtune=generic -march=x86-64 -g -O0 -fpre-include=/usr/include/finclude/math-vector-fortran.h
REM seed 960953878 -1231248059 311780 -2120848533 -1079062416 -386500874 -543322605 -1632573849 -320605469 811913957 -1537172195 -417592968 -1678144680 2143219055 56751864 -1148455413 -939806969 892358364 -1310711203 -788217109 -1243386039 487570385 180584943 -1877323925 1981420791 -1576623840 560041801 946721199 -1241309676 -89768537 -215724456 982347426 1677095275
REM
CELL 1.54180   50.00000   50.00000   50.00000   90.00000   90.00000   90.00000
LATT -1
SFAC C  
C      1  0.4599150000000  0.4680560000000  0.4690510000000 1.0
C      1  0.4510600000000  0.4637800000000  0.4967320000000 1.0
C      1  0.4541590000000  0.4925190000000  0.5412850000000 1.0
C      1  0.4577860000000  0.5218380000000  0.5441570000000 1.0
C      1  0.4532760000000  0.5355150000000  0.5188750000000 1.0
C      1  0.4528850000000  0.5223070000000  0.4716410000000 1.0
C      1  0.4635850000000  0.4967250000000  0.4579740000000 1.0
C      1  0.4758380000000  0.5424850000000  0.4753940000000 1.0
C      1  0.4772860000000  0.5015000000000  0.4312050000000 1.0
C      1  0.4741220000000  0.4467140000000  0.4551730000000 1.0
C      1  0.4607250000000  0.4399330000000  0.5134980000000 1.0
C      1  0.4771020000000  0.4758920000000  0.5488420000000 1.0
C      1  0.4758460000000  0.5325720000000  0.5642590000000 1.0
C      1  0.4584360000000  0.5641910000000  0.5157120000000 1.0
C      1  0.5219940000000  0.4475380000000  0.5232490000000 1.0
C      1  0.5256650000000  0.4855960000000  0.5605710000000 1.0
C      1  0.5234480000000  0.5345350000000  0.5442980000000 1.0
C      1  0.5228540000000  0.5580270000000  0.5006460000000 1.0
C      1  0.5213220000000  0.5351930000000  0.4594630000000 1.0
C      1  0.5213870000000  0.4888320000000  0.4443070000000 1.0
C      1  0.5257720000000  0.4483970000000  0.4745580000000 1.0
C      1  0.5409130000000  0.5122450000000  0.5565400000000 1.0
C      1  0.5383870000000  0.5470640000000  0.5222390000000 1.0
C      1  0.5380800000000  0.5542500000000  0.4753770000000 1.0
C      1  0.5375880000000  0.5154850000000  0.4428390000000 1.0
C      1  0.5393730000000  0.4689370000000  0.4581090000000 1.0
C      1  0.5408180000000  0.4435640000000  0.4998000000000 1.0
C      1  0.5380450000000  0.4612980000000  0.5459220000000 1.0
C      1  0.4938500000000  0.5439780000000  0.4504240000000 1.0
C      1  0.4978590000000  0.4808210000000  0.4249880000000 1.0
C      1  0.4913870000000  0.4303350000000  0.4728160000000 1.0
C      1  0.4962450000000  0.4284070000000  0.5269600000000 1.0
C      1  0.4960860000000  0.4864730000000  0.5689050000000 1.0
C      1  0.4927840000000  0.5538500000000  0.5531900000000 1.0
C      1  0.4993900000000  0.5765450000000  0.5047230000000 1.0
C      1  0.4996510000000  0.5176300000000  0.5305240000000 1.0
C      1  0.4916680000000  0.5267500000000  0.4980490000000 1.0
C      1  0.5135970000000  0.5156020000000  0.4814890000000 1.0
C      1  0.5011970000000  0.4925590000000  0.4672610000000 1.0
C      1  0.5016520000000  0.4664640000000  0.4833690000000 1.0
C      1  0.5028440000000  0.4700140000000  0.5136180000000 1.0
C      1  0.5193960000000  0.4936370000000  0.5231540000000 1.0
C      1  0.5609410000000  0.4653590000000  0.5018310000000 1.0
C      1  0.5594310000000  0.4758140000000  0.5300640000000 1.0
C      1  0.5609080000000  0.5056880000000  0.5354170000000 1.0
C      1  0.5553800000000  0.5257000000000  0.5102440000000 1.0
C      1  0.5622730000000  0.5362910000000  0.4808730000000 1.0
C      1  0.5616000000000  0.5127830000000  0.4616140000000 1.0
C      1  0.5547010000000  0.4854300000000  0.4786400000000 1.0
C      1  0.4828400000000  0.5732240000000  0.5323700000000 1.0
C      1  0.4723660000000  0.5697270000000  0.4893380000000 1.0
C      1  0.4855510000000  0.5281560000000  0.4291000000000 1.0
C      1  0.4865990000000  0.4559220000000  0.4317550000000 1.0
C      1  0.4811880000000  0.4213680000000  0.4992220000000 1.0
C      1  0.4752230000000  0.4477180000000  0.5402740000000 1.0
C      1  0.4882040000000  0.5117120000000  0.5784270000000 1.0
C      1  0.4791040000000  0.4967330000000  0.5049680000000 1.0
C      1  0.4489280000000  0.4905300000000  0.5110930000000 1.0
C      1  0.4408540000000  0.5179210000000  0.4982910000000 1.0
C      1  0.5359160000000  0.5040060000000  0.4986190000000 1.0
END
