TITL C-38189-4514-467 -2.51909731681208e-07 125000 -376.746356364077 0 0 60 (C5) n - 1
REM
REM in /home/bkarasulu/CARBON/AIRSS/Generating-Clusters/EDIP-Nigel-Params/Higher-Symm/Box-15A/Only-C60/SD-CG/FIRE-HFTN
REM
REM
REM
REM
REM
REM ./C.cell (414f73aa93bd7a1190c7fd0f31ff2f98)
REM
REM compiler GCC version 9.2.1 20190827 (Red Hat 9.2.1-1)
REM options -cpp -mtune=generic -march=x86-64 -g -O0 -fpre-include=/usr/include/finclude/math-vector-fortran.h
REM seed -1313953935 -1922516298 -1217026625 -345572303 131043646 -1846794452 1910503322 -1303060495 320067700 230120018 -1475840115 2056057563 -2078080289 503637825 -1253207087 -752600724 -1461610374 1238615829 1723962485 785824552 1405607096 1742420048 -522752002 -675073449 1096903111 -747027928 1192521263 1800167196 2045223528 -138543543 -1145174901 88210977 1468983654
REM
CELL 1.54180   50.00000   50.00000   50.00000   90.00000   90.00000   90.00000
LATT -1
SFAC C  
C      1  0.4792510000000  0.4937340000000  0.5709640000000 1.0
C      1  0.4260970000000  0.4937340000000  0.5021960000000 1.0
C      1  0.4750750000000  0.4937340000000  0.4303930000000 1.0
C      1  0.5584980000000  0.4937340000000  0.4547850000000 1.0
C      1  0.5610790000000  0.4937340000000  0.5416620000000 1.0
C      1  0.4940020000000  0.4690490000000  0.5616510000000 1.0
C      1  0.4395130000000  0.4690490000000  0.5133460000000 1.0
C      1  0.4686150000000  0.4690490000000  0.4465980000000 1.0
C      1  0.5410900000000  0.4690490000000  0.4536490000000 1.0
C      1  0.5567800000000  0.4690490000000  0.5247560000000 1.0
C      1  0.5157670000000  0.4670700000000  0.4379810000000 1.0
C      1  0.5638560000000  0.4670700000000  0.4958310000000 1.0
C      1  0.5236980000000  0.4670700000000  0.5594420000000 1.0
C      1  0.4507900000000  0.4670700000000  0.5409070000000 1.0
C      1  0.4458890000000  0.4670700000000  0.4658390000000 1.0
C      1  0.4956130000000  0.5203610000000  0.5679900000000 1.0
C      1  0.4339820000000  0.5203610000000  0.5168380000000 1.0
C      1  0.4635860000000  0.5203610000000  0.4424170000000 1.0
C      1  0.5435120000000  0.5203610000000  0.4475740000000 1.0
C      1  0.5633070000000  0.5203610000000  0.5251820000000 1.0
C      1  0.5383660000000  0.4931390000000  0.5622150000000 1.0
C      1  0.4526860000000  0.4931390000000  0.5557140000000 1.0
C      1  0.4323920000000  0.4931390000000  0.4722180000000 1.0
C      1  0.5055300000000  0.4931390000000  0.4271160000000 1.0
C      1  0.5710260000000  0.4931390000000  0.4827370000000 1.0
C      1  0.5053850000000  0.5098810000000  0.4752400000000 1.0
C      1  0.5252120000000  0.5098810000000  0.4974710000000 1.0
C      1  0.5101970000000  0.5098810000000  0.5231960000000 1.0
C      1  0.4810900000000  0.5098810000000  0.5168660000000 1.0
C      1  0.4781160000000  0.5098810000000  0.4872270000000 1.0
C      1  0.4965220000000  0.4357940000000  0.4748070000000 1.0
C      1  0.5228850000000  0.4357940000000  0.4889070000000 1.0
C      1  0.5176220000000  0.4357940000000  0.5183370000000 1.0
C      1  0.4880060000000  0.4357940000000  0.5224260000000 1.0
C      1  0.4749650000000  0.4357940000000  0.4955230000000 1.0
C      1  0.4769800000000  0.4534830000000  0.5436190000000 1.0
C      1  0.4514020000000  0.4534830000000  0.4915860000000 1.0
C      1  0.4929850000000  0.4534830000000  0.4511810000000 1.0
C      1  0.5442620000000  0.4534830000000  0.4782420000000 1.0
C      1  0.5343710000000  0.4534830000000  0.5353720000000 1.0
C      1  0.5143720000000  0.5156760000000  0.4451410000000 1.0
C      1  0.5566150000000  0.5156760000000  0.4967160000000 1.0
C      1  0.5206180000000  0.5156760000000  0.5528290000000 1.0
C      1  0.4561280000000  0.5156760000000  0.5359340000000 1.0
C      1  0.4522670000000  0.5156760000000  0.4693790000000 1.0
C      1  0.5448050000000  0.5456270000000  0.4663330000000 1.0
C      1  0.5458650000000  0.5456270000000  0.5322090000000 1.0
C      1  0.4835410000000  0.5456270000000  0.5535730000000 1.0
C      1  0.4439630000000  0.5456270000000  0.5009010000000 1.0
C      1  0.4818260000000  0.5456270000000  0.4469840000000 1.0
C      1  0.4560700000000  0.5407670000000  0.5517540000000 1.0
C      1  0.4372040000000  0.5407670000000  0.4742130000000 1.0
C      1  0.5051200000000  0.5407670000000  0.4323090000000 1.0
C      1  0.5659600000000  0.5407670000000  0.4839510000000 1.0
C      1  0.5356460000000  0.5407670000000  0.5577730000000 1.0
C      1  0.4937600000000  0.5554200000000  0.5255910000000 1.0
C      1  0.4737330000000  0.5554200000000  0.5019740000000 1.0
C      1  0.4900060000000  0.5554200000000  0.4756280000000 1.0
C      1  0.5200900000000  0.5554200000000  0.4829640000000 1.0
C      1  0.5224110000000  0.5554200000000  0.5138430000000 1.0
END
