TITL C-38193-7935-349 1.82553601500148e-05 125000 -375.317161057731 0 0 60 (Cs) n - 1
REM
REM in /home/bkarasulu/CARBON/AIRSS/Generating-Clusters/EDIP-Nigel-Params/Higher-Symm/Box-15A/Only-C60/SD-CG/FIRE-HFTN
REM
REM
REM
REM
REM
REM ./C.cell (414f73aa93bd7a1190c7fd0f31ff2f98)
REM
REM compiler GCC version 9.2.1 20190827 (Red Hat 9.2.1-1)
REM options -cpp -mtune=generic -march=x86-64 -g -O0 -fpre-include=/usr/include/finclude/math-vector-fortran.h
REM seed 888023790 1079621711 1877558959 1528015506 1327891459 -492514947 -1463780884 -1089224685 -433152937 -1583749398 784651317 -871898217 -776088584 -641396062 956493970 -523299322 -476633178 -150972128 -927309769 1334035248 1886605841 -1564327043 298926658 -1398627992 1591431038 -822443355 -1692301803 273471212 584204261 1198869745 795999603 -1615510763 -488274404
REM
CELL 1.54180   50.00000   50.00000   50.00000   90.00000   90.00000   90.00000
LATT -1
SFAC C  
C      1  0.4853710000000  0.5524660000000  0.5364340000000 1.0
C      1  0.5146290000000  0.5524660000000  0.5364340000000 1.0
C      1  0.5155660000000  0.4840330000000  0.4820950000000 1.0
C      1  0.4844340000000  0.4840330000000  0.4820950000000 1.0
C      1  0.5291250000000  0.5663660000000  0.5159090000000 1.0
C      1  0.4708750000000  0.5663660000000  0.5159090000000 1.0
C      1  0.4448630000000  0.4560340000000  0.4864520000000 1.0
C      1  0.5551370000000  0.4560340000000  0.4864520000000 1.0
C      1  0.5569790000000  0.4559730000000  0.5174230000000 1.0
C      1  0.4430210000000  0.4559730000000  0.5174230000000 1.0
C      1  0.5148610000000  0.4662780000000  0.5476010000000 1.0
C      1  0.4851390000000  0.4662780000000  0.5476010000000 1.0
C      1  0.4429040000000  0.5265570000000  0.5486610000000 1.0
C      1  0.5570960000000  0.5265570000000  0.5486610000000 1.0
C      1  0.4853890000000  0.4391980000000  0.5061790000000 1.0
C      1  0.5146110000000  0.4391980000000  0.5061790000000 1.0
C      1  0.5394420000000  0.5267180000000  0.4600060000000 1.0
C      1  0.4605580000000  0.5267180000000  0.4600060000000 1.0
C      1  0.4668880000000  0.4835470000000  0.4323920000000 1.0
C      1  0.5331120000000  0.4835470000000  0.4323920000000 1.0
C      1  0.4442570000000  0.5419490000000  0.4798290000000 1.0
C      1  0.5557430000000  0.5419490000000  0.4798290000000 1.0
C      1  0.5155220000000  0.5354270000000  0.4959290000000 1.0
C      1  0.4844780000000  0.5354270000000  0.4959290000000 1.0
C      1  0.4705090000000  0.5356120000000  0.5554140000000 1.0
C      1  0.5294910000000  0.5356120000000  0.5554140000000 1.0
C      1  0.5156540000000  0.5052200000000  0.5049770000000 1.0
C      1  0.4843460000000  0.5052200000000  0.5049770000000 1.0
C      1  0.5670670000000  0.4828310000000  0.5249210000000 1.0
C      1  0.4329330000000  0.4828310000000  0.5249210000000 1.0
C      1  0.4301320000000  0.5273570000000  0.5013250000000 1.0
C      1  0.5698680000000  0.5273570000000  0.5013250000000 1.0
C      1  0.5301220000000  0.4874460000000  0.5614080000000 1.0
C      1  0.4698780000000  0.4874460000000  0.5614080000000 1.0
C      1  0.4851930000000  0.5123690000000  0.5661700000000 1.0
C      1  0.5148070000000  0.5123690000000  0.5661700000000 1.0
C      1  0.5429240000000  0.4968180000000  0.4575280000000 1.0
C      1  0.4570760000000  0.4968180000000  0.4575280000000 1.0
C      1  0.4728540000000  0.4564260000000  0.4350060000000 1.0
C      1  0.5271460000000  0.4564260000000  0.4350060000000 1.0
C      1  0.5298970000000  0.4478990000000  0.5298020000000 1.0
C      1  0.4701030000000  0.4478990000000  0.5298020000000 1.0
C      1  0.4850460000000  0.4431580000000  0.4564150000000 1.0
C      1  0.5149540000000  0.4431580000000  0.4564150000000 1.0
C      1  0.5712990000000  0.5385040000000  0.5271670000000 1.0
C      1  0.4287010000000  0.5385040000000  0.5271670000000 1.0
C      1  0.5713720000000  0.4982950000000  0.5000130000000 1.0
C      1  0.4286280000000  0.4982950000000  0.5000130000000 1.0
C      1  0.4434950000000  0.4965590000000  0.5496820000000 1.0
C      1  0.5565050000000  0.4965590000000  0.5496820000000 1.0
C      1  0.4861630000000  0.5378560000000  0.4543470000000 1.0
C      1  0.5138370000000  0.5378560000000  0.4543470000000 1.0
C      1  0.5134510000000  0.4973770000000  0.4184930000000 1.0
C      1  0.4865490000000  0.4973770000000  0.4184930000000 1.0
C      1  0.4747480000000  0.4541370000000  0.4825990000000 1.0
C      1  0.5252520000000  0.4541370000000  0.4825990000000 1.0
C      1  0.5408390000000  0.5646300000000  0.4900810000000 1.0
C      1  0.4591610000000  0.5646300000000  0.4900810000000 1.0
C      1  0.4360150000000  0.4829560000000  0.4757440000000 1.0
C      1  0.5639850000000  0.4829560000000  0.4757440000000 1.0
END
