TITL C-38193-7935-312 7.11465200345796e-06 125000 -337.273687678064 0 0 60 (T23) n - 1
REM
REM in /home/bkarasulu/CARBON/AIRSS/Generating-Clusters/EDIP-Nigel-Params/Higher-Symm/Box-15A/Only-C60/SD-CG/FIRE-HFTN
REM
REM
REM
REM
REM
REM ./C.cell (414f73aa93bd7a1190c7fd0f31ff2f98)
REM
REM compiler GCC version 9.2.1 20190827 (Red Hat 9.2.1-1)
REM options -cpp -mtune=generic -march=x86-64 -g -O0 -fpre-include=/usr/include/finclude/math-vector-fortran.h
REM seed 746654936 196707881 -535845969 725625690 1188501917 -1471793497 -399781251 -1678009529 -592984957 868809787 482268910 1516397283 -211035490 1144379337 2040215006 652570246 -1820780613 2047476499 1117092379 1975653259 -570220499 -317953114 -1046274234 -134808125 -537310157 881485394 1435597922 1044146921 200279075 64542859 -21728277 1719430942 1000533766
REM
CELL 1.54180   50.00000   50.00000   50.00000   90.00000   90.00000   90.00000
LATT -1
SFAC C  
C      1  0.4381180000000  0.4819940000000  0.5553320000000 1.0
C      1  0.4819940000000  0.5553320000000  0.4381180000000 1.0
C      1  0.5553320000000  0.4381180000000  0.4819940000000 1.0
C      1  0.5618820000000  0.4819940000000  0.4446680000000 1.0
C      1  0.5618820000000  0.5180060000000  0.5553320000000 1.0
C      1  0.4381180000000  0.5180060000000  0.4446680000000 1.0
C      1  0.5180060000000  0.5553320000000  0.5618820000000 1.0
C      1  0.5180060000000  0.4446680000000  0.4381180000000 1.0
C      1  0.4819940000000  0.4446680000000  0.5618820000000 1.0
C      1  0.4446680000000  0.4381180000000  0.5180060000000 1.0
C      1  0.4446680000000  0.5618820000000  0.4819940000000 1.0
C      1  0.5553320000000  0.5618820000000  0.5180060000000 1.0
C      1  0.4420700000000  0.5122000000000  0.5538630000000 1.0
C      1  0.4878000000000  0.4461370000000  0.4420700000000 1.0
C      1  0.5538630000000  0.5579300000000  0.4878000000000 1.0
C      1  0.5579300000000  0.5122000000000  0.4461370000000 1.0
C      1  0.5579300000000  0.4878000000000  0.5538630000000 1.0
C      1  0.4420700000000  0.4878000000000  0.4461370000000 1.0
C      1  0.5122000000000  0.4461370000000  0.5579300000000 1.0
C      1  0.5122000000000  0.5538630000000  0.4420700000000 1.0
C      1  0.4878000000000  0.5538630000000  0.5579300000000 1.0
C      1  0.4461370000000  0.5579300000000  0.5122000000000 1.0
C      1  0.4461370000000  0.4420700000000  0.4878000000000 1.0
C      1  0.5538630000000  0.4420700000000  0.5122000000000 1.0
C      1  0.4807950000000  0.4761200000000  0.5644110000000 1.0
C      1  0.4761190000000  0.5644110000000  0.4807950000000 1.0
C      1  0.5644110000000  0.4807950000000  0.4761190000000 1.0
C      1  0.5192050000000  0.4761190000000  0.4355890000000 1.0
C      1  0.5192050000000  0.5238810000000  0.5644110000000 1.0
C      1  0.4807950000000  0.5238800000000  0.4355890000000 1.0
C      1  0.5238810000000  0.5644110000000  0.5192050000000 1.0
C      1  0.5238810000000  0.4355890000000  0.4807950000000 1.0
C      1  0.4761190000000  0.4355890000000  0.5192050000000 1.0
C      1  0.4355890000000  0.4807950000000  0.5238810000000 1.0
C      1  0.4355890000000  0.5192050000000  0.4761190000000 1.0
C      1  0.5644110000000  0.5192050000000  0.5238800000000 1.0
C      1  0.4891850000000  0.5232310000000  0.5581780000000 1.0
C      1  0.4767690000000  0.4418220000000  0.4891850000000 1.0
C      1  0.5581780000000  0.5108150000000  0.4767690000000 1.0
C      1  0.5108150000000  0.5232310000000  0.4418220000000 1.0
C      1  0.5108150000000  0.4767690000000  0.5581780000000 1.0
C      1  0.4891850000000  0.4767690000000  0.4418220000000 1.0
C      1  0.5232310000000  0.4418220000000  0.5108150000000 1.0
C      1  0.5232310000000  0.5581780000000  0.4891850000000 1.0
C      1  0.4767690000000  0.5581780000000  0.5108150000000 1.0
C      1  0.4418220000000  0.5108150000000  0.5232310000000 1.0
C      1  0.4418220000000  0.4891850000000  0.4767690000000 1.0
C      1  0.5581780000000  0.4891850000000  0.5232310000000 1.0
C      1  0.5317790000000  0.5038640000000  0.4321580000000 1.0
C      1  0.4682210000000  0.5038640000000  0.5678420000000 1.0
C      1  0.5678420000000  0.4682210000000  0.5038640000000 1.0
C      1  0.5038640000000  0.5678420000000  0.4682210000000 1.0
C      1  0.4321580000000  0.4682210000000  0.4961360000000 1.0
C      1  0.4321580000000  0.5317790000000  0.5038640000000 1.0
C      1  0.5678420000000  0.5317790000000  0.4961360000000 1.0
C      1  0.5317790000000  0.4961360000000  0.5678420000000 1.0
C      1  0.4682210000000  0.4961360000000  0.4321580000000 1.0
C      1  0.4961360000000  0.5678420000000  0.5317790000000 1.0
C      1  0.4961360000000  0.4321580000000  0.4682210000000 1.0
C      1  0.5038640000000  0.4321580000000  0.5317790000000 1.0
END
