TITL C-38186-4112-383 -2.38784627185026e-05 125000 -359.745212235326 0 0 60 (C1) n - 1
REM
REM in /home/bkarasulu/CARBON/AIRSS/Generating-Clusters/EDIP-Nigel-Params/Higher-Symm/Box-15A/Only-C60/SD-CG/FIRE-HFTN
REM
REM
REM
REM
REM
REM ./C.cell (414f73aa93bd7a1190c7fd0f31ff2f98)
REM
REM compiler GCC version 9.2.1 20190827 (Red Hat 9.2.1-1)
REM options -cpp -mtune=generic -march=x86-64 -g -O0 -fpre-include=/usr/include/finclude/math-vector-fortran.h
REM seed 288073105 53248272 1680764462 -5825486 697518090 120825785 -1630419332 2007899775 -572127395 1296663034 1399253709 279274319 1438609036 1187785853 822660068 -950268187 837314681 -1052770583 1567417774 -1568847466 320548595 30239586 -534500089 469442716 1351522919 -984391628 -1246176970 -805047286 272431713 1722779504 755918882 1005235062 -1632798153
REM
CELL 1.54180   50.00000   50.00000   50.00000   90.00000   90.00000   90.00000
LATT -1
SFAC C  
C      1  0.4400250000000  0.5547990000000  0.4689630000000 1.0
C      1  0.4468860000000  0.4580390000000  0.4654450000000 1.0
C      1  0.4910660000000  0.4778200000000  0.4660600000000 1.0
C      1  0.4824370000000  0.5217650000000  0.4754160000000 1.0
C      1  0.5269520000000  0.5645550000000  0.5151150000000 1.0
C      1  0.5320550000000  0.4437820000000  0.5097390000000 1.0
C      1  0.4371170000000  0.5524220000000  0.5181640000000 1.0
C      1  0.4278160000000  0.4475310000000  0.5114130000000 1.0
C      1  0.4939780000000  0.4760800000000  0.5697450000000 1.0
C      1  0.4933760000000  0.5262630000000  0.5736660000000 1.0
C      1  0.5257950000000  0.5151140000000  0.5030890000000 1.0
C      1  0.5259260000000  0.4833390000000  0.4924060000000 1.0
C      1  0.5590390000000  0.4826030000000  0.5216910000000 1.0
C      1  0.5552690000000  0.5290320000000  0.5230690000000 1.0
C      1  0.4715430000000  0.4481290000000  0.5344660000000 1.0
C      1  0.4740370000000  0.5622420000000  0.5435570000000 1.0
C      1  0.5101490000000  0.5399910000000  0.4462780000000 1.0
C      1  0.5106290000000  0.4482000000000  0.4396590000000 1.0
C      1  0.4693610000000  0.4391380000000  0.4686720000000 1.0
C      1  0.4686600000000  0.5627550000000  0.4679890000000 1.0
C      1  0.5271360000000  0.4519820000000  0.4635810000000 1.0
C      1  0.5262160000000  0.5438080000000  0.4700070000000 1.0
C      1  0.4850030000000  0.4367230000000  0.4447840000000 1.0
C      1  0.4824340000000  0.5479010000000  0.4466640000000 1.0
C      1  0.5033810000000  0.5183300000000  0.5220930000000 1.0
C      1  0.5088420000000  0.4805210000000  0.5208800000000 1.0
C      1  0.4799890000000  0.4536670000000  0.5603310000000 1.0
C      1  0.4800990000000  0.5502050000000  0.5677160000000 1.0
C      1  0.5371060000000  0.4538190000000  0.5560580000000 1.0
C      1  0.5346270000000  0.5513160000000  0.5599200000000 1.0
C      1  0.5224640000000  0.4768550000000  0.5622970000000 1.0
C      1  0.5220330000000  0.5271930000000  0.5669880000000 1.0
C      1  0.4890390000000  0.4550730000000  0.4865030000000 1.0
C      1  0.4829020000000  0.5491270000000  0.4924190000000 1.0
C      1  0.5133120000000  0.4704800000000  0.4222150000000 1.0
C      1  0.5180740000000  0.5180990000000  0.4311330000000 1.0
C      1  0.5125330000000  0.5561210000000  0.4927360000000 1.0
C      1  0.5158210000000  0.4410350000000  0.4875320000000 1.0
C      1  0.4624920000000  0.4832500000000  0.4574570000000 1.0
C      1  0.4374440000000  0.5272770000000  0.4628900000000 1.0
C      1  0.4288380000000  0.5617100000000  0.4934940000000 1.0
C      1  0.4291750000000  0.4577880000000  0.4868170000000 1.0
C      1  0.4669580000000  0.5428220000000  0.5200830000000 1.0
C      1  0.4812750000000  0.4674380000000  0.5144000000000 1.0
C      1  0.5510800000000  0.5302040000000  0.4715150000000 1.0
C      1  0.5446800000000  0.4846900000000  0.4549660000000 1.0
C      1  0.4452880000000  0.4407920000000  0.5304180000000 1.0
C      1  0.4467600000000  0.5710070000000  0.5384000000000 1.0
C      1  0.5444470000000  0.5535350000000  0.5336510000000 1.0
C      1  0.5455080000000  0.4576410000000  0.5295020000000 1.0
C      1  0.5081260000000  0.5030810000000  0.4701920000000 1.0
C      1  0.4799620000000  0.5031020000000  0.5312570000000 1.0
C      1  0.4612210000000  0.4869890000000  0.4304360000000 1.0
C      1  0.4796040000000  0.5016010000000  0.5623410000000 1.0
C      1  0.5283030000000  0.4922990000000  0.4322580000000 1.0
C      1  0.5674040000000  0.4901240000000  0.4955790000000 1.0
C      1  0.5595320000000  0.5031300000000  0.4717230000000 1.0
C      1  0.5350960000000  0.5026600000000  0.5590130000000 1.0
C      1  0.5566360000000  0.5052820000000  0.5394210000000 1.0
C      1  0.4560410000000  0.5085880000000  0.4719360000000 1.0
END
