TITL C-38192-7909-604 8.69005945733893e-07 125000 -349.308905861512 0 0 60 (C1) n - 1
REM
REM in /home/bkarasulu/CARBON/AIRSS/Generating-Clusters/EDIP-Nigel-Params/Higher-Symm/Box-15A/Only-C60/SD-CG/FIRE-HFTN
REM
REM
REM
REM
REM
REM ./C.cell (414f73aa93bd7a1190c7fd0f31ff2f98)
REM
REM compiler GCC version 9.2.1 20190827 (Red Hat 9.2.1-1)
REM options -cpp -mtune=generic -march=x86-64 -g -O0 -fpre-include=/usr/include/finclude/math-vector-fortran.h
REM seed 792405808 -357704414 -93551647 -1645979848 1392434546 1324385413 -273008541 -2075458228 -1717330123 -1118190878 382174711 741639907 -565564753 -1463100437 -1452228176 -2037543709 -22830527 1756302045 626533116 -330642572 413008807 1787124758 1213352985 -1531649921 1848514526 -442007805 -1468384606 -75939603 265194168 998310788 -1176936540 368867669 -180751066
REM
CELL 1.54180   50.00000   50.00000   50.00000   90.00000   90.00000   90.00000
LATT -1
SFAC C  
C      1  0.4775760000000  0.5156590000000  0.5154020000000 1.0
C      1  0.4787350000000  0.5203770000000  0.4850730000000 1.0
C      1  0.5090310000000  0.5153710000000  0.4752910000000 1.0
C      1  0.5263940000000  0.5182530000000  0.5010870000000 1.0
C      1  0.5061630000000  0.5198640000000  0.5260080000000 1.0
C      1  0.5093950000000  0.4832960000000  0.4756020000000 1.0
C      1  0.5266040000000  0.4813420000000  0.5013090000000 1.0
C      1  0.5075850000000  0.4815370000000  0.5250620000000 1.0
C      1  0.4785670000000  0.4835120000000  0.5145000000000 1.0
C      1  0.4799830000000  0.4816690000000  0.4838370000000 1.0
C      1  0.4258020000000  0.4802640000000  0.4968490000000 1.0
C      1  0.4760740000000  0.4802620000000  0.4276520000000 1.0
C      1  0.5618780000000  0.4806770000000  0.4590050000000 1.0
C      1  0.5614680000000  0.4796660000000  0.5442360000000 1.0
C      1  0.4764380000000  0.4798250000000  0.5715540000000 1.0
C      1  0.4978380000000  0.4625620000000  0.5694240000000 1.0
C      1  0.4333030000000  0.4641270000000  0.5180210000000 1.0
C      1  0.4627180000000  0.4608280000000  0.4420240000000 1.0
C      1  0.5433170000000  0.4655790000000  0.4451290000000 1.0
C      1  0.5646120000000  0.4601870000000  0.5248360000000 1.0
C      1  0.4594350000000  0.5609680000000  0.5280470000000 1.0
C      1  0.4645000000000  0.5602650000000  0.4729230000000 1.0
C      1  0.5158960000000  0.5592480000000  0.4594840000000 1.0
C      1  0.5434320000000  0.5594390000000  0.4981660000000 1.0
C      1  0.5131590000000  0.5602580000000  0.5422070000000 1.0
C      1  0.5783190000000  0.4897370000000  0.5045510000000 1.0
C      1  0.5235820000000  0.4907070000000  0.5739460000000 1.0
C      1  0.4349650000000  0.4892980000000  0.5465730000000 1.0
C      1  0.4397230000000  0.4902970000000  0.4509270000000 1.0
C      1  0.5242370000000  0.4907000000000  0.4237460000000 1.0
C      1  0.4615810000000  0.4607140000000  0.5254630000000 1.0
C      1  0.4642560000000  0.4591890000000  0.4711900000000 1.0
C      1  0.5163510000000  0.4611850000000  0.4560240000000 1.0
C      1  0.5466050000000  0.4585890000000  0.5018520000000 1.0
C      1  0.5127300000000  0.4592090000000  0.5443920000000 1.0
C      1  0.4649490000000  0.5757340000000  0.5000790000000 1.0
C      1  0.4932240000000  0.5610210000000  0.4776180000000 1.0
C      1  0.5384370000000  0.5709600000000  0.4725650000000 1.0
C      1  0.5188590000000  0.5602580000000  0.5135760000000 1.0
C      1  0.4879240000000  0.5755620000000  0.5315910000000 1.0
C      1  0.4564650000000  0.5313350000000  0.5292730000000 1.0
C      1  0.4540330000000  0.5328760000000  0.4735730000000 1.0
C      1  0.5202540000000  0.5308770000000  0.4524520000000 1.0
C      1  0.5524070000000  0.5316240000000  0.4963830000000 1.0
C      1  0.5086960000000  0.5331400000000  0.5526910000000 1.0
C      1  0.4778830000000  0.4367070000000  0.5141640000000 1.0
C      1  0.4800490000000  0.4365690000000  0.4833840000000 1.0
C      1  0.5097950000000  0.4368640000000  0.4748060000000 1.0
C      1  0.5261610000000  0.4361610000000  0.5008200000000 1.0
C      1  0.5067180000000  0.4362880000000  0.5249880000000 1.0
C      1  0.5803760000000  0.4914470000000  0.4762420000000 1.0
C      1  0.5512110000000  0.4915340000000  0.5667750000000 1.0
C      1  0.4510640000000  0.4901010000000  0.5701770000000 1.0
C      1  0.4211580000000  0.4917790000000  0.4723530000000 1.0
C      1  0.4973070000000  0.4909450000000  0.4139420000000 1.0
C      1  0.5250220000000  0.5193880000000  0.5717580000000 1.0
C      1  0.4382060000000  0.5178040000000  0.5466680000000 1.0
C      1  0.4404440000000  0.5188590000000  0.4526240000000 1.0
C      1  0.5203550000000  0.5191720000000  0.4262870000000 1.0
C      1  0.5767560000000  0.5183390000000  0.5038190000000 1.0
END
