TITL C-38198-1686-201 0.000193593563254057 125000 -355.23094211757 0 0 60 (C1) n - 1
REM
REM in /home/bkarasulu/CARBON/AIRSS/Generating-Clusters/EDIP-Nigel-Params/Higher-Symm/Box-15A/Only-C60/SD-CG/FIRE-HFTN
REM
REM
REM
REM
REM
REM ./C.cell (414f73aa93bd7a1190c7fd0f31ff2f98)
REM
REM compiler GCC version 9.2.1 20190827 (Red Hat 9.2.1-1)
REM options -cpp -mtune=generic -march=x86-64 -g -O0 -fpre-include=/usr/include/finclude/math-vector-fortran.h
REM seed 1024503882 -860054261 293275116 -504332705 1950159726 933513115 -1246519458 2108847552 652059380 -1750071669 1874101259 1800664294 -1297229675 432648465 -1425647878 1719636938 -1839724151 1208245162 -2103255123 1142991913 -563037715 -534523277 502028095 1305610020 1832317768 68030910 -2005478100 -679459106 -1592616632 -2137658637 -2049605961 -94176276 25186910
REM
CELL 1.54180   50.00000   50.00000   50.00000   90.00000   90.00000   90.00000
LATT -1
SFAC C  
C      1  0.5520370000000  0.4537610000000  0.5223820000000 1.0
C      1  0.5465180000000  0.4637900000000  0.4674540000000 1.0
C      1  0.4976040000000  0.4530160000000  0.4419470000000 1.0
C      1  0.4468820000000  0.4519110000000  0.4761100000000 1.0
C      1  0.4520870000000  0.4616370000000  0.5323460000000 1.0
C      1  0.4994740000000  0.4522840000000  0.5580430000000 1.0
C      1  0.4751220000000  0.5213810000000  0.5698940000000 1.0
C      1  0.5546780000000  0.5227060000000  0.5527880000000 1.0
C      1  0.5733240000000  0.5249170000000  0.4881780000000 1.0
C      1  0.5229680000000  0.5212110000000  0.4285630000000 1.0
C      1  0.4514140000000  0.5197150000000  0.4447790000000 1.0
C      1  0.4261480000000  0.5247490000000  0.5169950000000 1.0
C      1  0.4975340000000  0.4116360000000  0.4708510000000 1.0
C      1  0.4733980000000  0.4102880000000  0.4876320000000 1.0
C      1  0.4818900000000  0.3997870000000  0.5126910000000 1.0
C      1  0.5026280000000  0.4116790000000  0.5282410000000 1.0
C      1  0.5267620000000  0.4114710000000  0.5114100000000 1.0
C      1  0.5187700000000  0.4006030000000  0.4863380000000 1.0
C      1  0.4692970000000  0.4403520000000  0.4896450000000 1.0
C      1  0.4719210000000  0.4482470000000  0.5183200000000 1.0
C      1  0.4975300000000  0.4414040000000  0.5316290000000 1.0
C      1  0.5295590000000  0.4416980000000  0.5095860000000 1.0
C      1  0.5267390000000  0.4495930000000  0.4809690000000 1.0
C      1  0.5013070000000  0.4415850000000  0.4678280000000 1.0
C      1  0.4919400000000  0.5598390000000  0.5473540000000 1.0
C      1  0.5371130000000  0.5614580000000  0.5315990000000 1.0
C      1  0.5452810000000  0.5626460000000  0.4842090000000 1.0
C      1  0.5100600000000  0.5601400000000  0.4519050000000 1.0
C      1  0.4647900000000  0.5593640000000  0.4679140000000 1.0
C      1  0.4556800000000  0.5613390000000  0.5152430000000 1.0
C      1  0.5444300000000  0.5012650000000  0.5378780000000 1.0
C      1  0.5547340000000  0.5057340000000  0.4797010000000 1.0
C      1  0.5085430000000  0.5018310000000  0.4428470000000 1.0
C      1  0.4536330000000  0.5005310000000  0.4651420000000 1.0
C      1  0.4442660000000  0.5037340000000  0.5207530000000 1.0
C      1  0.4915100000000  0.5015450000000  0.5586260000000 1.0
C      1  0.5221490000000  0.5073040000000  0.5193410000000 1.0
C      1  0.5271280000000  0.5053980000000  0.4903700000000 1.0
C      1  0.5041330000000  0.5060100000000  0.4717890000000 1.0
C      1  0.4771670000000  0.5021550000000  0.4828500000000 1.0
C      1  0.4721800000000  0.5071700000000  0.5112790000000 1.0
C      1  0.4950210000000  0.5021380000000  0.5292830000000 1.0
C      1  0.5506030000000  0.5499200000000  0.5533870000000 1.0
C      1  0.5714090000000  0.5523380000000  0.4874110000000 1.0
C      1  0.5246540000000  0.5485800000000  0.4309010000000 1.0
C      1  0.4533100000000  0.5472040000000  0.4451290000000 1.0
C      1  0.4291490000000  0.5519120000000  0.5141790000000 1.0
C      1  0.4760700000000  0.5488610000000  0.5679810000000 1.0
C      1  0.5488250000000  0.5750150000000  0.5094710000000 1.0
C      1  0.5338200000000  0.5727520000000  0.4601390000000 1.0
C      1  0.4837440000000  0.5708670000000  0.4504460000000 1.0
C      1  0.4512880000000  0.5722050000000  0.4894770000000 1.0
C      1  0.4684500000000  0.5725890000000  0.5381030000000 1.0
C      1  0.5180110000000  0.5710370000000  0.5498780000000 1.0
C      1  0.4405960000000  0.4757630000000  0.4654590000000 1.0
C      1  0.4400170000000  0.4842760000000  0.5404940000000 1.0
C      1  0.4955610000000  0.4761790000000  0.5698010000000 1.0
C      1  0.5587720000000  0.4781410000000  0.5313120000000 1.0
C      1  0.5614920000000  0.4854230000000  0.4616500000000 1.0
C      1  0.4988830000000  0.4779150000000  0.4320830000000 1.0
END
