TITL C-38188-488-24 -2.15479614637066e-05 125000 -362.80469804894 0 0 60 (C1) n - 1
REM
REM in /home/bkarasulu/CARBON/AIRSS/Generating-Clusters/EDIP-Nigel-Params/Higher-Symm/Box-15A/Only-C60/SD-CG/FIRE-HFTN
REM
REM
REM
REM
REM
REM ./C.cell (414f73aa93bd7a1190c7fd0f31ff2f98)
REM
REM compiler GCC version 9.2.1 20190827 (Red Hat 9.2.1-1)
REM options -cpp -mtune=generic -march=x86-64 -g -O0 -fpre-include=/usr/include/finclude/math-vector-fortran.h
REM seed -1207109251 -916574127 222576874 -938020810 1953699430 225162728 188585808 -11619287 -1612603865 134602986 -1808558794 -742718325 -680733066 1711048381 -1961468531 -1214209316 917277223 560872186 194252615 -436909548 1480254460 -363801874 1317065579 1385340597 -408658110 -547792201 -820734409 -443862267 -1097852541 179420399 -1248779226 443344420 -743869727
REM
CELL 1.54180   50.00000   50.00000   50.00000   90.00000   90.00000   90.00000
LATT -1
SFAC C  
C      1  0.5039830000000  0.5556590000000  0.5241610000000 1.0
C      1  0.5324560000000  0.4883000000000  0.4651260000000 1.0
C      1  0.5642850000000  0.4948800000000  0.5294750000000 1.0
C      1  0.5695620000000  0.5112070000000  0.4723780000000 1.0
C      1  0.4683270000000  0.4698210000000  0.5626780000000 1.0
C      1  0.5011560000000  0.4737410000000  0.4383710000000 1.0
C      1  0.5071390000000  0.5820830000000  0.4745290000000 1.0
C      1  0.4367590000000  0.5391120000000  0.4915660000000 1.0
C      1  0.4580650000000  0.5220370000000  0.5614190000000 1.0
C      1  0.4322020000000  0.4829160000000  0.4839370000000 1.0
C      1  0.5400350000000  0.4495590000000  0.5129940000000 1.0
C      1  0.4866290000000  0.4891910000000  0.5530990000000 1.0
C      1  0.4707060000000  0.4468600000000  0.4761290000000 1.0
C      1  0.4830580000000  0.5326720000000  0.5596240000000 1.0
C      1  0.4855640000000  0.4557170000000  0.5156470000000 1.0
C      1  0.5135410000000  0.4507240000000  0.4526040000000 1.0
C      1  0.4637600000000  0.5056450000000  0.4817630000000 1.0
C      1  0.4887000000000  0.4878620000000  0.5234470000000 1.0
C      1  0.5106550000000  0.4455330000000  0.5019940000000 1.0
C      1  0.4763320000000  0.5593290000000  0.5137650000000 1.0
C      1  0.5620010000000  0.5215300000000  0.5214150000000 1.0
C      1  0.4252050000000  0.4938790000000  0.5325150000000 1.0
C      1  0.5286210000000  0.5718900000000  0.4911630000000 1.0
C      1  0.4301330000000  0.4746430000000  0.5129240000000 1.0
C      1  0.5096140000000  0.5429580000000  0.4451530000000 1.0
C      1  0.5360830000000  0.5390270000000  0.4554530000000 1.0
C      1  0.4362440000000  0.5093650000000  0.5516140000000 1.0
C      1  0.4722070000000  0.5717080000000  0.4863570000000 1.0
C      1  0.5266920000000  0.4380510000000  0.5594200000000 1.0
C      1  0.5308000000000  0.4837320000000  0.4966730000000 1.0
C      1  0.4261500000000  0.5128450000000  0.4808430000000 1.0
C      1  0.4472280000000  0.4536180000000  0.5209870000000 1.0
C      1  0.5421630000000  0.4497680000000  0.4544750000000 1.0
C      1  0.4571530000000  0.4481380000000  0.5481540000000 1.0
C      1  0.5400980000000  0.5465110000000  0.4827010000000 1.0
C      1  0.5479900000000  0.5125650000000  0.4502400000000 1.0
C      1  0.4556460000000  0.4680420000000  0.4649060000000 1.0
C      1  0.4720170000000  0.5094960000000  0.5091840000000 1.0
C      1  0.5182400000000  0.4970150000000  0.4299990000000 1.0
C      1  0.5146720000000  0.4997870000000  0.5157660000000 1.0
C      1  0.5616160000000  0.5303180000000  0.4943140000000 1.0
C      1  0.5137410000000  0.4939080000000  0.5632590000000 1.0
C      1  0.4728050000000  0.5126650000000  0.4388400000000 1.0
C      1  0.4723440000000  0.5279860000000  0.4639120000000 1.0
C      1  0.5251280000000  0.5117360000000  0.5413470000000 1.0
C      1  0.5418960000000  0.4538690000000  0.5427800000000 1.0
C      1  0.4577530000000  0.5354340000000  0.5150950000000 1.0
C      1  0.4817040000000  0.4337620000000  0.5401050000000 1.0
C      1  0.5483330000000  0.4817360000000  0.5512350000000 1.0
C      1  0.5241010000000  0.5748580000000  0.5187150000000 1.0
C      1  0.5011020000000  0.4307950000000  0.5597490000000 1.0
C      1  0.4739460000000  0.4830640000000  0.4452400000000 1.0
C      1  0.5593840000000  0.4778000000000  0.5056510000000 1.0
C      1  0.5740060000000  0.4827730000000  0.4797060000000 1.0
C      1  0.5646800000000  0.4657150000000  0.4581880000000 1.0
C      1  0.4995980000000  0.5205040000000  0.4285950000000 1.0
C      1  0.4983570000000  0.4410280000000  0.4758720000000 1.0
C      1  0.4944980000000  0.5654000000000  0.4552470000000 1.0
C      1  0.5077830000000  0.5375290000000  0.5467270000000 1.0
C      1  0.4553580000000  0.5517020000000  0.4707790000000 1.0
END
