TITL C-8693-7204-308 -6.51486968264958e-07 125000 -364.166617764415 0 0 60 (C1) n - 1
REM
REM in /home/bkarasulu/CARBON/AIRSS/Generating-Clusters/EDIP-Nigel-Params/Higher-Symm/Box-15A/Only-C60/SD-CG/HFTN-CG
REM
REM
REM
REM
REM
REM ./C.cell (414f73aa93bd7a1190c7fd0f31ff2f98)
REM
REM compiler GCC version 9.2.1 20190827 (Red Hat 9.2.1-1)
REM options -cpp -mtune=generic -march=x86-64 -g -O0 -fpre-include=/usr/include/finclude/math-vector-fortran.h
REM seed 123478614 1517828753 2109055251 -1949797525 1420946981 761612648 927803006 -2093586374 -831250887 -1016761804 1275743304 1822325126 730764609 -920262744 451668960 741758518 -461241549 -1304725197 1008335835 686887502 992228367 14742980 -1130884993 379956831 -1078053501 1857555151 1379474711 -1829766856 -557322590 -1091830852 1531455273 -1677330924 1862469890
REM
CELL 1.54180   50.00000   50.00000   50.00000   90.00000   90.00000   90.00000
LATT -1
SFAC C  
C      1  0.4768740000000  0.4335430000000  0.4792160000000 1.0
C      1  0.4367570000000  0.4660180000000  0.4819570000000 1.0
C      1  0.4965850000000  0.4848710000000  0.4516370000000 1.0
C      1  0.5147820000000  0.5663430000000  0.4839340000000 1.0
C      1  0.4854400000000  0.5655570000000  0.5168900000000 1.0
C      1  0.5028440000000  0.4521660000000  0.5172550000000 1.0
C      1  0.5585250000000  0.5166920000000  0.4884530000000 1.0
C      1  0.4396360000000  0.5087610000000  0.5031700000000 1.0
C      1  0.5543470000000  0.4832970000000  0.5173730000000 1.0
C      1  0.5153760000000  0.5178350000000  0.4298240000000 1.0
C      1  0.4785620000000  0.5293500000000  0.5634960000000 1.0
C      1  0.5009130000000  0.4840930000000  0.5623310000000 1.0
C      1  0.4815770000000  0.4442170000000  0.5372900000000 1.0
C      1  0.4289480000000  0.4811850000000  0.5060030000000 1.0
C      1  0.4774170000000  0.4670730000000  0.5566800000000 1.0
C      1  0.5092550000000  0.5492530000000  0.5073790000000 1.0
C      1  0.4899660000000  0.5828720000000  0.4855340000000 1.0
C      1  0.5033610000000  0.4391040000000  0.4913390000000 1.0
C      1  0.5693290000000  0.5251630000000  0.5134950000000 1.0
C      1  0.4441860000000  0.5203640000000  0.4746640000000 1.0
C      1  0.5433860000000  0.4922260000000  0.4917560000000 1.0
C      1  0.5013380000000  0.5135000000000  0.5587730000000 1.0
C      1  0.4915810000000  0.5143370000000  0.4511850000000 1.0
C      1  0.5203560000000  0.4865360000000  0.4325570000000 1.0
C      1  0.5181540000000  0.4505570000000  0.4693500000000 1.0
C      1  0.4369980000000  0.4649730000000  0.5308540000000 1.0
C      1  0.4616660000000  0.5125460000000  0.4504960000000 1.0
C      1  0.4739100000000  0.5664940000000  0.4665820000000 1.0
C      1  0.5290830000000  0.5473240000000  0.5293400000000 1.0
C      1  0.4944450000000  0.4213990000000  0.5506090000000 1.0
C      1  0.5569360000000  0.5505000000000  0.5168790000000 1.0
C      1  0.4581030000000  0.5467100000000  0.4827180000000 1.0
C      1  0.5435010000000  0.4678250000000  0.4728790000000 1.0
C      1  0.5475360000000  0.4809860000000  0.4442470000000 1.0
C      1  0.4519180000000  0.4799360000000  0.5510040000000 1.0
C      1  0.5249750000000  0.5202100000000  0.5429670000000 1.0
C      1  0.5274010000000  0.4496570000000  0.5340470000000 1.0
C      1  0.4561260000000  0.4477130000000  0.4940890000000 1.0
C      1  0.4530090000000  0.5241360000000  0.5531220000000 1.0
C      1  0.4940310000000  0.5762180000000  0.5428190000000 1.0
C      1  0.5147940000000  0.5511570000000  0.4583480000000 1.0
C      1  0.4794990000000  0.4409860000000  0.4499310000000 1.0
C      1  0.5491790000000  0.5409690000000  0.4744020000000 1.0
C      1  0.4512910000000  0.5261880000000  0.5239680000000 1.0
C      1  0.5537150000000  0.4535640000000  0.5162240000000 1.0
C      1  0.5268380000000  0.4726820000000  0.5538480000000 1.0
C      1  0.4722680000000  0.4697850000000  0.4461230000000 1.0
C      1  0.5415550000000  0.5293790000000  0.4383560000000 1.0
C      1  0.5218580000000  0.4245990000000  0.5483050000000 1.0
C      1  0.5592120000000  0.5067690000000  0.4415180000000 1.0
C      1  0.4902520000000  0.5580500000000  0.4444550000000 1.0
C      1  0.4478800000000  0.4842640000000  0.4592260000000 1.0
C      1  0.5411090000000  0.4949850000000  0.5415900000000 1.0
C      1  0.4404610000000  0.5017360000000  0.5645070000000 1.0
C      1  0.4600400000000  0.5504570000000  0.5114490000000 1.0
C      1  0.5201570000000  0.5687620000000  0.5469090000000 1.0
C      1  0.5081480000000  0.4399380000000  0.4444800000000 1.0
C      1  0.5601830000000  0.4486240000000  0.4883930000000 1.0
C      1  0.4543530000000  0.4421570000000  0.5225580000000 1.0
C      1  0.5580730000000  0.5634080000000  0.4912190000000 1.0
END
