TITL C-8694-7203-328 -7.1460632900877e-06 125000 -341.752877866681 0 0 60 (C1) n - 1
REM
REM in /home/bkarasulu/CARBON/AIRSS/Generating-Clusters/EDIP-Nigel-Params/Higher-Symm/Box-15A/Only-C60/SD-CG/HFTN-CG
REM
REM
REM
REM
REM
REM ./C.cell (414f73aa93bd7a1190c7fd0f31ff2f98)
REM
REM compiler GCC version 9.2.1 20190827 (Red Hat 9.2.1-1)
REM options -cpp -mtune=generic -march=x86-64 -g -O0 -fpre-include=/usr/include/finclude/math-vector-fortran.h
REM seed 861970340 -1979765059 -1427537892 -773307313 2081495614 -2141316064 729012050 -1789557396 -1951072420 748480909 145258052 -1898463676 269925750 -759358836 -234514493 -545209046 -628413677 1291616303 -157202210 1913142161 -2010412976 184957675 1927029465 -156118584 -1201147585 -485341628 1759188395 -1371371826 -1674165303 1323029676 -1331244772 648103141 -587201617
REM
CELL 1.54180   50.00000   50.00000   50.00000   90.00000   90.00000   90.00000
LATT -1
SFAC C  
C      1  0.4811650000000  0.5741030000000  0.5179680000000 1.0
C      1  0.4998460000000  0.5496080000000  0.5573580000000 1.0
C      1  0.5201360000000  0.5102140000000  0.5796050000000 1.0
C      1  0.5262840000000  0.4609300000000  0.5723290000000 1.0
C      1  0.5263920000000  0.4244390000000  0.5330290000000 1.0
C      1  0.5207950000000  0.4211440000000  0.4831680000000 1.0
C      1  0.5005580000000  0.4459290000000  0.4454010000000 1.0
C      1  0.4812240000000  0.4866440000000  0.4240710000000 1.0
C      1  0.4817140000000  0.5366780000000  0.4312480000000 1.0
C      1  0.4819020000000  0.5706430000000  0.4675780000000 1.0
C      1  0.4949400000000  0.5523540000000  0.4505690000000 1.0
C      1  0.4938320000000  0.5696380000000  0.4930700000000 1.0
C      1  0.4847120000000  0.5506830000000  0.5335520000000 1.0
C      1  0.5165680000000  0.5268580000000  0.5571170000000 1.0
C      1  0.5108130000000  0.4849360000000  0.5716350000000 1.0
C      1  0.5193540000000  0.4472530000000  0.5484390000000 1.0
C      1  0.5110430000000  0.4266030000000  0.5090070000000 1.0
C      1  0.5170050000000  0.4446950000000  0.4681340000000 1.0
C      1  0.4852660000000  0.4694830000000  0.4462310000000 1.0
C      1  0.4937170000000  0.5112020000000  0.4304630000000 1.0
C      1  0.5760670000000  0.4902190000000  0.5554190000000 1.0
C      1  0.3827980000000  0.4948530000000  0.5037040000000 1.0
C      1  0.5762630000000  0.4436880000000  0.5063270000000 1.0
C      1  0.4537080000000  0.4272180000000  0.5127560000000 1.0
C      1  0.5487220000000  0.5019590000000  0.4244540000000 1.0
C      1  0.4296150000000  0.5105850000000  0.4457330000000 1.0
C      1  0.5519700000000  0.5681720000000  0.4596920000000 1.0
C      1  0.4296500000000  0.5541040000000  0.4923000000000 1.0
C      1  0.5375500000000  0.5645430000000  0.5318690000000 1.0
C      1  0.4535590000000  0.4810890000000  0.5706550000000 1.0
C      1  0.5100680000000  0.5452150000000  0.4952750000000 1.0
C      1  0.4928810000000  0.5285230000000  0.5153670000000 1.0
C      1  0.5112560000000  0.5109370000000  0.5324650000000 1.0
C      1  0.4960310000000  0.4879460000000  0.5462440000000 1.0
C      1  0.5013810000000  0.4626850000000  0.5339520000000 1.0
C      1  0.4961500000000  0.4521330000000  0.5078810000000 1.0
C      1  0.5113570000000  0.4677250000000  0.4861210000000 1.0
C      1  0.4929690000000  0.4860410000000  0.4697880000000 1.0
C      1  0.5100570000000  0.5073200000000  0.4546250000000 1.0
C      1  0.5147760000000  0.5362600000000  0.4656100000000 1.0
C      1  0.4665920000000  0.4926830000000  0.5505190000000 1.0
C      1  0.5573160000000  0.4942410000000  0.5383050000000 1.0
C      1  0.4074970000000  0.4899200000000  0.5083680000000 1.0
C      1  0.5572880000000  0.4607360000000  0.5031320000000 1.0
C      1  0.4667270000000  0.4481960000000  0.5027520000000 1.0
C      1  0.5360700000000  0.4941360000000  0.4466420000000 1.0
C      1  0.4487410000000  0.5052430000000  0.4621490000000 1.0
C      1  0.5436830000000  0.5427800000000  0.4589520000000 1.0
C      1  0.4486910000000  0.5372670000000  0.4964990000000 1.0
C      1  0.5363910000000  0.5523650000000  0.5081730000000 1.0
C      1  0.4324510000000  0.4811790000000  0.5165820000000 1.0
C      1  0.5393880000000  0.4813850000000  0.4950530000000 1.0
C      1  0.4508070000000  0.4715840000000  0.4951240000000 1.0
C      1  0.5521230000000  0.4949880000000  0.4709910000000 1.0
C      1  0.4655720000000  0.4950050000000  0.4828660000000 1.0
C      1  0.5586410000000  0.5235520000000  0.4768320000000 1.0
C      1  0.4655430000000  0.5159250000000  0.5053110000000 1.0
C      1  0.5523090000000  0.5282010000000  0.5056580000000 1.0
C      1  0.4507070000000  0.5019670000000  0.5277270000000 1.0
C      1  0.5393710000000  0.5033950000000  0.5181560000000 1.0
END
