TITL C-8694-7203-221 7.63573915203127e-05 125000 -360.802280489472 0 0 60 (C2) n - 1
REM
REM in /home/bkarasulu/CARBON/AIRSS/Generating-Clusters/EDIP-Nigel-Params/Higher-Symm/Box-15A/Only-C60/SD-CG/HFTN-CG
REM
REM
REM
REM
REM
REM ./C.cell (414f73aa93bd7a1190c7fd0f31ff2f98)
REM
REM compiler GCC version 9.2.1 20190827 (Red Hat 9.2.1-1)
REM options -cpp -mtune=generic -march=x86-64 -g -O0 -fpre-include=/usr/include/finclude/math-vector-fortran.h
REM seed 1082010836 1622060264 -528621231 986144227 -24101435 1796547820 -106237615 783187012 -1679001757 1319045700 -284178765 1073848553 536627330 -1085518709 -712020931 -2084335998 1132330653 308248273 991260825 1693823121 2083199361 -1767675323 -1447188687 1612469733 1767428019 753688273 1590517297 -1849694989 1761624224 387746120 -76624627 554555737 -1045603240
REM
CELL 1.54180   50.00000   50.00000   50.00000   90.00000   90.00000   90.00000
LATT -1
SFAC C  
C      1  0.4627360000000  0.5303090000000  0.5054560000000 1.0
C      1  0.5373620000000  0.5300360000000  0.4937690000000 1.0
C      1  0.5382830000000  0.5623730000000  0.5302700000000 1.0
C      1  0.4619190000000  0.5616990000000  0.4681350000000 1.0
C      1  0.4882220000000  0.4586620000000  0.4800410000000 1.0
C      1  0.5116440000000  0.4591500000000  0.5210150000000 1.0
C      1  0.5261680000000  0.5414020000000  0.5707740000000 1.0
C      1  0.4739640000000  0.5396540000000  0.4281840000000 1.0
C      1  0.5552450000000  0.4956970000000  0.5612060000000 1.0
C      1  0.4447390000000  0.4943060000000  0.4389230000000 1.0
C      1  0.4633640000000  0.5317850000000  0.5332760000000 1.0
C      1  0.5367390000000  0.5307990000000  0.4659200000000 1.0
C      1  0.5115470000000  0.5298460000000  0.5090660000000 1.0
C      1  0.4885500000000  0.5296400000000  0.4901700000000 1.0
C      1  0.4886630000000  0.5535940000000  0.4715290000000 1.0
C      1  0.5115130000000  0.5542700000000  0.5270850000000 1.0
C      1  0.5571250000000  0.4914390000000  0.4612470000000 1.0
C      1  0.4428490000000  0.4926240000000  0.5389580000000 1.0
C      1  0.5041080000000  0.4293660000000  0.5159240000000 1.0
C      1  0.4956610000000  0.4289940000000  0.4858970000000 1.0
C      1  0.4875250000000  0.4804250000000  0.5261840000000 1.0
C      1  0.5124100000000  0.4797180000000  0.4743280000000 1.0
C      1  0.4806950000000  0.5280970000000  0.5550490000000 1.0
C      1  0.5193950000000  0.5266090000000  0.4442480000000 1.0
C      1  0.5473040000000  0.5453560000000  0.5521580000000 1.0
C      1  0.4528420000000  0.5441540000000  0.4466920000000 1.0
C      1  0.5559610000000  0.4668130000000  0.5536440000000 1.0
C      1  0.4439290000000  0.4656280000000  0.4472250000000 1.0
C      1  0.5306180000000  0.4523620000000  0.5594110000000 1.0
C      1  0.4692250000000  0.4509510000000  0.4418320000000 1.0
C      1  0.5279730000000  0.4670260000000  0.4974310000000 1.0
C      1  0.4719200000000  0.4671940000000  0.5034150000000 1.0
C      1  0.5141460000000  0.4649090000000  0.5784840000000 1.0
C      1  0.4857360000000  0.4629490000000  0.4224430000000 1.0
C      1  0.5562400000000  0.5118330000000  0.5072250000000 1.0
C      1  0.4437980000000  0.5118270000000  0.4924710000000 1.0
C      1  0.5571990000000  0.4673980000000  0.5011110000000 1.0
C      1  0.4426950000000  0.4675670000000  0.4997250000000 1.0
C      1  0.4673640000000  0.4829780000000  0.5494710000000 1.0
C      1  0.5325780000000  0.4816060000000  0.4509840000000 1.0
C      1  0.5656750000000  0.4628490000000  0.5275700000000 1.0
C      1  0.4342030000000  0.4623680000000  0.4733910000000 1.0
C      1  0.5376220000000  0.4964190000000  0.5277560000000 1.0
C      1  0.4623650000000  0.4958300000000  0.4723440000000 1.0
C      1  0.4907660000000  0.5041660000000  0.4743240000000 1.0
C      1  0.5092490000000  0.5047940000000  0.5255610000000 1.0
C      1  0.5013570000000  0.4884070000000  0.5820190000000 1.0
C      1  0.4986020000000  0.4863070000000  0.4183060000000 1.0
C      1  0.5622330000000  0.5204550000000  0.5444360000000 1.0
C      1  0.4378320000000  0.5195090000000  0.4550510000000 1.0
C      1  0.5199040000000  0.4993250000000  0.4313080000000 1.0
C      1  0.4800970000000  0.5011560000000  0.5686860000000 1.0
C      1  0.5031140000000  0.5470750000000  0.5554690000000 1.0
C      1  0.4970380000000  0.5456440000000  0.4433390000000 1.0
C      1  0.5055940000000  0.5775000000000  0.5120060000000 1.0
C      1  0.4946590000000  0.5771840000000  0.4860060000000 1.0
C      1  0.4321370000000  0.4915920000000  0.5127640000000 1.0
C      1  0.5678350000000  0.4910450000000  0.4874590000000 1.0
C      1  0.5213830000000  0.4291610000000  0.5422460000000 1.0
C      1  0.4783840000000  0.4281690000000  0.4595880000000 1.0
END
