TITL C-8697-8172-289 -2.83488483241661e-06 125000 -367.24699075352 0 0 60 (C1) n - 1
REM
REM in /home/bkarasulu/CARBON/AIRSS/Generating-Clusters/EDIP-Nigel-Params/Higher-Symm/Box-15A/Only-C60/SD-CG/HFTN-CG
REM
REM
REM
REM
REM
REM ./C.cell (414f73aa93bd7a1190c7fd0f31ff2f98)
REM
REM compiler GCC version 9.2.1 20190827 (Red Hat 9.2.1-1)
REM options -cpp -mtune=generic -march=x86-64 -g -O0 -fpre-include=/usr/include/finclude/math-vector-fortran.h
REM seed 1929897570 -711610213 -1127954959 -771563664 1951894534 -1958010279 -1047542710 1635370618 336849296 1177013283 190584372 -1837760196 1266822356 -963125587 1151023135 1118907405 922537567 -468175482 1147258122 -611835349 -282263002 -1687162971 805016614 -906511861 -879327761 -772028457 1617728533 1480566033 -845676397 734891741 -366646010 663180825 1567081108
REM
CELL 1.54180   50.00000   50.00000   50.00000   90.00000   90.00000   90.00000
LATT -1
SFAC C  
C      1  0.4612630000000  0.5639350000000  0.5226170000000 1.0
C      1  0.5572790000000  0.5562370000000  0.5224070000000 1.0
C      1  0.5738740000000  0.4643640000000  0.5216810000000 1.0
C      1  0.4884020000000  0.4210370000000  0.5194560000000 1.0
C      1  0.4215320000000  0.4862530000000  0.5231380000000 1.0
C      1  0.4607060000000  0.4311200000000  0.4770770000000 1.0
C      1  0.5588790000000  0.4460970000000  0.4767930000000 1.0
C      1  0.5738400000000  0.5308920000000  0.4835380000000 1.0
C      1  0.4821580000000  0.5856550000000  0.4816980000000 1.0
C      1  0.4191240000000  0.5148930000000  0.4774040000000 1.0
C      1  0.5268910000000  0.4694130000000  0.5271630000000 1.0
C      1  0.4782900000000  0.4636410000000  0.5322790000000 1.0
C      1  0.4589890000000  0.5091790000000  0.5357630000000 1.0
C      1  0.4990960000000  0.5396410000000  0.5326800000000 1.0
C      1  0.5405530000000  0.5153270000000  0.5321660000000 1.0
C      1  0.5256390000000  0.5294910000000  0.4718800000000 1.0
C      1  0.4790790000000  0.5398330000000  0.4687710000000 1.0
C      1  0.4625620000000  0.4935230000000  0.4714880000000 1.0
C      1  0.4952900000000  0.4564940000000  0.4620900000000 1.0
C      1  0.5344810000000  0.4840970000000  0.4671900000000 1.0
C      1  0.4757390000000  0.4684730000000  0.4825800000000 1.0
C      1  0.4695140000000  0.5191380000000  0.4875830000000 1.0
C      1  0.5036860000000  0.5466510000000  0.4811490000000 1.0
C      1  0.5250170000000  0.5033050000000  0.4875780000000 1.0
C      1  0.5221240000000  0.4585370000000  0.4744720000000 1.0
C      1  0.4738380000000  0.5274790000000  0.5180060000000 1.0
C      1  0.4599970000000  0.4834930000000  0.5201200000000 1.0
C      1  0.5020410000000  0.4588140000000  0.5132370000000 1.0
C      1  0.5386750000000  0.4935520000000  0.5124740000000 1.0
C      1  0.5246170000000  0.5354190000000  0.5179800000000 1.0
C      1  0.4864790000000  0.5253020000000  0.4423810000000 1.0
C      1  0.5166510000000  0.5215780000000  0.4430360000000 1.0
C      1  0.5221770000000  0.4922830000000  0.4400430000000 1.0
C      1  0.4956900000000  0.4776590000000  0.4385340000000 1.0
C      1  0.4740410000000  0.4979280000000  0.4432930000000 1.0
C      1  0.4892300000000  0.4762830000000  0.5582690000000 1.0
C      1  0.5189020000000  0.4788000000000  0.5553380000000 1.0
C      1  0.5260270000000  0.5077120000000  0.5580330000000 1.0
C      1  0.5005960000000  0.5236220000000  0.5593800000000 1.0
C      1  0.4777210000000  0.5041140000000  0.5605140000000 1.0
C      1  0.4470070000000  0.5563670000000  0.4983580000000 1.0
C      1  0.5411650000000  0.5627590000000  0.4980990000000 1.0
C      1  0.5667850000000  0.4863630000000  0.5035120000000 1.0
C      1  0.5050010000000  0.4242360000000  0.4959280000000 1.0
C      1  0.4297620000000  0.4717970000000  0.4983150000000 1.0
C      1  0.4503480000000  0.4448170000000  0.5007240000000 1.0
C      1  0.5419310000000  0.4357190000000  0.4990200000000 1.0
C      1  0.5798150000000  0.5146620000000  0.5057830000000 1.0
C      1  0.5033240000000  0.5721830000000  0.4974090000000 1.0
C      1  0.4331080000000  0.5276890000000  0.4992900000000 1.0
C      1  0.5630750000000  0.4753200000000  0.4749600000000 1.0
C      1  0.4884980000000  0.4278880000000  0.4705850000000 1.0
C      1  0.4329910000000  0.4905210000000  0.4748590000000 1.0
C      1  0.4634580000000  0.5648910000000  0.4746070000000 1.0
C      1  0.5512070000000  0.5455030000000  0.4755850000000 1.0
C      1  0.5672100000000  0.5289490000000  0.5293160000000 1.0
C      1  0.4903390000000  0.5676950000000  0.5251320000000 1.0
C      1  0.4292930000000  0.5143460000000  0.5267820000000 1.0
C      1  0.4656590000000  0.4370930000000  0.5263290000000 1.0
C      1  0.5493300000000  0.4499410000000  0.5241320000000 1.0
END
