TITL C-8696-5006-58 -1.26964548688866e-06 125000 -349.096303090673 0 0 60 (C4) n - 1
REM
REM in /home/bkarasulu/CARBON/AIRSS/Generating-Clusters/EDIP-Nigel-Params/Higher-Symm/Box-15A/Only-C60/SD-CG/HFTN-CG
REM
REM
REM
REM
REM
REM ./C.cell (414f73aa93bd7a1190c7fd0f31ff2f98)
REM
REM compiler GCC version 9.2.1 20190827 (Red Hat 9.2.1-1)
REM options -cpp -mtune=generic -march=x86-64 -g -O0 -fpre-include=/usr/include/finclude/math-vector-fortran.h
REM seed -281494015 1420245110 -690975811 842699370 -134532816 -374197613 2075788315 -1969268052 -52213083 -773206749 223053011 -32342822 -1654047401 652819795 -1853415841 1269963713 -9457697 -320556244 -1628531938 -645865816 -421902511 -366006017 -359383452 1652282071 644586744 -283610283 523013865 1477646847 986298779 1863426536 -1650902314 1427672920 558873929
REM
CELL 1.54180   50.00000   50.00000   50.00000   90.00000   90.00000   90.00000
LATT -1
SFAC C  
C      1  0.4777350000000  0.4572080000000  0.5010550000000 1.0
C      1  0.4984800000000  0.4572590000000  0.4776610000000 1.0
C      1  0.5218730000000  0.4570270000000  0.4984050000000 1.0
C      1  0.5011290000000  0.4569760000000  0.5217990000000 1.0
C      1  0.5220350000000  0.5418790000000  0.5033200000000 1.0
C      1  0.5032510000000  0.5421160000000  0.4784000000000 1.0
C      1  0.4783310000000  0.5421110000000  0.4971840000000 1.0
C      1  0.4971140000000  0.5418740000000  0.5221040000000 1.0
C      1  0.4757410000000  0.5413600000000  0.4436100000000 1.0
C      1  0.5568140000000  0.5408010000000  0.4758070000000 1.0
C      1  0.5246150000000  0.5404460000000  0.5568800000000 1.0
C      1  0.4435420000000  0.5410050000000  0.5246840000000 1.0
C      1  0.5318540000000  0.4585530000000  0.4488780000000 1.0
C      1  0.4489510000000  0.4588070000000  0.4676960000000 1.0
C      1  0.4677660000000  0.4582140000000  0.5505970000000 1.0
C      1  0.5506690000000  0.4579600000000  0.5317800000000 1.0
C      1  0.5458160000000  0.5080830000000  0.5185550000000 1.0
C      1  0.4815210000000  0.5082030000000  0.5458280000000 1.0
C      1  0.4542500000000  0.5087190000000  0.4815350000000 1.0
C      1  0.5185440000000  0.5086000000000  0.4542620000000 1.0
C      1  0.4412710000000  0.4974200000000  0.5312960000000 1.0
C      1  0.5313000000000  0.4968500000000  0.5586880000000 1.0
C      1  0.5586960000000  0.4972810000000  0.4686590000000 1.0
C      1  0.4686670000000  0.4978510000000  0.4412670000000 1.0
C      1  0.5263560000000  0.4312210000000  0.4544400000000 1.0
C      1  0.5448170000000  0.4306970000000  0.5262360000000 1.0
C      1  0.4730200000000  0.4309040000000  0.5446990000000 1.0
C      1  0.4545590000000  0.4314280000000  0.4729030000000 1.0
C      1  0.4787850000000  0.5690920000000  0.4526870000000 1.0
C      1  0.4525720000000  0.5687830000000  0.5219340000000 1.0
C      1  0.5218190000000  0.5683130000000  0.5481450000000 1.0
C      1  0.5480320000000  0.5686220000000  0.4788980000000 1.0
C      1  0.5357940000000  0.4821650000000  0.5319510000000 1.0
C      1  0.4678510000000  0.4824440000000  0.5357640000000 1.0
C      1  0.4640400000000  0.4828790000000  0.4678210000000 1.0
C      1  0.5319830000000  0.4825990000000  0.4640090000000 1.0
C      1  0.4534560000000  0.5229320000000  0.5455950000000 1.0
C      1  0.5455570000000  0.5225140000000  0.5467760000000 1.0
C      1  0.5467400000000  0.5230750000000  0.4546750000000 1.0
C      1  0.4546390000000  0.5234930000000  0.4534940000000 1.0
C      1  0.4695810000000  0.5762360000000  0.5440470000000 1.0
C      1  0.4567520000000  0.5767500000000  0.4697090000000 1.0
C      1  0.5310910000000  0.5764980000000  0.4568790000000 1.0
C      1  0.5439200000000  0.5759840000000  0.5312170000000 1.0
C      1  0.5258190000000  0.4211230000000  0.5455180000000 1.0
C      1  0.5456540000000  0.4214780000000  0.4733360000000 1.0
C      1  0.4734710000000  0.4219220000000  0.4535040000000 1.0
C      1  0.4536370000000  0.4215670000000  0.5256860000000 1.0
C      1  0.5338810000000  0.5691640000000  0.5054300000000 1.0
C      1  0.4952930000000  0.5691600000000  0.5339960000000 1.0
C      1  0.4667280000000  0.5695250000000  0.4954100000000 1.0
C      1  0.5053160000000  0.5695280000000  0.4668430000000 1.0
C      1  0.4653000000000  0.4300920000000  0.5009790000000 1.0
C      1  0.5010980000000  0.4297300000000  0.5339460000000 1.0
C      1  0.5340660000000  0.4298030000000  0.4981470000000 1.0
C      1  0.4982680000000  0.4301650000000  0.4651800000000 1.0
C      1  0.4955690000000  0.5093440000000  0.4359570000000 1.0
C      1  0.5045010000000  0.5085160000000  0.5641400000000 1.0
C      1  0.4359430000000  0.5091890000000  0.5045160000000 1.0
C      1  0.5641270000000  0.5086720000000  0.4955810000000 1.0
END
