TITL C-8695-8180-219 -9.91453588725372e-07 125000 -364.524137901682 0 0 60 (C1) n - 1
REM
REM in /home/bkarasulu/CARBON/AIRSS/Generating-Clusters/EDIP-Nigel-Params/Higher-Symm/Box-15A/Only-C60/SD-CG/HFTN-CG
REM
REM
REM
REM
REM
REM ./C.cell (414f73aa93bd7a1190c7fd0f31ff2f98)
REM
REM compiler GCC version 9.2.1 20190827 (Red Hat 9.2.1-1)
REM options -cpp -mtune=generic -march=x86-64 -g -O0 -fpre-include=/usr/include/finclude/math-vector-fortran.h
REM seed -1684562005 -332377831 60565291 1672884883 -531625356 2004926234 -1627951036 -789633086 -276635504 1501893696 -776118104 -398721116 1727011847 -533993953 289493152 1987389160 1902698284 -928020443 -269316216 -2000378678 -30066382 -1962351732 669725125 -2122328948 -1237566647 -161205002 51882210 -1145905176 696108168 1778868096 -1114147673 50856200 2086551955
REM
CELL 1.54180   50.00000   50.00000   50.00000   90.00000   90.00000   90.00000
LATT -1
SFAC C  
C      1  0.5070550000000  0.4740560000000  0.5775740000000 1.0
C      1  0.4771640000000  0.5102380000000  0.5774100000000 1.0
C      1  0.5223450000000  0.5174930000000  0.5712060000000 1.0
C      1  0.5250850000000  0.4368240000000  0.5337330000000 1.0
C      1  0.4377100000000  0.5091230000000  0.5377480000000 1.0
C      1  0.5361260000000  0.5611650000000  0.5327470000000 1.0
C      1  0.5441700000000  0.4642630000000  0.4396240000000 1.0
C      1  0.4498980000000  0.4832280000000  0.4455740000000 1.0
C      1  0.5077230000000  0.5563270000000  0.4427500000000 1.0
C      1  0.4519370000000  0.4712850000000  0.4924470000000 1.0
C      1  0.5067160000000  0.5635570000000  0.4909340000000 1.0
C      1  0.5509590000000  0.4575440000000  0.4903530000000 1.0
C      1  0.4884810000000  0.4296460000000  0.5032510000000 1.0
C      1  0.4446470000000  0.5410590000000  0.5048530000000 1.0
C      1  0.5549970000000  0.5189320000000  0.5108220000000 1.0
C      1  0.5589560000000  0.4953240000000  0.5268690000000 1.0
C      1  0.4714320000000  0.4476310000000  0.5332030000000 1.0
C      1  0.4662610000000  0.5554220000000  0.5337330000000 1.0
C      1  0.5654520000000  0.4593850000000  0.5152200000000 1.0
C      1  0.4393220000000  0.4633900000000  0.5172970000000 1.0
C      1  0.4935110000000  0.5754310000000  0.5141710000000 1.0
C      1  0.4977640000000  0.4296360000000  0.5307120000000 1.0
C      1  0.4406050000000  0.5364870000000  0.5327260000000 1.0
C      1  0.5539230000000  0.5428700000000  0.5248490000000 1.0
C      1  0.5357210000000  0.4816590000000  0.5395630000000 1.0
C      1  0.4732380000000  0.4777020000000  0.5425360000000 1.0
C      1  0.4922980000000  0.5408120000000  0.5418820000000 1.0
C      1  0.5274400000000  0.4902270000000  0.5672740000000 1.0
C      1  0.4815530000000  0.4833460000000  0.5707470000000 1.0
C      1  0.4966450000000  0.5284940000000  0.5690600000000 1.0
C      1  0.4938850000000  0.5228340000000  0.4674760000000 1.0
C      1  0.5217780000000  0.4888620000000  0.4781080000000 1.0
C      1  0.4921790000000  0.4927890000000  0.4703350000000 1.0
C      1  0.5067850000000  0.5313460000000  0.4288800000000 1.0
C      1  0.5230880000000  0.4822160000000  0.4344920000000 1.0
C      1  0.4725130000000  0.4915180000000  0.4311570000000 1.0
C      1  0.5267580000000  0.5112110000000  0.4401250000000 1.0
C      1  0.4948480000000  0.4724220000000  0.4376800000000 1.0
C      1  0.4783350000000  0.5203810000000  0.4295060000000 1.0
C      1  0.5551670000000  0.4747390000000  0.4638930000000 1.0
C      1  0.4460060000000  0.4625650000000  0.4646120000000 1.0
C      1  0.4942490000000  0.5685440000000  0.4645150000000 1.0
C      1  0.5469530000000  0.4540660000000  0.5384170000000 1.0
C      1  0.4443370000000  0.4821810000000  0.5393240000000 1.0
C      1  0.5090420000000  0.5657680000000  0.5374470000000 1.0
C      1  0.5136140000000  0.4774650000000  0.5199490000000 1.0
C      1  0.4885810000000  0.4941600000000  0.5200580000000 1.0
C      1  0.4983120000000  0.5223620000000  0.5197510000000 1.0
C      1  0.5088700000000  0.5333020000000  0.4929160000000 1.0
C      1  0.5221450000000  0.4646630000000  0.4945670000000 1.0
C      1  0.4706670000000  0.4943720000000  0.4934330000000 1.0
C      1  0.4655420000000  0.5345040000000  0.4633460000000 1.0
C      1  0.5489500000000  0.5184150000000  0.4596560000000 1.0
C      1  0.4880700000000  0.4503560000000  0.4581820000000 1.0
C      1  0.5701320000000  0.4994690000000  0.4605810000000 1.0
C      1  0.4615470000000  0.4401290000000  0.4568420000000 1.0
C      1  0.4664960000000  0.5632990000000  0.4655010000000 1.0
C      1  0.5355810000000  0.5173580000000  0.4874510000000 1.0
C      1  0.5020440000000  0.4453720000000  0.4836330000000 1.0
C      1  0.4543930000000  0.5207760000000  0.4873000000000 1.0
END
