TITL C-8692-4986-268 3.37274136631838e-07 125000 -362.360100827244 0 0 60 (C1) n - 1
REM
REM in /home/bkarasulu/CARBON/AIRSS/Generating-Clusters/EDIP-Nigel-Params/Higher-Symm/Box-15A/Only-C60/SD-CG/HFTN-CG
REM
REM
REM
REM
REM
REM ./C.cell (414f73aa93bd7a1190c7fd0f31ff2f98)
REM
REM compiler GCC version 9.2.1 20190827 (Red Hat 9.2.1-1)
REM options -cpp -mtune=generic -march=x86-64 -g -O0 -fpre-include=/usr/include/finclude/math-vector-fortran.h
REM seed -1729604611 88064678 1896751278 1564714986 -1076506705 -1166679033 -1068942405 981024170 -1532688571 -281840855 -130797448 2109157896 1177454136 686834436 -1967257048 -1412688493 660607160 -2118812832 -836068630 1800748584 -119845488 -181886428 1919843112 1494623392 1031935226 974282542 -271641385 1846474746 2034769371 407375727 -1254849478 406890375 1678960886
REM
CELL 1.54180   50.00000   50.00000   50.00000   90.00000   90.00000   90.00000
LATT -1
SFAC C  
C      1  0.5594720000000  0.4714590000000  0.4850920000000 1.0
C      1  0.4406890000000  0.4552540000000  0.4852990000000 1.0
C      1  0.4939700000000  0.5772410000000  0.4852010000000 1.0
C      1  0.5594780000000  0.4714640000000  0.5146390000000 1.0
C      1  0.4406730000000  0.4552690000000  0.5147510000000 1.0
C      1  0.4939630000000  0.5770800000000  0.5149000000000 1.0
C      1  0.5065830000000  0.4231820000000  0.5261210000000 1.0
C      1  0.4406970000000  0.5259520000000  0.5263940000000 1.0
C      1  0.5566260000000  0.5440640000000  0.5257130000000 1.0
C      1  0.5065370000000  0.4228160000000  0.4739520000000 1.0
C      1  0.4409720000000  0.5258710000000  0.4734580000000 1.0
C      1  0.5572340000000  0.5444770000000  0.4742800000000 1.0
C      1  0.5008950000000  0.4780400000000  0.4856810000000 1.0
C      1  0.4825250000000  0.4979840000000  0.4706360000000 1.0
C      1  0.5118670000000  0.5149110000000  0.4837750000000 1.0
C      1  0.5008760000000  0.4785600000000  0.5151650000000 1.0
C      1  0.4823650000000  0.4985070000000  0.5296150000000 1.0
C      1  0.5119140000000  0.5159790000000  0.5161910000000 1.0
C      1  0.4557690000000  0.5457580000000  0.5144900000000 1.0
C      1  0.5634120000000  0.5193630000000  0.5147220000000 1.0
C      1  0.4811030000000  0.4278810000000  0.5150630000000 1.0
C      1  0.4558660000000  0.5457240000000  0.4854680000000 1.0
C      1  0.5634710000000  0.5195130000000  0.4851900000000 1.0
C      1  0.4811080000000  0.4277950000000  0.4850770000000 1.0
C      1  0.4812000000000  0.5534320000000  0.5261940000000 1.0
C      1  0.5498420000000  0.4962290000000  0.5259920000000 1.0
C      1  0.4673160000000  0.4517140000000  0.5256250000000 1.0
C      1  0.4812610000000  0.5536280000000  0.4738490000000 1.0
C      1  0.5500400000000  0.4963090000000  0.4736830000000 1.0
C      1  0.4673190000000  0.4515850000000  0.4744470000000 1.0
C      1  0.5443760000000  0.4606110000000  0.5559200000000 1.0
C      1  0.4382630000000  0.4744790000000  0.5550950000000 1.0
C      1  0.5140430000000  0.5697760000000  0.5549700000000 1.0
C      1  0.5443280000000  0.4606570000000  0.4438540000000 1.0
C      1  0.4384670000000  0.4745180000000  0.4449540000000 1.0
C      1  0.5139420000000  0.5701080000000  0.4449820000000 1.0
C      1  0.5175430000000  0.5000640000000  0.4348800000000 1.0
C      1  0.4829460000000  0.4858750000000  0.4431900000000 1.0
C      1  0.5053400000000  0.5239780000000  0.4427620000000 1.0
C      1  0.5174250000000  0.4998890000000  0.5649360000000 1.0
C      1  0.4825510000000  0.4861750000000  0.5569290000000 1.0
C      1  0.5052430000000  0.5239810000000  0.5577860000000 1.0
C      1  0.5416140000000  0.4888470000000  0.4464150000000 1.0
C      1  0.4649810000000  0.4634060000000  0.4468870000000 1.0
C      1  0.4942800000000  0.5493630000000  0.4475340000000 1.0
C      1  0.5414900000000  0.4887700000000  0.5532640000000 1.0
C      1  0.4648470000000  0.4634900000000  0.5532300000000 1.0
C      1  0.4942390000000  0.5492050000000  0.5525480000000 1.0
C      1  0.4329260000000  0.4801770000000  0.5275650000000 1.0
C      1  0.5202360000000  0.5746440000000  0.5274980000000 1.0
C      1  0.5473070000000  0.4498220000000  0.5297610000000 1.0
C      1  0.4330250000000  0.4801680000000  0.4724680000000 1.0
C      1  0.5202850000000  0.5749440000000  0.4724560000000 1.0
C      1  0.5473470000000  0.4497660000000  0.4699670000000 1.0
C      1  0.4522410000000  0.5012930000000  0.4835910000000 1.0
C      1  0.5304750000000  0.5488770000000  0.4841670000000 1.0
C      1  0.5217390000000  0.4451270000000  0.4842570000000 1.0
C      1  0.4521580000000  0.5013560000000  0.5164930000000 1.0
C      1  0.5297310000000  0.5480310000000  0.5153900000000 1.0
C      1  0.5215700000000  0.4455650000000  0.5155880000000 1.0
END
