TITL C-8694-7203-334 5.86811127162886e-06 125000 -376.942493763026 0 0 60 (C1) n - 1
REM
REM in /home/bkarasulu/CARBON/AIRSS/Generating-Clusters/EDIP-Nigel-Params/Higher-Symm/Box-15A/Only-C60/SD-CG/HFTN-CG
REM
REM
REM
REM
REM
REM ./C.cell (414f73aa93bd7a1190c7fd0f31ff2f98)
REM
REM compiler GCC version 9.2.1 20190827 (Red Hat 9.2.1-1)
REM options -cpp -mtune=generic -march=x86-64 -g -O0 -fpre-include=/usr/include/finclude/math-vector-fortran.h
REM seed 1774603416 805111137 1257749287 1173956668 -153889878 -891348247 1115139241 598638990 -313793664 1184432582 -1916076468 1534714604 -2100798227 -945896579 -2010774826 -1374989805 1723485627 -64518002 -456494279 -963031185 1060474149 1611071252 -1515358838 -624015093 -1173674940 947749318 709346540 1007052009 255023197 -185569396 784845348 -91924008 -1951040870
REM
CELL 1.54180   50.00000   50.00000   50.00000   90.00000   90.00000   90.00000
LATT -1
SFAC C  
C      1  0.5466140000000  0.5067710000000  0.4625670000000 1.0
C      1  0.5201500000000  0.4574250000000  0.4609680000000 1.0
C      1  0.4663810000000  0.4670200000000  0.4617570000000 1.0
C      1  0.4582290000000  0.5227010000000  0.4599020000000 1.0
C      1  0.5090440000000  0.5465250000000  0.4624020000000 1.0
C      1  0.5751920000000  0.5371200000000  0.4920700000000 1.0
C      1  0.5376240000000  0.4563730000000  0.5018480000000 1.0
C      1  0.4628060000000  0.4276660000000  0.4945700000000 1.0
C      1  0.4433940000000  0.5118830000000  0.5003630000000 1.0
C      1  0.4891060000000  0.5777710000000  0.4973060000000 1.0
C      1  0.4332650000000  0.5000080000000  0.5455970000000 1.0
C      1  0.4782560000000  0.5643340000000  0.5441100000000 1.0
C      1  0.5534260000000  0.5427890000000  0.5351980000000 1.0
C      1  0.5528340000000  0.4549070000000  0.5463760000000 1.0
C      1  0.4772910000000  0.4329550000000  0.5415800000000 1.0
C      1  0.4866800000000  0.5618700000000  0.4726640000000 1.0
C      1  0.5566040000000  0.5335070000000  0.4685180000000 1.0
C      1  0.5461060000000  0.4587750000000  0.4733740000000 1.0
C      1  0.4744400000000  0.4401590000000  0.4700150000000 1.0
C      1  0.4375970000000  0.5059120000000  0.4715670000000 1.0
C      1  0.4663280000000  0.5373500000000  0.5331090000000 1.0
C      1  0.5237130000000  0.5452510000000  0.5283320000000 1.0
C      1  0.5469740000000  0.4905250000000  0.5380600000000 1.0
C      1  0.5036960000000  0.4466460000000  0.5328340000000 1.0
C      1  0.4581960000000  0.4796320000000  0.5392550000000 1.0
C      1  0.4424680000000  0.4430030000000  0.5095750000000 1.0
C      1  0.4292910000000  0.5356930000000  0.5112470000000 1.0
C      1  0.5147640000000  0.5792330000000  0.5120970000000 1.0
C      1  0.5804440000000  0.5125270000000  0.5088780000000 1.0
C      1  0.5354530000000  0.4280740000000  0.5105390000000 1.0
C      1  0.4771120000000  0.4878580000000  0.5170650000000 1.0
C      1  0.4801570000000  0.5176720000000  0.5127340000000 1.0
C      1  0.5096140000000  0.5203880000000  0.5192880000000 1.0
C      1  0.5195820000000  0.4952310000000  0.5282980000000 1.0
C      1  0.5046330000000  0.4731850000000  0.5161520000000 1.0
C      1  0.5392790000000  0.5691410000000  0.4958170000000 1.0
C      1  0.5763300000000  0.4852130000000  0.4974880000000 1.0
C      1  0.5097940000000  0.4212990000000  0.4971630000000 1.0
C      1  0.4295070000000  0.4663520000000  0.4963440000000 1.0
C      1  0.4464530000000  0.5563620000000  0.4984830000000 1.0
C      1  0.4841530000000  0.4184800000000  0.5139840000000 1.0
C      1  0.4297200000000  0.4903290000000  0.5154030000000 1.0
C      1  0.4660240000000  0.5724850000000  0.5158340000000 1.0
C      1  0.5626010000000  0.5575620000000  0.5106910000000 1.0
C      1  0.5598190000000  0.4681010000000  0.5183730000000 1.0
C      1  0.4368990000000  0.5299740000000  0.5407820000000 1.0
C      1  0.5077870000000  0.5680400000000  0.5425250000000 1.0
C      1  0.5654760000000  0.5151040000000  0.5345690000000 1.0
C      1  0.5321230000000  0.4344740000000  0.5402290000000 1.0
C      1  0.4525110000000  0.4493670000000  0.5375850000000 1.0
C      1  0.5031930000000  0.4360080000000  0.4717350000000 1.0
C      1  0.4395600000000  0.4759250000000  0.4691750000000 1.0
C      1  0.4608860000000  0.5487250000000  0.4732970000000 1.0
C      1  0.5357930000000  0.5542740000000  0.4704330000000 1.0
C      1  0.5624460000000  0.4836210000000  0.4707330000000 1.0
C      1  0.5256050000000  0.5037480000000  0.4423300000000 1.0
C      1  0.5112680000000  0.4775250000000  0.4414980000000 1.0
C      1  0.4818110000000  0.4821370000000  0.4414740000000 1.0
C      1  0.4784130000000  0.5118000000000  0.4414670000000 1.0
C      1  0.5050850000000  0.5252140000000  0.4423760000000 1.0
END
