TITL C-8697-8172-53 -1.70440985347295e-06 125000 -380.188576774435 0 0 60 (C3) n - 1
REM
REM in /home/bkarasulu/CARBON/AIRSS/Generating-Clusters/EDIP-Nigel-Params/Higher-Symm/Box-15A/Only-C60/SD-CG/HFTN-CG
REM
REM
REM
REM
REM
REM ./C.cell (414f73aa93bd7a1190c7fd0f31ff2f98)
REM
REM compiler GCC version 9.2.1 20190827 (Red Hat 9.2.1-1)
REM options -cpp -mtune=generic -march=x86-64 -g -O0 -fpre-include=/usr/include/finclude/math-vector-fortran.h
REM seed -284878766 1756028762 25187802 -394340639 1482432039 -475915467 2132599281 -1706570762 -394530573 -2048836087 -1893624404 -1005234161 -309214393 -1527499160 339692924 -994163903 1564693022 -1828638293 1046070423 -693812710 -12996996 -1323836969 2144544130 -2133766750 2025811155 -1162079647 2011196134 -902003559 -2098630292 -1387440671 1564020593 -1006443947 1462571148
REM
CELL 1.54180   50.00000   50.00000   50.00000   90.00000   90.00000   90.00000
LATT -1
SFAC C  
C      1  0.4728650000000  0.4826250000000  0.4421140000000 1.0
C      1  0.4257100000000  0.4905910000000  0.4750090000000 1.0
C      1  0.4746180000000  0.4391860000000  0.4877800000000 1.0
C      1  0.5133740000000  0.4727200000000  0.5728630000000 1.0
C      1  0.4993180000000  0.5260790000000  0.5597670000000 1.0
C      1  0.5124710000000  0.5213700000000  0.4377120000000 1.0
C      1  0.5617570000000  0.4841340000000  0.5206480000000 1.0
C      1  0.4411040000000  0.5063040000000  0.5272810000000 1.0
C      1  0.5592180000000  0.5219760000000  0.4800180000000 1.0
C      1  0.5162590000000  0.4406590000000  0.5245640000000 1.0
C      1  0.4771470000000  0.5609560000000  0.5038440000000 1.0
C      1  0.5299730000000  0.5717250000000  0.4862470000000 1.0
C      1  0.4863400000000  0.5275550000000  0.4266950000000 1.0
C      1  0.4393920000000  0.5158440000000  0.4789830000000 1.0
C      1  0.4837130000000  0.5572360000000  0.4758770000000 1.0
C      1  0.5266450000000  0.5173300000000  0.5557930000000 1.0
C      1  0.4874500000000  0.4782890000000  0.5611330000000 1.0
C      1  0.5001120000000  0.4737860000000  0.4410910000000 1.0
C      1  0.5747580000000  0.5096750000000  0.5252420000000 1.0
C      1  0.4429020000000  0.4783590000000  0.5198670000000 1.0
C      1  0.5580770000000  0.4943200000000  0.4725730000000 1.0
C      1  0.5256680000000  0.5596420000000  0.5122500000000 1.0
C      1  0.4697500000000  0.4278400000000  0.5140490000000 1.0
C      1  0.5230720000000  0.4398800000000  0.4967330000000 1.0
C      1  0.4261770000000  0.4796750000000  0.4486490000000 1.0
C      1  0.4514650000000  0.4478390000000  0.4728420000000 1.0
C      1  0.4506930000000  0.4650190000000  0.4489850000000 1.0
C      1  0.5540160000000  0.4690710000000  0.5440420000000 1.0
C      1  0.4566130000000  0.5206770000000  0.5479240000000 1.0
C      1  0.5535050000000  0.5436820000000  0.4614440000000 1.0
C      1  0.5357290000000  0.4460880000000  0.5455450000000 1.0
C      1  0.4558180000000  0.5477170000000  0.5194350000000 1.0
C      1  0.5559520000000  0.5688090000000  0.4748090000000 1.0
C      1  0.5228580000000  0.4458700000000  0.5710450000000 1.0
C      1  0.4849590000000  0.5477950000000  0.5457840000000 1.0
C      1  0.5292310000000  0.5437840000000  0.4448410000000 1.0
C      1  0.4458620000000  0.5309370000000  0.4554210000000 1.0
C      1  0.4641410000000  0.5536730000000  0.4546720000000 1.0
C      1  0.4771810000000  0.5544500000000  0.4292520000000 1.0
C      1  0.5735320000000  0.5203230000000  0.5516780000000 1.0
C      1  0.4467540000000  0.4565190000000  0.5386720000000 1.0
C      1  0.5463170000000  0.4878560000000  0.4483320000000 1.0
C      1  0.5490800000000  0.5522440000000  0.5271490000000 1.0
C      1  0.4437430000000  0.4315040000000  0.5251820000000 1.0
C      1  0.5479190000000  0.4495180000000  0.4891550000000 1.0
C      1  0.5490940000000  0.5351140000000  0.5507750000000 1.0
C      1  0.4707410000000  0.4556770000000  0.5552700000000 1.0
C      1  0.5061400000000  0.4489660000000  0.4518320000000 1.0
C      1  0.5206190000000  0.4938730000000  0.4397580000000 1.0
C      1  0.4792490000000  0.5060300000000  0.5599450000000 1.0
C      1  0.4905790000000  0.4315670000000  0.5335970000000 1.0
C      1  0.4418540000000  0.5253090000000  0.5062340000000 1.0
C      1  0.5015340000000  0.4400620000000  0.4777090000000 1.0
C      1  0.5091030000000  0.5672590000000  0.4667670000000 1.0
C      1  0.4985560000000  0.5596330000000  0.5224090000000 1.0
C      1  0.5341730000000  0.4918780000000  0.5669130000000 1.0
C      1  0.4654580000000  0.5084060000000  0.4319070000000 1.0
C      1  0.5705680000000  0.5299000000000  0.5051600000000 1.0
C      1  0.4306420000000  0.4703970000000  0.4950800000000 1.0
C      1  0.5584490000000  0.4747960000000  0.4936570000000 1.0
END
