TITL C-8691-6797-212 -4.79549528537614e-06 125000 -360.875680939474 0 0 60 (C1) n - 1
REM
REM in /home/bkarasulu/CARBON/AIRSS/Generating-Clusters/EDIP-Nigel-Params/Higher-Symm/Box-15A/Only-C60/SD-CG/HFTN-CG
REM
REM
REM
REM
REM
REM ./C.cell (414f73aa93bd7a1190c7fd0f31ff2f98)
REM
REM compiler GCC version 9.2.1 20190827 (Red Hat 9.2.1-1)
REM options -cpp -mtune=generic -march=x86-64 -g -O0 -fpre-include=/usr/include/finclude/math-vector-fortran.h
REM seed -619979528 1400358596 -48766481 1315758446 -2044560544 453133376 -1758790688 267639863 -490423268 -221964401 1759114329 -110421953 1065405049 -272003762 1850332240 1835419596 -466650789 142988226 -383916063 1381374764 613710323 -1441604990 -754561365 903892261 -2113313249 -1996404825 1160516152 -1973344629 874284362 1386771314 -926083578 -1692758253 -798720707
REM
CELL 1.54180   50.00000   50.00000   50.00000   90.00000   90.00000   90.00000
LATT -1
SFAC C  
C      1  0.4470520000000  0.4528910000000  0.5563010000000 1.0
C      1  0.4872680000000  0.5719020000000  0.5441400000000 1.0
C      1  0.5680450000000  0.4745000000000  0.5457480000000 1.0
C      1  0.4457200000000  0.4553770000000  0.4447230000000 1.0
C      1  0.4861280000000  0.5727080000000  0.4415080000000 1.0
C      1  0.5662460000000  0.4782650000000  0.4600930000000 1.0
C      1  0.5545360000000  0.4515150000000  0.5505550000000 1.0
C      1  0.5145920000000  0.5718300000000  0.5436630000000 1.0
C      1  0.4330330000000  0.4750520000000  0.5494330000000 1.0
C      1  0.5534390000000  0.4550590000000  0.4545250000000 1.0
C      1  0.5137920000000  0.5746400000000  0.4411480000000 1.0
C      1  0.4316830000000  0.4777430000000  0.4512110000000 1.0
C      1  0.4865020000000  0.5263740000000  0.4489390000000 1.0
C      1  0.5296160000000  0.5033230000000  0.4421110000000 1.0
C      1  0.4858530000000  0.4789890000000  0.4326360000000 1.0
C      1  0.4867490000000  0.5259350000000  0.5570810000000 1.0
C      1  0.5300320000000  0.5004670000000  0.5593250000000 1.0
C      1  0.4866850000000  0.4765860000000  0.5702880000000 1.0
C      1  0.5140890000000  0.5280340000000  0.4443030000000 1.0
C      1  0.4715030000000  0.5029890000000  0.4423750000000 1.0
C      1  0.5155260000000  0.4782160000000  0.4351810000000 1.0
C      1  0.5156100000000  0.5257850000000  0.5565120000000 1.0
C      1  0.4723110000000  0.5008710000000  0.5607710000000 1.0
C      1  0.5163060000000  0.4757610000000  0.5677570000000 1.0
C      1  0.4515940000000  0.4949380000000  0.5393110000000 1.0
C      1  0.5260000000000  0.5459770000000  0.5365500000000 1.0
C      1  0.5257060000000  0.4520000000000  0.5505090000000 1.0
C      1  0.4501950000000  0.4969870000000  0.4626810000000 1.0
C      1  0.5253680000000  0.5528440000000  0.4571610000000 1.0
C      1  0.5246310000000  0.4551080000000  0.4531530000000 1.0
C      1  0.5493050000000  0.4948880000000  0.5371200000000 1.0
C      1  0.4755540000000  0.5460500000000  0.5375490000000 1.0
C      1  0.4758530000000  0.4535390000000  0.5541000000000 1.0
C      1  0.5470060000000  0.4991800000000  0.4659620000000 1.0
C      1  0.4744920000000  0.5517470000000  0.4584960000000 1.0
C      1  0.4745040000000  0.4556910000000  0.4478020000000 1.0
C      1  0.5270960000000  0.4889850000000  0.4873570000000 1.0
C      1  0.4818250000000  0.4621340000000  0.4764300000000 1.0
C      1  0.4842340000000  0.5582390000000  0.4861730000000 1.0
C      1  0.5318380000000  0.4829720000000  0.5149710000000 1.0
C      1  0.4840300000000  0.4605120000000  0.5256480000000 1.0
C      1  0.4846410000000  0.5382350000000  0.5097580000000 1.0
C      1  0.4649730000000  0.4835780000000  0.4869310000000 1.0
C      1  0.5121670000000  0.4619170000000  0.4816990000000 1.0
C      1  0.5150820000000  0.5580900000000  0.4853250000000 1.0
C      1  0.4675590000000  0.4828720000000  0.5159530000000 1.0
C      1  0.5146790000000  0.4582540000000  0.5206940000000 1.0
C      1  0.5157170000000  0.5382280000000  0.5090970000000 1.0
C      1  0.4871850000000  0.4310820000000  0.4396740000000 1.0
C      1  0.4456750000000  0.5477520000000  0.4593000000000 1.0
C      1  0.5592560000000  0.5250980000000  0.4705110000000 1.0
C      1  0.4878840000000  0.4286990000000  0.5622650000000 1.0
C      1  0.4465300000000  0.5451960000000  0.5380610000000 1.0
C      1  0.5623720000000  0.5196120000000  0.5301640000000 1.0
C      1  0.5139110000000  0.4302280000000  0.4433060000000 1.0
C      1  0.5543070000000  0.5494450000000  0.4589880000000 1.0
C      1  0.4382960000000  0.5229060000000  0.4678710000000 1.0
C      1  0.5146810000000  0.4272820000000  0.5603860000000 1.0
C      1  0.5550360000000  0.5451320000000  0.5358160000000 1.0
C      1  0.4385080000000  0.5197900000000  0.5329050000000 1.0
END
