TITL C-8697-8172-68 -7.32735498019677e-06 125000 -359.891681333115 0 0 60 (C1) n - 1
REM
REM in /home/bkarasulu/CARBON/AIRSS/Generating-Clusters/EDIP-Nigel-Params/Higher-Symm/Box-15A/Only-C60/SD-CG/HFTN-CG
REM
REM
REM
REM
REM
REM ./C.cell (414f73aa93bd7a1190c7fd0f31ff2f98)
REM
REM compiler GCC version 9.2.1 20190827 (Red Hat 9.2.1-1)
REM options -cpp -mtune=generic -march=x86-64 -g -O0 -fpre-include=/usr/include/finclude/math-vector-fortran.h
REM seed 72120800 -431068093 -931678968 -1909821899 -2086767961 -1309807692 -1492630290 53098855 1514638558 775942386 1205825087 -1716185341 -1148795150 -996096580 -839651245 -1958352959 -856510400 657073800 1495311976 -1563407668 -161247667 -1629654948 88266983 1570801601 251239986 -500535000 773967921 -17612353 -1863928245 -33292713 -1594069196 -1297342047 847988512
REM
CELL 1.54180   50.00000   50.00000   50.00000   90.00000   90.00000   90.00000
LATT -1
SFAC C  
C      1  0.4932470000000  0.5202660000000  0.5794640000000 1.0
C      1  0.4459140000000  0.4717240000000  0.4305200000000 1.0
C      1  0.5184210000000  0.4266780000000  0.4931770000000 1.0
C      1  0.4440010000000  0.4772400000000  0.4822740000000 1.0
C      1  0.5389220000000  0.4645950000000  0.4464590000000 1.0
C      1  0.5117870000000  0.4716320000000  0.4917950000000 1.0
C      1  0.5456450000000  0.4401520000000  0.4997400000000 1.0
C      1  0.5227840000000  0.4528160000000  0.5411930000000 1.0
C      1  0.5176340000000  0.5484900000000  0.5475690000000 1.0
C      1  0.5580450000000  0.5128290000000  0.5144410000000 1.0
C      1  0.4443250000000  0.4663070000000  0.4568280000000 1.0
C      1  0.5493890000000  0.4469590000000  0.5295400000000 1.0
C      1  0.4183150000000  0.5118960000000  0.5115190000000 1.0
C      1  0.4818950000000  0.4501880000000  0.5240750000000 1.0
C      1  0.5045460000000  0.4466600000000  0.4759470000000 1.0
C      1  0.5067570000000  0.5159020000000  0.5024190000000 1.0
C      1  0.5023950000000  0.4180890000000  0.5159450000000 1.0
C      1  0.4546200000000  0.4980330000000  0.4273400000000 1.0
C      1  0.4252130000000  0.5278660000000  0.4875790000000 1.0
C      1  0.4677540000000  0.5031860000000  0.5726470000000 1.0
C      1  0.5641640000000  0.4854850000000  0.5075750000000 1.0
C      1  0.4629320000000  0.4683050000000  0.5369850000000 1.0
C      1  0.5360380000000  0.4936220000000  0.4447110000000 1.0
C      1  0.4921150000000  0.5449900000000  0.5620790000000 1.0
C      1  0.4762280000000  0.5325190000000  0.5409770000000 1.0
C      1  0.4914060000000  0.5560900000000  0.4561130000000 1.0
C      1  0.5080860000000  0.4277250000000  0.5420620000000 1.0
C      1  0.5622480000000  0.4877720000000  0.5550510000000 1.0
C      1  0.5049450000000  0.4694750000000  0.5220570000000 1.0
C      1  0.5280620000000  0.5403750000000  0.4817160000000 1.0
C      1  0.5154500000000  0.4492650000000  0.4500030000000 1.0
C      1  0.5702600000000  0.5320390000000  0.4978070000000 1.0
C      1  0.5198090000000  0.5098500000000  0.5781250000000 1.0
C      1  0.5182210000000  0.5643460000000  0.5221460000000 1.0
C      1  0.5574980000000  0.4576640000000  0.4670210000000 1.0
C      1  0.4890840000000  0.5394980000000  0.5149100000000 1.0
C      1  0.5543450000000  0.5323270000000  0.4746590000000 1.0
C      1  0.4516590000000  0.5239550000000  0.4746240000000 1.0
C      1  0.4806460000000  0.5021220000000  0.4167290000000 1.0
C      1  0.4403560000000  0.5095750000000  0.5316320000000 1.0
C      1  0.4193280000000  0.4897650000000  0.4911300000000 1.0
C      1  0.4951230000000  0.4959060000000  0.4830450000000 1.0
C      1  0.4969880000000  0.5205300000000  0.4301130000000 1.0
C      1  0.5189650000000  0.5040260000000  0.4244530000000 1.0
C      1  0.5666170000000  0.4710300000000  0.5326830000000 1.0
C      1  0.4680930000000  0.5503450000000  0.4735670000000 1.0
C      1  0.4755110000000  0.5618860000000  0.4992430000000 1.0
C      1  0.5307920000000  0.5233630000000  0.5558250000000 1.0
C      1  0.5552330000000  0.5127970000000  0.5439290000000 1.0
C      1  0.5547690000000  0.5107260000000  0.4567390000000 1.0
C      1  0.5034760000000  0.5769120000000  0.4985710000000 1.0
C      1  0.5448420000000  0.4701080000000  0.4902700000000 1.0
C      1  0.4456100000000  0.5180100000000  0.5591710000000 1.0
C      1  0.4940660000000  0.4993580000000  0.5303250000000 1.0
C      1  0.4697140000000  0.4762600000000  0.5633300000000 1.0
C      1  0.4636020000000  0.4944180000000  0.5211750000000 1.0
C      1  0.5144050000000  0.5645430000000  0.4730220000000 1.0
C      1  0.4953450000000  0.5482480000000  0.4290940000000 1.0
C      1  0.4651400000000  0.4972730000000  0.4895050000000 1.0
C      1  0.4472200000000  0.5159900000000  0.4473610000000 1.0
END
