TITL C-8691-6797-110 4.46155613508416e-07 125000 -370.046729258972 0 0 60 (C1) n - 1
REM
REM in /home/bkarasulu/CARBON/AIRSS/Generating-Clusters/EDIP-Nigel-Params/Higher-Symm/Box-15A/Only-C60/SD-CG/HFTN-CG
REM
REM
REM
REM
REM
REM ./C.cell (414f73aa93bd7a1190c7fd0f31ff2f98)
REM
REM compiler GCC version 9.2.1 20190827 (Red Hat 9.2.1-1)
REM options -cpp -mtune=generic -march=x86-64 -g -O0 -fpre-include=/usr/include/finclude/math-vector-fortran.h
REM seed 1846320259 1468943049 -799011821 1568970117 -1052990709 179326105 905760231 -769536214 1034953609 2077728059 -1294823377 -1823411226 -1441297037 -1806948948 -601216987 1698813990 1908353763 1698540111 -452041317 -1310143334 -199090062 -819000399 1083938572 2128143153 1437212888 -678511162 1561519200 -1101397147 -814783180 1493467580 -446651366 -1832651190 -773092584
REM
CELL 1.54180   50.00000   50.00000   50.00000   90.00000   90.00000   90.00000
LATT -1
SFAC C  
C      1  0.5400870000000  0.4608220000000  0.5468890000000 1.0
C      1  0.5410640000000  0.4441600000000  0.4795170000000 1.0
C      1  0.5380950000000  0.5064950000000  0.4491350000000 1.0
C      1  0.5375940000000  0.5476760000000  0.4835060000000 1.0
C      1  0.5414670000000  0.5300310000000  0.5505370000000 1.0
C      1  0.4579820000000  0.4732740000000  0.5319780000000 1.0
C      1  0.4582350000000  0.4600600000000  0.4830820000000 1.0
C      1  0.4611510000000  0.5009920000000  0.4539800000000 1.0
C      1  0.4624840000000  0.5450310000000  0.4909150000000 1.0
C      1  0.4612720000000  0.5237610000000  0.5352580000000 1.0
C      1  0.5593430000000  0.4844060000000  0.4812390000000 1.0
C      1  0.5657560000000  0.5135610000000  0.4828910000000 1.0
C      1  0.5591430000000  0.5205420000000  0.5111370000000 1.0
C      1  0.5562560000000  0.4962380000000  0.5262190000000 1.0
C      1  0.5561800000000  0.4742830000000  0.5080690000000 1.0
C      1  0.4211390000000  0.4894500000000  0.4761370000000 1.0
C      1  0.4241360000000  0.5194280000000  0.4778440000000 1.0
C      1  0.4222350000000  0.5266830000000  0.5071140000000 1.0
C      1  0.4203000000000  0.5013420000000  0.5234360000000 1.0
C      1  0.4193660000000  0.4780900000000  0.5041540000000 1.0
C      1  0.5405660000000  0.4943880000000  0.5524760000000 1.0
C      1  0.5404700000000  0.4489190000000  0.5148570000000 1.0
C      1  0.5423840000000  0.4694930000000  0.4599820000000 1.0
C      1  0.5496060000000  0.5292010000000  0.4639420000000 1.0
C      1  0.5420430000000  0.5440300000000  0.5218960000000 1.0
C      1  0.4449070000000  0.4988830000000  0.5407070000000 1.0
C      1  0.4431930000000  0.4602380000000  0.5091670000000 1.0
C      1  0.4449440000000  0.4773660000000  0.4624840000000 1.0
C      1  0.4507870000000  0.5292240000000  0.4649120000000 1.0
C      1  0.4468070000000  0.5414620000000  0.5158740000000 1.0
C      1  0.5187160000000  0.4270040000000  0.4714800000000 1.0
C      1  0.5205800000000  0.5083880000000  0.4262270000000 1.0
C      1  0.5208230000000  0.5703800000000  0.4775190000000 1.0
C      1  0.5197910000000  0.5416430000000  0.5664020000000 1.0
C      1  0.5168790000000  0.4495670000000  0.5608240000000 1.0
C      1  0.4758210000000  0.4373350000000  0.4746790000000 1.0
C      1  0.4771160000000  0.5009870000000  0.4287940000000 1.0
C      1  0.4775050000000  0.5702760000000  0.4858650000000 1.0
C      1  0.4768890000000  0.5368010000000  0.5570450000000 1.0
C      1  0.4744380000000  0.4574210000000  0.5511770000000 1.0
C      1  0.5093710000000  0.5499480000000  0.5198490000000 1.0
C      1  0.5080640000000  0.4480850000000  0.5133320000000 1.0
C      1  0.5096600000000  0.4712290000000  0.4547350000000 1.0
C      1  0.5080900000000  0.4966250000000  0.5536070000000 1.0
C      1  0.4888320000000  0.5348850000000  0.4576550000000 1.0
C      1  0.4948300000000  0.5646040000000  0.4607510000000 1.0
C      1  0.4968940000000  0.4721780000000  0.5677530000000 1.0
C      1  0.4981500000000  0.4267440000000  0.4941300000000 1.0
C      1  0.4996120000000  0.5565730000000  0.5478100000000 1.0
C      1  0.5028150000000  0.4833780000000  0.4276060000000 1.0
C      1  0.5007960000000  0.5169660000000  0.4800300000000 1.0
C      1  0.4970030000000  0.5241030000000  0.5088550000000 1.0
C      1  0.5013850000000  0.4768210000000  0.5055600000000 1.0
C      1  0.4996020000000  0.4874550000000  0.4784950000000 1.0
C      1  0.5007100000000  0.4990730000000  0.5240920000000 1.0
C      1  0.4969540000000  0.4386140000000  0.5399890000000 1.0
C      1  0.4989690000000  0.5196850000000  0.5710910000000 1.0
C      1  0.4987860000000  0.4428540000000  0.4536150000000 1.0
C      1  0.4949040000000  0.5264270000000  0.4291060000000 1.0
C      1  0.5033680000000  0.5744170000000  0.5025900000000 1.0
END
