TITL C-8699-7882-96 0.00014001956883336 125000 -357.791787308514 0 0 60 (Ci) n - 1
REM
REM in /home/bkarasulu/CARBON/AIRSS/Generating-Clusters/EDIP-Nigel-Params/Higher-Symm/Box-15A/Only-C60/SD-CG/HFTN-CG
REM
REM
REM
REM
REM
REM ./C.cell (414f73aa93bd7a1190c7fd0f31ff2f98)
REM
REM compiler GCC version 9.2.1 20190827 (Red Hat 9.2.1-1)
REM options -cpp -mtune=generic -march=x86-64 -g -O0 -fpre-include=/usr/include/finclude/math-vector-fortran.h
REM seed -1433706732 -2147128431 -2011835767 -808815441 -1064302561 -626572792 213895369 -617279056 -1047352030 582834021 97315664 -118185028 941163555 1733739872 -1451751157 -1467680810 1266239892 2118806335 -1474645545 1785029880 -1348891217 1547308400 -443422275 1388122290 -1577225259 116422303 1530738096 1988848345 -687403031 1210905004 -1038915978 -1560411175 509447619
REM
CELL 1.54180   50.00000   50.00000   50.00000   90.00000   90.00000   90.00000
LATT -1
SFAC C  
C      1  0.4994650000000  0.4755670000000  0.5164230000000 1.0
C      1  0.5001550000000  0.5019820000000  0.5294540000000 1.0
C      1  0.4985810000000  0.5263660000000  0.5129490000000 1.0
C      1  0.5005350000000  0.5244330000000  0.4835770000000 1.0
C      1  0.4998450000000  0.4980180000000  0.4705460000000 1.0
C      1  0.5014190000000  0.4736340000000  0.4870510000000 1.0
C      1  0.4241630000000  0.5858810000000  0.4969290000000 1.0
C      1  0.5712180000000  0.5455720000000  0.4152400000000 1.0
C      1  0.4295330000000  0.4513930000000  0.4204880000000 1.0
C      1  0.5758370000000  0.4141190000000  0.5030710000000 1.0
C      1  0.4287820000000  0.4544280000000  0.5847600000000 1.0
C      1  0.5704670000000  0.5486070000000  0.5795120000000 1.0
C      1  0.4523250000000  0.4655320000000  0.4135400000000 1.0
C      1  0.5536930000000  0.4137800000000  0.4864160000000 1.0
C      1  0.4504790000000  0.4420120000000  0.5727770000000 1.0
C      1  0.5476750000000  0.5344680000000  0.5864600000000 1.0
C      1  0.4463070000000  0.5862200000000  0.5135840000000 1.0
C      1  0.5495210000000  0.5579880000000  0.4272230000000 1.0
C      1  0.5219290000000  0.5506360000000  0.5488970000000 1.0
C      1  0.4757080000000  0.5668480000000  0.4806990000000 1.0
C      1  0.5233970000000  0.5177540000000  0.4319270000000 1.0
C      1  0.4780710000000  0.4493640000000  0.4511030000000 1.0
C      1  0.5242920000000  0.4331520000000  0.5193010000000 1.0
C      1  0.4766030000000  0.4822460000000  0.5680730000000 1.0
C      1  0.4172930000000  0.4561870000000  0.5596250000000 1.0
C      1  0.5814310000000  0.5247060000000  0.5708070000000 1.0
C      1  0.4151240000000  0.5638400000000  0.5110500000000 1.0
C      1  0.5827070000000  0.5438130000000  0.4403750000000 1.0
C      1  0.4185690000000  0.4752940000000  0.4291930000000 1.0
C      1  0.5848760000000  0.4361600000000  0.4889500000000 1.0
C      1  0.5830450000000  0.5169420000000  0.5447400000000 1.0
C      1  0.4161420000000  0.5381040000000  0.5020130000000 1.0
C      1  0.5835540000000  0.5210130000000  0.4552820000000 1.0
C      1  0.4169550000000  0.4830580000000  0.4552600000000 1.0
C      1  0.5838580000000  0.4618960000000  0.4979870000000 1.0
C      1  0.4164460000000  0.4789870000000  0.5447180000000 1.0
C      1  0.5071850000000  0.4247220000000  0.4784670000000 1.0
C      1  0.4954440000000  0.4435900000000  0.5547440000000 1.0
C      1  0.5025180000000  0.5203280000000  0.5760110000000 1.0
C      1  0.4928150000000  0.5752780000000  0.5215330000000 1.0
C      1  0.5045560000000  0.5564100000000  0.4452560000000 1.0
C      1  0.4974820000000  0.4796720000000  0.4239890000000 1.0
C      1  0.4161500000000  0.5106880000000  0.5014460000000 1.0
C      1  0.5839640000000  0.5034680000000  0.4750980000000 1.0
C      1  0.4161250000000  0.4974070000000  0.4774850000000 1.0
C      1  0.5838500000000  0.4893120000000  0.4985540000000 1.0
C      1  0.4160360000000  0.4965320000000  0.5249020000000 1.0
C      1  0.5838750000000  0.5025930000000  0.5225150000000 1.0
C      1  0.5069810000000  0.5517840000000  0.5256590000000 1.0
C      1  0.4913240000000  0.5478910000000  0.4680520000000 1.0
C      1  0.5092820000000  0.4965380000000  0.4425270000000 1.0
C      1  0.4930190000000  0.4482160000000  0.4743410000000 1.0
C      1  0.5086760000000  0.4521090000000  0.5319480000000 1.0
C      1  0.4907180000000  0.5034620000000  0.5574730000000 1.0
C      1  0.4755630000000  0.4549740000000  0.5697570000000 1.0
C      1  0.5227590000000  0.5386380000000  0.5734840000000 1.0
C      1  0.4725010000000  0.5808990000000  0.5039710000000 1.0
C      1  0.5244370000000  0.5450260000000  0.4302430000000 1.0
C      1  0.4772410000000  0.4613620000000  0.4265160000000 1.0
C      1  0.5274990000000  0.4191010000000  0.4960290000000 1.0
END
