TITL C-8696-5006-55 -6.01860842400673e-07 125000 -363.383136608928 0 0 60 (C1) n - 1
REM
REM in /home/bkarasulu/CARBON/AIRSS/Generating-Clusters/EDIP-Nigel-Params/Higher-Symm/Box-15A/Only-C60/SD-CG/HFTN-CG
REM
REM
REM
REM
REM
REM ./C.cell (414f73aa93bd7a1190c7fd0f31ff2f98)
REM
REM compiler GCC version 9.2.1 20190827 (Red Hat 9.2.1-1)
REM options -cpp -mtune=generic -march=x86-64 -g -O0 -fpre-include=/usr/include/finclude/math-vector-fortran.h
REM seed 891246340 -1791884893 -339345589 -1218116486 2038289642 47934482 -616444979 -572719771 -1598153437 -732047765 -2053238642 -669853771 1624523853 142034705 1155845831 -1925325086 -218078972 -686122441 73957390 440038014 -841287921 499883913 2096362603 2082497156 978844725 349598803 -1423668437 1739382761 407859099 -1814577426 1086845808 1612985099 1030198779
REM
CELL 1.54180   50.00000   50.00000   50.00000   90.00000   90.00000   90.00000
LATT -1
SFAC C  
C      1  0.5009020000000  0.5531970000000  0.4666240000000 1.0
C      1  0.5296680000000  0.4433440000000  0.5025700000000 1.0
C      1  0.5000330000000  0.5546510000000  0.5303750000000 1.0
C      1  0.4661870000000  0.4482990000000  0.5017480000000 1.0
C      1  0.5072410000000  0.5355490000000  0.5102600000000 1.0
C      1  0.4865950000000  0.4662650000000  0.5123010000000 1.0
C      1  0.4901770000000  0.5349140000000  0.4866410000000 1.0
C      1  0.5097910000000  0.4625370000000  0.4958500000000 1.0
C      1  0.5646600000000  0.4930770000000  0.5241820000000 1.0
C      1  0.4758180000000  0.5041110000000  0.5636610000000 1.0
C      1  0.4364970000000  0.4987780000000  0.4754610000000 1.0
C      1  0.5260520000000  0.5040200000000  0.4336820000000 1.0
C      1  0.5136480000000  0.5019250000000  0.5215480000000 1.0
C      1  0.4802260000000  0.4977390000000  0.5094070000000 1.0
C      1  0.4924280000000  0.5027750000000  0.4802950000000 1.0
C      1  0.5216860000000  0.4973310000000  0.4902660000000 1.0
C      1  0.4612160000000  0.5252740000000  0.5172110000000 1.0
C      1  0.4832470000000  0.4758270000000  0.4614060000000 1.0
C      1  0.5400220000000  0.5238780000000  0.4824620000000 1.0
C      1  0.5183820000000  0.4740450000000  0.5405040000000 1.0
C      1  0.5214410000000  0.5321020000000  0.4343760000000 1.0
C      1  0.5638370000000  0.4649820000000  0.5199520000000 1.0
C      1  0.4812050000000  0.5319750000000  0.5630990000000 1.0
C      1  0.4355050000000  0.4709100000000  0.4806720000000 1.0
C      1  0.5816140000000  0.5092630000000  0.5071190000000 1.0
C      1  0.4923520000000  0.4882530000000  0.5811160000000 1.0
C      1  0.4194420000000  0.5152410000000  0.4918100000000 1.0
C      1  0.5081670000000  0.4874160000000  0.4179850000000 1.0
C      1  0.4689490000000  0.4901430000000  0.4386320000000 1.0
C      1  0.5628430000000  0.5104920000000  0.4668890000000 1.0
C      1  0.5331270000000  0.4871750000000  0.5633920000000 1.0
C      1  0.4384050000000  0.5120640000000  0.5318350000000 1.0
C      1  0.5383000000000  0.4532930000000  0.5285850000000 1.0
C      1  0.4736890000000  0.5446920000000  0.5378860000000 1.0
C      1  0.4611300000000  0.4576190000000  0.4743920000000 1.0
C      1  0.5277550000000  0.5434420000000  0.4609460000000 1.0
C      1  0.5099020000000  0.4591600000000  0.4519620000000 1.0
C      1  0.5505640000000  0.5403480000000  0.5114580000000 1.0
C      1  0.4847390000000  0.4576530000000  0.5502910000000 1.0
C      1  0.4521060000000  0.5441100000000  0.4850680000000 1.0
C      1  0.5382090000000  0.4672320000000  0.4626420000000 1.0
C      1  0.5400020000000  0.5321760000000  0.5396210000000 1.0
C      1  0.4547000000000  0.4652680000000  0.5427870000000 1.0
C      1  0.4593580000000  0.5369290000000  0.4551090000000 1.0
C      1  0.5103100000000  0.4599120000000  0.4234730000000 1.0
C      1  0.5787520000000  0.5370790000000  0.5104660000000 1.0
C      1  0.4889900000000  0.4605170000000  0.5786060000000 1.0
C      1  0.4236100000000  0.5428570000000  0.4890760000000 1.0
C      1  0.4859810000000  0.5446590000000  0.4434450000000 1.0
C      1  0.5514370000000  0.4529870000000  0.4857760000000 1.0
C      1  0.5158470000000  0.5446730000000  0.5524630000000 1.0
C      1  0.4430260000000  0.4576470000000  0.5161640000000 1.0
C      1  0.4148210000000  0.5052880000000  0.5177190000000 1.0
C      1  0.4821670000000  0.4974620000000  0.4146790000000 1.0
C      1  0.5852230000000  0.5002960000000  0.4808390000000 1.0
C      1  0.5184350000000  0.4977260000000  0.5850560000000 1.0
C      1  0.5482310000000  0.4917150000000  0.4489660000000 1.0
C      1  0.5499730000000  0.5051820000000  0.5465980000000 1.0
C      1  0.4513280000000  0.4934570000000  0.5511730000000 1.0
C      1  0.4500530000000  0.5090710000000  0.4514200000000 1.0
END
