TITL C-8696-5006-154 -2.48120612368596e-06 125000 -360.376203166697 0 0 60 (C2) n - 1
REM
REM in /home/bkarasulu/CARBON/AIRSS/Generating-Clusters/EDIP-Nigel-Params/Higher-Symm/Box-15A/Only-C60/SD-CG/HFTN-CG
REM
REM
REM
REM
REM
REM ./C.cell (414f73aa93bd7a1190c7fd0f31ff2f98)
REM
REM compiler GCC version 9.2.1 20190827 (Red Hat 9.2.1-1)
REM options -cpp -mtune=generic -march=x86-64 -g -O0 -fpre-include=/usr/include/finclude/math-vector-fortran.h
REM seed -1526201285 1949598397 538742136 1648716839 1027797535 -1790746840 224321508 14973684 -734364347 -2146036724 -1109387376 501855937 1190306952 1276468407 -256879356 -12814425 -159167430 -553991878 -232689412 -93590146 1993415938 183918786 -1635339635 -1286482256 76119157 1192519595 657558109 1489784803 -755862125 -1034275982 -633468178 -1156283955 1331557501
REM
CELL 1.54180   50.00000   50.00000   50.00000   90.00000   90.00000   90.00000
LATT -1
SFAC C  
C      1  0.4730800000000  0.4676690000000  0.5015340000000 1.0
C      1  0.4833340000000  0.4827890000000  0.5237450000000 1.0
C      1  0.5139290000000  0.4810200000000  0.5229810000000 1.0
C      1  0.5259020000000  0.4668610000000  0.4982160000000 1.0
C      1  0.5161260000000  0.4824610000000  0.4761230000000 1.0
C      1  0.4854910000000  0.4816380000000  0.4768770000000 1.0
C      1  0.4461520000000  0.5137960000000  0.5233020000000 1.0
C      1  0.4924950000000  0.5144510000000  0.5626780000000 1.0
C      1  0.5464460000000  0.5118630000000  0.5356920000000 1.0
C      1  0.5542540000000  0.5122940000000  0.4767970000000 1.0
C      1  0.5079580000000  0.5146880000000  0.4374330000000 1.0
C      1  0.4539490000000  0.5135720000000  0.4644050000000 1.0
C      1  0.5255750000000  0.4371620000000  0.4901790000000 1.0
C      1  0.4996360000000  0.4314050000000  0.4627520000000 1.0
C      1  0.4532940000000  0.4295170000000  0.4770010000000 1.0
C      1  0.4724840000000  0.4379130000000  0.5093450000000 1.0
C      1  0.4982280000000  0.4311450000000  0.5367240000000 1.0
C      1  0.5444910000000  0.4279260000000  0.5224550000000 1.0
C      1  0.4896930000000  0.5673580000000  0.5259210000000 1.0
C      1  0.5180370000000  0.5619620000000  0.5235030000000 1.0
C      1  0.5298080000000  0.5633530000000  0.4974860000000 1.0
C      1  0.5123970000000  0.5672010000000  0.4745920000000 1.0
C      1  0.4839000000000  0.5626700000000  0.4769730000000 1.0
C      1  0.4721740000000  0.5642270000000  0.5030000000000 1.0
C      1  0.4563220000000  0.5321830000000  0.4444150000000 1.0
C      1  0.4319150000000  0.5338270000000  0.5109160000000 1.0
C      1  0.4791250000000  0.5388390000000  0.5669780000000 1.0
C      1  0.5446500000000  0.5303850000000  0.5558240000000 1.0
C      1  0.5691040000000  0.5317770000000  0.4893340000000 1.0
C      1  0.5220800000000  0.5386810000000  0.4333170000000 1.0
C      1  0.4766870000000  0.4442990000000  0.5490420000000 1.0
C      1  0.5257340000000  0.4401020000000  0.5415460000000 1.0
C      1  0.5621520000000  0.4422100000000  0.5056960000000 1.0
C      1  0.5215770000000  0.4439780000000  0.4505320000000 1.0
C      1  0.4724230000000  0.4412490000000  0.4580010000000 1.0
C      1  0.4360840000000  0.4442140000000  0.4938710000000 1.0
C      1  0.5226470000000  0.5605020000000  0.4497230000000 1.0
C      1  0.4686040000000  0.5547360000000  0.4548150000000 1.0
C      1  0.4454370000000  0.5573930000000  0.5067380000000 1.0
C      1  0.4792370000000  0.5607910000000  0.5507400000000 1.0
C      1  0.5330760000000  0.5533880000000  0.5455970000000 1.0
C      1  0.5563210000000  0.5557200000000  0.4936930000000 1.0
C      1  0.5693230000000  0.4918310000000  0.4879830000000 1.0
C      1  0.5198460000000  0.4900780000000  0.4310120000000 1.0
C      1  0.4518850000000  0.4929040000000  0.4455290000000 1.0
C      1  0.4304560000000  0.4938970000000  0.5119620000000 1.0
C      1  0.4798470000000  0.4901730000000  0.5689120000000 1.0
C      1  0.5478650000000  0.4909980000000  0.5544100000000 1.0
C      1  0.4960900000000  0.5252430000000  0.5334790000000 1.0
C      1  0.5217470000000  0.5102090000000  0.5192600000000 1.0
C      1  0.5256120000000  0.5106790000000  0.4844760000000 1.0
C      1  0.5046960000000  0.5253640000000  0.4667140000000 1.0
C      1  0.4785830000000  0.5110270000000  0.4808210000000 1.0
C      1  0.4747300000000  0.5113510000000  0.5156080000000 1.0
C      1  0.4722570000000  0.4724870000000  0.5488270000000 1.0
C      1  0.5274940000000  0.4706330000000  0.5471890000000 1.0
C      1  0.5553740000000  0.4691530000000  0.4990400000000 1.0
C      1  0.5268800000000  0.4720120000000  0.4509610000000 1.0
C      1  0.4716120000000  0.4718620000000  0.4525910000000 1.0
C      1  0.4436940000000  0.4708820000000  0.5007310000000 1.0
END
