TITL C-8692-4986-66 -1.19850148831541e-05 125000 -361.183741270385 0 0 60 (C1) n - 1
REM
REM in /home/bkarasulu/CARBON/AIRSS/Generating-Clusters/EDIP-Nigel-Params/Higher-Symm/Box-15A/Only-C60/SD-CG/HFTN-CG
REM
REM
REM
REM
REM
REM ./C.cell (414f73aa93bd7a1190c7fd0f31ff2f98)
REM
REM compiler GCC version 9.2.1 20190827 (Red Hat 9.2.1-1)
REM options -cpp -mtune=generic -march=x86-64 -g -O0 -fpre-include=/usr/include/finclude/math-vector-fortran.h
REM seed 1385516808 -1402177434 -941680554 635594536 -132180497 -1409750834 -959829521 -1078494221 -2009117433 -703584946 -1129164880 -1385303082 1193317263 1619608948 1339984905 710565773 1442195698 1999899319 1651767887 -1466631145 -1884598317 71818463 -659144545 188013253 -648050115 -2003177788 1870398413 -772483436 -1710211147 -724116426 117419636 -1809470247 1455250786
REM
CELL 1.54180   50.00000   50.00000   50.00000   90.00000   90.00000   90.00000
LATT -1
SFAC C  
C      1  0.5408600000000  0.5082410000000  0.5494430000000 1.0
C      1  0.5293310000000  0.4974360000000  0.4264160000000 1.0
C      1  0.5686970000000  0.4970780000000  0.5166430000000 1.0
C      1  0.5207210000000  0.5229970000000  0.4329990000000 1.0
C      1  0.5044670000000  0.4605650000000  0.4962950000000 1.0
C      1  0.4358890000000  0.5134170000000  0.4670150000000 1.0
C      1  0.4804470000000  0.4785620000000  0.5789610000000 1.0
C      1  0.4642800000000  0.4294570000000  0.5213710000000 1.0
C      1  0.4934830000000  0.5576540000000  0.5329860000000 1.0
C      1  0.5091100000000  0.4599940000000  0.4523330000000 1.0
C      1  0.4797050000000  0.4679370000000  0.5368730000000 1.0
C      1  0.4590100000000  0.5004950000000  0.5586930000000 1.0
C      1  0.4505230000000  0.5482070000000  0.5500060000000 1.0
C      1  0.5327540000000  0.5246820000000  0.4757750000000 1.0
C      1  0.4540660000000  0.5441590000000  0.4498190000000 1.0
C      1  0.4817580000000  0.4383440000000  0.5434530000000 1.0
C      1  0.4975900000000  0.5312220000000  0.5599970000000 1.0
C      1  0.5334400000000  0.4750970000000  0.4430170000000 1.0
C      1  0.4820170000000  0.4702070000000  0.4470500000000 1.0
C      1  0.4449210000000  0.4941990000000  0.5339310000000 1.0
C      1  0.4799630000000  0.4500490000000  0.5710850000000 1.0
C      1  0.5041700000000  0.5165050000000  0.4883860000000 1.0
C      1  0.5560620000000  0.5442520000000  0.5067850000000 1.0
C      1  0.5269980000000  0.4624760000000  0.5494280000000 1.0
C      1  0.5019810000000  0.5707410000000  0.4615330000000 1.0
C      1  0.4495950000000  0.5130110000000  0.5116830000000 1.0
C      1  0.5098830000000  0.5686820000000  0.5107140000000 1.0
C      1  0.4776970000000  0.4988660000000  0.4402700000000 1.0
C      1  0.5396560000000  0.5385640000000  0.4484160000000 1.0
C      1  0.5606780000000  0.4596020000000  0.4830110000000 1.0
C      1  0.5567130000000  0.4796110000000  0.4619610000000 1.0
C      1  0.4518890000000  0.4664560000000  0.5224270000000 1.0
C      1  0.4511220000000  0.5129220000000  0.4400690000000 1.0
C      1  0.5121580000000  0.4324160000000  0.4627210000000 1.0
C      1  0.4835800000000  0.5456400000000  0.4578960000000 1.0
C      1  0.5558100000000  0.5053880000000  0.4806080000000 1.0
C      1  0.5447640000000  0.4352460000000  0.4811130000000 1.0
C      1  0.4567830000000  0.5411250000000  0.5024410000000 1.0
C      1  0.4645340000000  0.5572280000000  0.5276750000000 1.0
C      1  0.5046060000000  0.4759960000000  0.5214720000000 1.0
C      1  0.4939800000000  0.5782600000000  0.4886530000000 1.0
C      1  0.4982170000000  0.4182910000000  0.4847990000000 1.0
C      1  0.5565180000000  0.4719570000000  0.5092540000000 1.0
C      1  0.5251200000000  0.4382950000000  0.5041210000000 1.0
C      1  0.5278120000000  0.4876820000000  0.5635280000000 1.0
C      1  0.5715400000000  0.5213970000000  0.5013060000000 1.0
C      1  0.4716150000000  0.4275030000000  0.4924970000000 1.0
C      1  0.4382990000000  0.5440750000000  0.4768930000000 1.0
C      1  0.4971610000000  0.5194630000000  0.4498640000000 1.0
C      1  0.5056850000000  0.5054510000000  0.5162310000000 1.0
C      1  0.4844960000000  0.5408360000000  0.4883710000000 1.0
C      1  0.5016210000000  0.4986980000000  0.5709770000000 1.0
C      1  0.5415900000000  0.4532490000000  0.5261050000000 1.0
C      1  0.4671220000000  0.5281570000000  0.5610160000000 1.0
C      1  0.4537210000000  0.4708310000000  0.4932240000000 1.0
C      1  0.5186410000000  0.5219430000000  0.5371070000000 1.0
C      1  0.5359410000000  0.5618280000000  0.4973740000000 1.0
C      1  0.4768060000000  0.4558480000000  0.4820400000000 1.0
C      1  0.4514870000000  0.4987110000000  0.4873630000000 1.0
C      1  0.5309160000000  0.5628000000000  0.4665080000000 1.0
END
