TITL C-8694-7203-68 1.43554596115985e-06 125000 -367.074558695109 0 0 60 (C1) n - 1
REM
REM in /home/bkarasulu/CARBON/AIRSS/Generating-Clusters/EDIP-Nigel-Params/Higher-Symm/Box-15A/Only-C60/SD-CG/HFTN-CG
REM
REM
REM
REM
REM
REM ./C.cell (414f73aa93bd7a1190c7fd0f31ff2f98)
REM
REM compiler GCC version 9.2.1 20190827 (Red Hat 9.2.1-1)
REM options -cpp -mtune=generic -march=x86-64 -g -O0 -fpre-include=/usr/include/finclude/math-vector-fortran.h
REM seed -1010839083 657964644 1350698677 -1419601098 -784758055 756744457 -1431117807 -947458493 -1383211081 -274281408 1661919726 -1795789161 508679450 -1754077023 -1109272623 -2084003443 72355127 1400793775 420873543 -693464720 -1766621289 -1347238609 37284518 -2010585054 -2013608693 1997668139 1015839061 -2123987897 1935850674 350939063 -1128133867 361869079 280710162
REM
CELL 1.54180   50.00000   50.00000   50.00000   90.00000   90.00000   90.00000
LATT -1
SFAC C  
C      1  0.4392510000000  0.4901900000000  0.5411550000000 1.0
C      1  0.4395560000000  0.4901780000000  0.4585040000000 1.0
C      1  0.5197950000000  0.5737700000000  0.5237160000000 1.0
C      1  0.5292630000000  0.5733170000000  0.4737760000000 1.0
C      1  0.5392380000000  0.5014600000000  0.4450560000000 1.0
C      1  0.5418710000000  0.4992180000000  0.5569400000000 1.0
C      1  0.4700670000000  0.4375660000000  0.5263670000000 1.0
C      1  0.4705870000000  0.4374330000000  0.4725390000000 1.0
C      1  0.5790060000000  0.4655980000000  0.4843830000000 1.0
C      1  0.5790560000000  0.4653870000000  0.5159390000000 1.0
C      1  0.4542800000000  0.5413760000000  0.5594910000000 1.0
C      1  0.4506250000000  0.5402460000000  0.4418050000000 1.0
C      1  0.4273710000000  0.5129670000000  0.5301080000000 1.0
C      1  0.4276050000000  0.5115890000000  0.4720870000000 1.0
C      1  0.5419820000000  0.4986990000000  0.4747860000000 1.0
C      1  0.5424250000000  0.4979890000000  0.5271220000000 1.0
C      1  0.5068670000000  0.4774290000000  0.4243810000000 1.0
C      1  0.5066510000000  0.4766470000000  0.5746830000000 1.0
C      1  0.4663440000000  0.4945070000000  0.4470020000000 1.0
C      1  0.4660200000000  0.4937250000000  0.5523880000000 1.0
C      1  0.4333090000000  0.4664930000000  0.5280710000000 1.0
C      1  0.4337500000000  0.4656380000000  0.4699150000000 1.0
C      1  0.4431400000000  0.5298810000000  0.4865750000000 1.0
C      1  0.4414380000000  0.5323330000000  0.5154870000000 1.0
C      1  0.5411640000000  0.5548290000000  0.5168970000000 1.0
C      1  0.5441070000000  0.5530880000000  0.4863750000000 1.0
C      1  0.4581520000000  0.5468380000000  0.4685620000000 1.0
C      1  0.4583380000000  0.5490150000000  0.5326340000000 1.0
C      1  0.4840130000000  0.4718890000000  0.4395850000000 1.0
C      1  0.4837750000000  0.4711350000000  0.5595480000000 1.0
C      1  0.5341470000000  0.4736600000000  0.5690590000000 1.0
C      1  0.5340710000000  0.4759330000000  0.4316540000000 1.0
C      1  0.5249670000000  0.5198900000000  0.5651890000000 1.0
C      1  0.5202990000000  0.5207680000000  0.4375050000000 1.0
C      1  0.4988580000000  0.5251490000000  0.5170780000000 1.0
C      1  0.4990630000000  0.5235130000000  0.4867760000000 1.0
C      1  0.4909960000000  0.4506510000000  0.4589690000000 1.0
C      1  0.4906500000000  0.4495620000000  0.5406870000000 1.0
C      1  0.5299770000000  0.5251730000000  0.5185410000000 1.0
C      1  0.5302630000000  0.5248240000000  0.4857330000000 1.0
C      1  0.5553880000000  0.4462750000000  0.4837130000000 1.0
C      1  0.5554230000000  0.4459860000000  0.5163750000000 1.0
C      1  0.4884080000000  0.5455320000000  0.4694090000000 1.0
C      1  0.4882810000000  0.5512150000000  0.5270560000000 1.0
C      1  0.5705930000000  0.4950040000000  0.5159920000000 1.0
C      1  0.5704730000000  0.4952080000000  0.4847600000000 1.0
C      1  0.4956920000000  0.5766220000000  0.5070970000000 1.0
C      1  0.5013480000000  0.5718190000000  0.4781350000000 1.0
C      1  0.5196230000000  0.4519260000000  0.4706410000000 1.0
C      1  0.5194590000000  0.4509790000000  0.5294090000000 1.0
C      1  0.5238780000000  0.4769130000000  0.5151350000000 1.0
C      1  0.5238530000000  0.4772060000000  0.4861530000000 1.0
C      1  0.5396970000000  0.4531380000000  0.4490150000000 1.0
C      1  0.5394210000000  0.4511780000000  0.5511800000000 1.0
C      1  0.4481980000000  0.4475470000000  0.4848960000000 1.0
C      1  0.4482190000000  0.4482720000000  0.5135790000000 1.0
C      1  0.4726940000000  0.5202610000000  0.5632910000000 1.0
C      1  0.4708710000000  0.5213580000000  0.4345660000000 1.0
C      1  0.4995470000000  0.5284620000000  0.5614870000000 1.0
C      1  0.4966000000000  0.5355440000000  0.4410450000000 1.0
END
