TITL C-8697-8172-196 2.37578303600174e-06 125000 -368.889120294281 0 0 60 (C1) n - 1
REM
REM in /home/bkarasulu/CARBON/AIRSS/Generating-Clusters/EDIP-Nigel-Params/Higher-Symm/Box-15A/Only-C60/SD-CG/HFTN-CG
REM
REM
REM
REM
REM
REM ./C.cell (414f73aa93bd7a1190c7fd0f31ff2f98)
REM
REM compiler GCC version 9.2.1 20190827 (Red Hat 9.2.1-1)
REM options -cpp -mtune=generic -march=x86-64 -g -O0 -fpre-include=/usr/include/finclude/math-vector-fortran.h
REM seed 857637314 400762040 -1482020711 1008113622 -1468582041 1907595584 1165026255 2028875665 -1329061270 -363053417 1089185233 926371558 1775599332 1395836436 -953594366 -1591066003 1488484506 904045141 -621508312 1964260325 -2086070556 1914432925 -222113665 833757018 -600816677 -1715593228 -1978660060 1880195249 -1183260499 263193988 -107495893 -824594654 470639890
REM
CELL 1.54180   50.00000   50.00000   50.00000   90.00000   90.00000   90.00000
LATT -1
SFAC C  
C      1  0.5677260000000  0.4827220000000  0.4909010000000 1.0
C      1  0.5094160000000  0.5559250000000  0.5100070000000 1.0
C      1  0.4938900000000  0.5124550000000  0.4261510000000 1.0
C      1  0.5204280000000  0.4712380000000  0.4380800000000 1.0
C      1  0.5035670000000  0.5269790000000  0.5043930000000 1.0
C      1  0.5549230000000  0.5508730000000  0.5114940000000 1.0
C      1  0.4393200000000  0.5383310000000  0.5105270000000 1.0
C      1  0.4970040000000  0.4706510000000  0.5170740000000 1.0
C      1  0.5465260000000  0.5496920000000  0.5415700000000 1.0
C      1  0.4582240000000  0.4625680000000  0.5590010000000 1.0
C      1  0.4637630000000  0.5517310000000  0.5213670000000 1.0
C      1  0.5206270000000  0.4432390000000  0.4824350000000 1.0
C      1  0.5056360000000  0.4569340000000  0.4593730000000 1.0
C      1  0.4643160000000  0.4423500000000  0.4774040000000 1.0
C      1  0.5571010000000  0.4652670000000  0.4693170000000 1.0
C      1  0.5025190000000  0.4438110000000  0.5674780000000 1.0
C      1  0.4785610000000  0.4395300000000  0.5540870000000 1.0
C      1  0.4824490000000  0.5691360000000  0.5058410000000 1.0
C      1  0.4781990000000  0.4293330000000  0.4978010000000 1.0
C      1  0.4851860000000  0.4849630000000  0.4903700000000 1.0
C      1  0.4401240000000  0.5275350000000  0.4798200000000 1.0
C      1  0.4731160000000  0.5097060000000  0.4454580000000 1.0
C      1  0.5070810000000  0.5069890000000  0.4815210000000 1.0
C      1  0.5670850000000  0.5012570000000  0.5386820000000 1.0
C      1  0.5182110000000  0.5118800000000  0.5461970000000 1.0
C      1  0.5526700000000  0.5206600000000  0.5095090000000 1.0
C      1  0.5226310000000  0.4592950000000  0.5080290000000 1.0
C      1  0.5176170000000  0.5579360000000  0.5394090000000 1.0
C      1  0.4331270000000  0.4971930000000  0.4784910000000 1.0
C      1  0.4579750000000  0.4978660000000  0.4973960000000 1.0
C      1  0.5606440000000  0.5102880000000  0.4834580000000 1.0
C      1  0.4318890000000  0.5169490000000  0.5314210000000 1.0
C      1  0.5477950000000  0.5191960000000  0.5531830000000 1.0
C      1  0.4751290000000  0.5769390000000  0.4800130000000 1.0
C      1  0.5364620000000  0.5111650000000  0.4652740000000 1.0
C      1  0.4729600000000  0.4889270000000  0.5599230000000 1.0
C      1  0.5158510000000  0.4670170000000  0.5651760000000 1.0
C      1  0.4625170000000  0.5331100000000  0.4599090000000 1.0
C      1  0.5080920000000  0.5533490000000  0.4499420000000 1.0
C      1  0.5242200000000  0.5099350000000  0.5162040000000 1.0
C      1  0.4816510000000  0.5549900000000  0.4637910000000 1.0
C      1  0.5039910000000  0.4202620000000  0.4899100000000 1.0
C      1  0.5442880000000  0.4564210000000  0.5258110000000 1.0
C      1  0.5319210000000  0.5487210000000  0.4662580000000 1.0
C      1  0.4563210000000  0.5149220000000  0.5538890000000 1.0
C      1  0.5011330000000  0.4850580000000  0.5480070000000 1.0
C      1  0.4478820000000  0.4914580000000  0.5241400000000 1.0
C      1  0.5068810000000  0.4886700000000  0.4206650000000 1.0
C      1  0.5073670000000  0.5365380000000  0.4275510000000 1.0
C      1  0.5610040000000  0.4783750000000  0.5199710000000 1.0
C      1  0.5337510000000  0.5622410000000  0.4926120000000 1.0
C      1  0.4489900000000  0.4619750000000  0.5302130000000 1.0
C      1  0.5436280000000  0.4839110000000  0.4503780000000 1.0
C      1  0.4348650000000  0.4835970000000  0.4544010000000 1.0
C      1  0.4619240000000  0.4825420000000  0.4478950000000 1.0
C      1  0.4774010000000  0.4477250000000  0.5220480000000 1.0
C      1  0.4784990000000  0.4655370000000  0.4673640000000 1.0
C      1  0.5020570000000  0.5369640000000  0.5529960000000 1.0
C      1  0.4738250000000  0.5370330000000  0.5449570000000 1.0
C      1  0.5480420000000  0.4381400000000  0.4734590000000 1.0
END
