TITL C-8692-4986-77 -6.58800577445845e-08 125000 -363.46048639723 0 0 60 (C1) n - 1
REM
REM in /home/bkarasulu/CARBON/AIRSS/Generating-Clusters/EDIP-Nigel-Params/Higher-Symm/Box-15A/Only-C60/SD-CG/HFTN-CG
REM
REM
REM
REM
REM
REM ./C.cell (414f73aa93bd7a1190c7fd0f31ff2f98)
REM
REM compiler GCC version 9.2.1 20190827 (Red Hat 9.2.1-1)
REM options -cpp -mtune=generic -march=x86-64 -g -O0 -fpre-include=/usr/include/finclude/math-vector-fortran.h
REM seed 1926218117 1781725923 44603143 1529239956 446030844 454429842 1105252979 170757651 -1278235213 -778691336 -2018747180 -2022173768 -2085584583 1729300455 -646543313 824231222 1865881133 -922103076 1150763452 -1974669531 1450298361 -736147962 1728290729 1913308608 -1775865727 171206572 769260890 216205806 -1106841507 -1225638871 865161613 1993577564 468265478
REM
CELL 1.54180   50.00000   50.00000   50.00000   90.00000   90.00000   90.00000
LATT -1
SFAC C  
C      1  0.5338060000000  0.5148440000000  0.4344890000000 1.0
C      1  0.5312990000000  0.5505420000000  0.4505510000000 1.0
C      1  0.4450020000000  0.4702120000000  0.5229140000000 1.0
C      1  0.5066860000000  0.4809430000000  0.5073590000000 1.0
C      1  0.4931190000000  0.5362950000000  0.4767170000000 1.0
C      1  0.4584300000000  0.5590410000000  0.5131910000000 1.0
C      1  0.4586090000000  0.5369590000000  0.4439120000000 1.0
C      1  0.4714760000000  0.4399320000000  0.4887940000000 1.0
C      1  0.4333110000000  0.5190390000000  0.5305280000000 1.0
C      1  0.5408670000000  0.5495780000000  0.4964650000000 1.0
C      1  0.5627430000000  0.4564740000000  0.5045510000000 1.0
C      1  0.5077940000000  0.5619810000000  0.5234350000000 1.0
C      1  0.5223210000000  0.4750480000000  0.5616740000000 1.0
C      1  0.5654140000000  0.5326270000000  0.4961850000000 1.0
C      1  0.5361510000000  0.4393050000000  0.4739610000000 1.0
C      1  0.5719890000000  0.5243470000000  0.4690640000000 1.0
C      1  0.5553970000000  0.5053320000000  0.4545430000000 1.0
C      1  0.4115350000000  0.4920900000000  0.4951990000000 1.0
C      1  0.5045890000000  0.4929220000000  0.5737590000000 1.0
C      1  0.4506790000000  0.5557990000000  0.4621220000000 1.0
C      1  0.4805560000000  0.4464210000000  0.5520700000000 1.0
C      1  0.5639990000000  0.4511060000000  0.4737470000000 1.0
C      1  0.4540800000000  0.4626900000000  0.4953380000000 1.0
C      1  0.5382090000000  0.5419030000000  0.4253980000000 1.0
C      1  0.5362550000000  0.4395540000000  0.5053350000000 1.0
C      1  0.5534840000000  0.5294530000000  0.5544680000000 1.0
C      1  0.4565680000000  0.4841020000000  0.4743590000000 1.0
C      1  0.5052420000000  0.5420930000000  0.5438330000000 1.0
C      1  0.5336690000000  0.5691210000000  0.5156150000000 1.0
C      1  0.4864460000000  0.5335410000000  0.4480250000000 1.0
C      1  0.4567700000000  0.5365060000000  0.5341080000000 1.0
C      1  0.5605710000000  0.5077970000000  0.5111590000000 1.0
C      1  0.4886880000000  0.4315440000000  0.5111120000000 1.0
C      1  0.4931220000000  0.4832260000000  0.4337420000000 1.0
C      1  0.4850860000000  0.5666800000000  0.5079340000000 1.0
C      1  0.5110090000000  0.4517030000000  0.5172880000000 1.0
C      1  0.5631720000000  0.4848680000000  0.4928440000000 1.0
C      1  0.4623720000000  0.4696090000000  0.5472310000000 1.0
C      1  0.4739170000000  0.4251030000000  0.5344340000000 1.0
C      1  0.4584200000000  0.4886240000000  0.5677420000000 1.0
C      1  0.5336100000000  0.5049610000000  0.4764770000000 1.0
C      1  0.4809210000000  0.5052960000000  0.5657860000000 1.0
C      1  0.5101600000000  0.4520520000000  0.5478140000000 1.0
C      1  0.5237460000000  0.5358150000000  0.4756370000000 1.0
C      1  0.4849550000000  0.4461640000000  0.4627850000000 1.0
C      1  0.5469860000000  0.4837050000000  0.5517290000000 1.0
C      1  0.4891170000000  0.5036840000000  0.5156500000000 1.0
C      1  0.5136610000000  0.4573520000000  0.4634630000000 1.0
C      1  0.4769160000000  0.5131140000000  0.4900150000000 1.0
C      1  0.4832130000000  0.5218100000000  0.5404930000000 1.0
C      1  0.5122380000000  0.4837510000000  0.4789490000000 1.0
C      1  0.5281810000000  0.5374730000000  0.5586710000000 1.0
C      1  0.5042240000000  0.5090370000000  0.4434450000000 1.0
C      1  0.4705470000000  0.4700510000000  0.4497640000000 1.0
C      1  0.4464180000000  0.5213080000000  0.4940750000000 1.0
C      1  0.5583010000000  0.5062270000000  0.5401350000000 1.0
C      1  0.4423310000000  0.5504950000000  0.4883950000000 1.0
C      1  0.5155310000000  0.4646190000000  0.4346650000000 1.0
C      1  0.4304410000000  0.5015420000000  0.4767710000000 1.0
C      1  0.4256480000000  0.4925920000000  0.5200890000000 1.0
END
