TITL C-8697-8172-5 -9.18939327307415e-05 125000 -358.120454039881 0 0 60 (C5) n - 1
REM
REM in /home/bkarasulu/CARBON/AIRSS/Generating-Clusters/EDIP-Nigel-Params/Higher-Symm/Box-15A/Only-C60/SD-CG/HFTN-CG
REM
REM
REM
REM
REM
REM ./C.cell (414f73aa93bd7a1190c7fd0f31ff2f98)
REM
REM compiler GCC version 9.2.1 20190827 (Red Hat 9.2.1-1)
REM options -cpp -mtune=generic -march=x86-64 -g -O0 -fpre-include=/usr/include/finclude/math-vector-fortran.h
REM seed 373536425 -2082226715 -1312519093 883568092 -82577583 299302858 826256336 1302768746 2133718916 -1518382464 -1072879531 1836660404 743498046 1719988833 -1402508422 -256007969 -2094158955 956864150 2018689890 1328941533 -82952464 938741488 1935448880 -1095398435 1188289741 -505008224 705752388 1294498629 -544952474 -1112389132 -1257354247 1008774963 -484569124
REM
CELL 1.54180   50.00000   50.00000   50.00000   90.00000   90.00000   90.00000
LATT -1
SFAC C  
C      1  0.4293590000000  0.5041840000000  0.5280280000000 1.0
C      1  0.4515150000000  0.5041860000000  0.4414780000000 1.0
C      1  0.5406750000000  0.5041840000000  0.4358030000000 1.0
C      1  0.5736240000000  0.5041810000000  0.5188470000000 1.0
C      1  0.5048270000000  0.5041810000000  0.5758450000000 1.0
C      1  0.5245420000000  0.4560120000000  0.4966530000000 1.0
C      1  0.5107650000000  0.4560120000000  0.5223060000000 1.0
C      1  0.4821100000000  0.4560130000000  0.5171310000000 1.0
C      1  0.4781770000000  0.4560140000000  0.4882790000000 1.0
C      1  0.5044010000000  0.4560130000000  0.4756240000000 1.0
C      1  0.5445800000000  0.4777460000000  0.5534010000000 1.0
C      1  0.4629880000000  0.4777470000000  0.5589000000000 1.0
C      1  0.4325450000000  0.4777500000000  0.4830000000000 1.0
C      1  0.4953220000000  0.4777500000000  0.4305930000000 1.0
C      1  0.5645630000000  0.4777470000000  0.4741030000000 1.0
C      1  0.5228000000000  0.4577870000000  0.5489240000000 1.0
C      1  0.4605140000000  0.4577890000000  0.5368030000000 1.0
C      1  0.4527950000000  0.4577910000000  0.4738200000000 1.0
C      1  0.5103100000000  0.4577910000000  0.4470150000000 1.0
C      1  0.5535750000000  0.4577880000000  0.4934320000000 1.0
C      1  0.5419470000000  0.5090480000000  0.4789600000000 1.0
C      1  0.5329730000000  0.5090470000000  0.5333920000000 1.0
C      1  0.4784320000000  0.5090480000000  0.5416770000000 1.0
C      1  0.4536980000000  0.5090500000000  0.4923660000000 1.0
C      1  0.4929520000000  0.5090500000000  0.4536050000000 1.0
C      1  0.5370720000000  0.4552210000000  0.4396120000000 1.0
C      1  0.5688870000000  0.4552180000000  0.5165960000000 1.0
C      1  0.5055010000000  0.4552180000000  0.5706440000000 1.0
C      1  0.4345120000000  0.4552210000000  0.5270620000000 1.0
C      1  0.4540230000000  0.4552230000000  0.4460800000000 1.0
C      1  0.4906320000000  0.4787860000000  0.5711590000000 1.0
C      1  0.4294280000000  0.4787890000000  0.5130800000000 1.0
C      1  0.4657510000000  0.4787900000000  0.4369250000000 1.0
C      1  0.5494040000000  0.4787880000000  0.4479360000000 1.0
C      1  0.5647810000000  0.4787850000000  0.5308970000000 1.0
C      1  0.4262100000000  0.5379650000000  0.4854720000000 1.0
C      1  0.4910160000000  0.5379650000000  0.4253320000000 1.0
C      1  0.5682380000000  0.5379620000000  0.4683820000000 1.0
C      1  0.5511590000000  0.5379600000000  0.5551280000000 1.0
C      1  0.4633810000000  0.5379620000000  0.5656900000000 1.0
C      1  0.4331140000000  0.5052770000000  0.4653910000000 1.0
C      1  0.5122460000000  0.5052760000000  0.4256930000000 1.0
C      1  0.5744550000000  0.5052730000000  0.4886850000000 1.0
C      1  0.5337700000000  0.5052720000000  0.5673140000000 1.0
C      1  0.4464160000000  0.5052740000000  0.5529180000000 1.0
C      1  0.4616990000000  0.5436950000000  0.5371770000000 1.0
C      1  0.4528090000000  0.5436970000000  0.4750620000000 1.0
C      1  0.5091370000000  0.5436970000000  0.4474120000000 1.0
C      1  0.5528400000000  0.5436940000000  0.4924390000000 1.0
C      1  0.5235210000000  0.5436930000000  0.5479170000000 1.0
C      1  0.4651700000000  0.5289700000000  0.4352030000000 1.0
C      1  0.5508640000000  0.5289680000000  0.4468510000000 1.0
C      1  0.5662670000000  0.5289650000000  0.5319510000000 1.0
C      1  0.4900920000000  0.5289650000000  0.5728960000000 1.0
C      1  0.4276110000000  0.5289680000000  0.5131030000000 1.0
C      1  0.5110930000000  0.5453100000000  0.5220030000000 1.0
C      1  0.4825040000000  0.5453100000000  0.5173490000000 1.0
C      1  0.4780960000000  0.5453110000000  0.4887210000000 1.0
C      1  0.5039600000000  0.5453110000000  0.4756820000000 1.0
C      1  0.5243530000000  0.5453100000000  0.4962510000000 1.0
END
