TITL C-8695-8180-274 -3.0253012241943e-05 125000 -366.733219320694 0 0 60 (C1) n - 1
REM
REM in /home/bkarasulu/CARBON/AIRSS/Generating-Clusters/EDIP-Nigel-Params/Higher-Symm/Box-15A/Only-C60/SD-CG/HFTN-CG
REM
REM
REM
REM
REM
REM ./C.cell (414f73aa93bd7a1190c7fd0f31ff2f98)
REM
REM compiler GCC version 9.2.1 20190827 (Red Hat 9.2.1-1)
REM options -cpp -mtune=generic -march=x86-64 -g -O0 -fpre-include=/usr/include/finclude/math-vector-fortran.h
REM seed -1749876311 1513539748 405766123 792705284 2041519110 -1864747031 1151299257 1270536239 -1339968891 802813593 -1832807357 1701687342 143456736 1512385262 1796647341 -1927291950 -2127343968 1945952942 -829810538 -978872366 1584783634 -1746514932 1817169141 -465864902 531205312 -1384864774 -1159888504 -1443661186 -1249059005 -452219907 -375873101 -711407676 -486368218
REM
CELL 1.54180   50.00000   50.00000   50.00000   90.00000   90.00000   90.00000
LATT -1
SFAC C  
C      1  0.4786310000000  0.5635200000000  0.5382060000000 1.0
C      1  0.5327660000000  0.4845470000000  0.5598060000000 1.0
C      1  0.5600650000000  0.5345580000000  0.4841630000000 1.0
C      1  0.5121900000000  0.4438680000000  0.5378920000000 1.0
C      1  0.5138540000000  0.5544960000000  0.4649550000000 1.0
C      1  0.4860540000000  0.4434310000000  0.4647820000000 1.0
C      1  0.4640160000000  0.5152220000000  0.5588580000000 1.0
C      1  0.4626750000000  0.4787650000000  0.4363070000000 1.0
C      1  0.5371690000000  0.5160340000000  0.4395950000000 1.0
C      1  0.4439850000000  0.4640060000000  0.4837610000000 1.0
C      1  0.4444790000000  0.5323740000000  0.5152190000000 1.0
C      1  0.5539900000000  0.4656630000000  0.5180680000000 1.0
C      1  0.5552780000000  0.4842230000000  0.5404340000000 1.0
C      1  0.4832450000000  0.5394190000000  0.5586400000000 1.0
C      1  0.5346480000000  0.5535770000000  0.4879580000000 1.0
C      1  0.4458390000000  0.5123540000000  0.5359880000000 1.0
C      1  0.5568030000000  0.5137330000000  0.4623530000000 1.0
C      1  0.4427690000000  0.4835100000000  0.4603980000000 1.0
C      1  0.5120320000000  0.4640470000000  0.5591190000000 1.0
C      1  0.4861250000000  0.4605240000000  0.4409930000000 1.0
C      1  0.5157090000000  0.5362910000000  0.4414800000000 1.0
C      1  0.4649770000000  0.4435050000000  0.4848490000000 1.0
C      1  0.5337610000000  0.4446860000000  0.5182500000000 1.0
C      1  0.4595710000000  0.5576680000000  0.5161700000000 1.0
C      1  0.5593320000000  0.4853650000000  0.4697700000000 1.0
C      1  0.4695860000000  0.5667760000000  0.4917720000000 1.0
C      1  0.4883090000000  0.4707910000000  0.5724770000000 1.0
C      1  0.4479040000000  0.5118110000000  0.4703730000000 1.0
C      1  0.4337860000000  0.4878930000000  0.5293380000000 1.0
C      1  0.5653610000000  0.5103740000000  0.5321960000000 1.0
C      1  0.5284260000000  0.4322420000000  0.4935570000000 1.0
C      1  0.5236040000000  0.5584090000000  0.5173640000000 1.0
C      1  0.4710310000000  0.4313210000000  0.5093920000000 1.0
C      1  0.5146660000000  0.5322050000000  0.5610750000000 1.0
C      1  0.5109750000000  0.4700810000000  0.4302780000000 1.0
C      1  0.4902000000000  0.5278190000000  0.4286690000000 1.0
C      1  0.4862800000000  0.5610540000000  0.4706770000000 1.0
C      1  0.5662000000000  0.4736610000000  0.4940470000000 1.0
C      1  0.4714910000000  0.4919540000000  0.5727330000000 1.0
C      1  0.5105820000000  0.4322310000000  0.4727570000000 1.0
C      1  0.4886330000000  0.4309360000000  0.5299020000000 1.0
C      1  0.5023020000000  0.5749200000000  0.5263550000000 1.0
C      1  0.4328940000000  0.5236870000000  0.4910660000000 1.0
C      1  0.5705040000000  0.5227990000000  0.5077960000000 1.0
C      1  0.4315600000000  0.4715580000000  0.5079120000000 1.0
C      1  0.5255950000000  0.5088380000000  0.5720430000000 1.0
C      1  0.4732500000000  0.5042220000000  0.4235810000000 1.0
C      1  0.5285580000000  0.4912140000000  0.4281540000000 1.0
C      1  0.5212140000000  0.4895520000000  0.4712080000000 1.0
C      1  0.4851450000000  0.4946130000000  0.5256360000000 1.0
C      1  0.4905070000000  0.5286320000000  0.4915820000000 1.0
C      1  0.5102390000000  0.4693570000000  0.4906780000000 1.0
C      1  0.5136520000000  0.4837280000000  0.5202520000000 1.0
C      1  0.4872700000000  0.5243340000000  0.5226250000000 1.0
C      1  0.4766860000000  0.5056010000000  0.4788170000000 1.0
C      1  0.4812210000000  0.4818010000000  0.4982950000000 1.0
C      1  0.5167210000000  0.5323530000000  0.5306490000000 1.0
C      1  0.4950520000000  0.5006370000000  0.4556020000000 1.0
C      1  0.5300520000000  0.5099340000000  0.5156300000000 1.0
C      1  0.5205820000000  0.5172700000000  0.4874980000000 1.0
END
