TITL C-8696-5006-142 -5.75015284323173e-08 125000 -361.019297905191 0 0 60 (C4) n - 1
REM
REM in /home/bkarasulu/CARBON/AIRSS/Generating-Clusters/EDIP-Nigel-Params/Higher-Symm/Box-15A/Only-C60/SD-CG/HFTN-CG
REM
REM
REM
REM
REM
REM ./C.cell (414f73aa93bd7a1190c7fd0f31ff2f98)
REM
REM compiler GCC version 9.2.1 20190827 (Red Hat 9.2.1-1)
REM options -cpp -mtune=generic -march=x86-64 -g -O0 -fpre-include=/usr/include/finclude/math-vector-fortran.h
REM seed 333614452 140148862 240298123 785382454 -1743680569 -606211551 644326287 905557111 -1063978382 725046098 -6268745 438863941 -219499988 -278530770 -2068836233 -684072907 -633140119 -1297168171 965572545 -1512953303 1278598262 1038426294 -1168518523 1173732517 938960884 1717829114 1033945013 -2093613726 399662424 -770150669 -734442119 -1407464228 1579746552
REM
CELL 1.54180   50.00000   50.00000   50.00000   90.00000   90.00000   90.00000
LATT -1
SFAC C  
C      1  0.4291390000000  0.5270380000000  0.4925640000000 1.0
C      1  0.4167410000000  0.5323970000000  0.5173110000000 1.0
C      1  0.4158780000000  0.5208110000000  0.5419870000000 1.0
C      1  0.4925900000000  0.5270940000000  0.5708430000000 1.0
C      1  0.5173410000000  0.5324370000000  0.5832370000000 1.0
C      1  0.5420070000000  0.5208290000000  0.5841080000000 1.0
C      1  0.5708680000000  0.5270310000000  0.5073920000000 1.0
C      1  0.5832680000000  0.5323460000000  0.4826370000000 1.0
C      1  0.5841270000000  0.5207200000000  0.4579790000000 1.0
C      1  0.5074180000000  0.5269760000000  0.4291130000000 1.0
C      1  0.4826670000000  0.5323060000000  0.4167100000000 1.0
C      1  0.4579990000000  0.5207030000000  0.4158580000000 1.0
C      1  0.5092820000000  0.5447390000000  0.4519650000000 1.0
C      1  0.4859400000000  0.5592580000000  0.4556520000000 1.0
C      1  0.4621630000000  0.5545980000000  0.4669730000000 1.0
C      1  0.4520070000000  0.5447790000000  0.4906880000000 1.0
C      1  0.4557080000000  0.5593090000000  0.5140190000000 1.0
C      1  0.4670250000000  0.5546550000000  0.5378000000000 1.0
C      1  0.4907300000000  0.5448200000000  0.5479620000000 1.0
C      1  0.5140760000000  0.5593260000000  0.5442520000000 1.0
C      1  0.5378520000000  0.5546420000000  0.5329380000000 1.0
C      1  0.5480050000000  0.5447810000000  0.5092400000000 1.0
C      1  0.5443080000000  0.5592740000000  0.4858840000000 1.0
C      1  0.5329900000000  0.5545840000000  0.4621110000000 1.0
C      1  0.4622000000000  0.4935390000000  0.4225870000000 1.0
C      1  0.4309340000000  0.4977560000000  0.4907290000000 1.0
C      1  0.4132320000000  0.4847030000000  0.5109030000000 1.0
C      1  0.4225810000000  0.4936380000000  0.5378040000000 1.0
C      1  0.4907270000000  0.4978120000000  0.5690680000000 1.0
C      1  0.5108890000000  0.4847520000000  0.5867790000000 1.0
C      1  0.5377980000000  0.4936550000000  0.5774240000000 1.0
C      1  0.5690660000000  0.4977530000000  0.5092740000000 1.0
C      1  0.5867640000000  0.4846620000000  0.4891220000000 1.0
C      1  0.5774180000000  0.4935560000000  0.4622060000000 1.0
C      1  0.5092720000000  0.4976970000000  0.4309360000000 1.0
C      1  0.4891070000000  0.4846130000000  0.4132460000000 1.0
C      1  0.4954110000000  0.4482760000000  0.4384650000000 1.0
C      1  0.4766380000000  0.4606280000000  0.4577730000000 1.0
C      1  0.4446460000000  0.4533340000000  0.4762770000000 1.0
C      1  0.4384160000000  0.4483380000000  0.5046240000000 1.0
C      1  0.4577360000000  0.4606840000000  0.5233890000000 1.0
C      1  0.4762330000000  0.4533950000000  0.5553860000000 1.0
C      1  0.5045750000000  0.4483750000000  0.5616190000000 1.0
C      1  0.5233520000000  0.4606910000000  0.5422910000000 1.0
C      1  0.5553420000000  0.4533580000000  0.5237990000000 1.0
C      1  0.5615700000000  0.4483140000000  0.4954600000000 1.0
C      1  0.5422530000000  0.4606350000000  0.4766750000000 1.0
C      1  0.5237550000000  0.4532980000000  0.4446900000000 1.0
C      1  0.4904010000000  0.4563970000000  0.4118150000000 1.0
C      1  0.4620030000000  0.4853270000000  0.4510560000000 1.0
C      1  0.4382980000000  0.4809230000000  0.4677020000000 1.0
C      1  0.4117740000000  0.4564870000000  0.5096290000000 1.0
C      1  0.4510430000000  0.4853990000000  0.5380070000000 1.0
C      1  0.4676840000000  0.4809950000000  0.5617150000000 1.0
C      1  0.5095880000000  0.4565380000000  0.5882560000000 1.0
C      1  0.5379930000000  0.4853960000000  0.5489670000000 1.0
C      1  0.5616970000000  0.4809590000000  0.5323290000000 1.0
C      1  0.5882150000000  0.4564480000000  0.4904420000000 1.0
C      1  0.5489540000000  0.4853240000000  0.4620170000000 1.0
C      1  0.5323110000000  0.4808860000000  0.4383160000000 1.0
END
