TITL C-8697-8172-173 4.26463389434975e-06 125000 -356.624313105011 0 0 60 (C1) n - 1
REM
REM in /home/bkarasulu/CARBON/AIRSS/Generating-Clusters/EDIP-Nigel-Params/Higher-Symm/Box-15A/Only-C60/SD-CG/HFTN-CG
REM
REM
REM
REM
REM
REM ./C.cell (414f73aa93bd7a1190c7fd0f31ff2f98)
REM
REM compiler GCC version 9.2.1 20190827 (Red Hat 9.2.1-1)
REM options -cpp -mtune=generic -march=x86-64 -g -O0 -fpre-include=/usr/include/finclude/math-vector-fortran.h
REM seed -1492150440 341977316 -448593532 -69032894 483828498 665159956 -834019061 -827339068 -1999931823 -1171122894 916688193 -425952859 1235416907 -758050463 1884117788 -1773100778 -377588142 -207716154 -853981165 523915459 -268100545 1990283884 -336285925 -1104781649 -1032532512 -1491598240 1518479824 1976476050 -1794395535 -974367324 -662427244 -590458140 1215655132
REM
CELL 1.54180   50.00000   50.00000   50.00000   90.00000   90.00000   90.00000
LATT -1
SFAC C  
C      1  0.5299800000000  0.4688060000000  0.4286370000000 1.0
C      1  0.4328770000000  0.4698060000000  0.4752410000000 1.0
C      1  0.4717320000000  0.4703900000000  0.5730390000000 1.0
C      1  0.5652160000000  0.4733020000000  0.5273010000000 1.0
C      1  0.5318200000000  0.5363800000000  0.5497620000000 1.0
C      1  0.4507060000000  0.5335100000000  0.5381560000000 1.0
C      1  0.4659270000000  0.5320950000000  0.4534160000000 1.0
C      1  0.5511160000000  0.5333780000000  0.4614950000000 1.0
C      1  0.5729910000000  0.4942030000000  0.4843080000000 1.0
C      1  0.4847290000000  0.4928420000000  0.4239730000000 1.0
C      1  0.4289790000000  0.4928170000000  0.5179970000000 1.0
C      1  0.5149280000000  0.4948090000000  0.5771680000000 1.0
C      1  0.5727770000000  0.5208530000000  0.5197600000000 1.0
C      1  0.4836150000000  0.5184610000000  0.5775270000000 1.0
C      1  0.4248400000000  0.5177940000000  0.4816880000000 1.0
C      1  0.5160880000000  0.5164820000000  0.4240140000000 1.0
C      1  0.4311530000000  0.5217190000000  0.5196540000000 1.0
C      1  0.5141640000000  0.5256930000000  0.5712360000000 1.0
C      1  0.5700790000000  0.5228930000000  0.4811970000000 1.0
C      1  0.4845660000000  0.5229860000000  0.4318220000000 1.0
C      1  0.4194400000000  0.4900210000000  0.4906210000000 1.0
C      1  0.5137130000000  0.4867020000000  0.4141010000000 1.0
C      1  0.5796980000000  0.4930180000000  0.5125850000000 1.0
C      1  0.4868080000000  0.4886600000000  0.5882900000000 1.0
C      1  0.5113870000000  0.4514790000000  0.4647390000000 1.0
C      1  0.4679800000000  0.4491340000000  0.4927850000000 1.0
C      1  0.4867030000000  0.4453460000000  0.5378240000000 1.0
C      1  0.5341000000000  0.4482880000000  0.5085310000000 1.0
C      1  0.4958140000000  0.5414850000000  0.5342450000000 1.0
C      1  0.4657740000000  0.5468730000000  0.4948420000000 1.0
C      1  0.5056610000000  0.5468900000000  0.4628430000000 1.0
C      1  0.5320430000000  0.5429030000000  0.5025120000000 1.0
C      1  0.4667730000000  0.5140740000000  0.5535000000000 1.0
C      1  0.5526840000000  0.5172260000000  0.5404740000000 1.0
C      1  0.5357320000000  0.5128090000000  0.4463590000000 1.0
C      1  0.4441200000000  0.5136570000000  0.4605290000000 1.0
C      1  0.4738940000000  0.4760470000000  0.4467460000000 1.0
C      1  0.5527520000000  0.4762950000000  0.4723630000000 1.0
C      1  0.5226680000000  0.4792660000000  0.5523070000000 1.0
C      1  0.4515130000000  0.4770910000000  0.5288840000000 1.0
C      1  0.5006500000000  0.5174060000000  0.4724780000000 1.0
C      1  0.4747370000000  0.5177450000000  0.4921610000000 1.0
C      1  0.4936690000000  0.5140740000000  0.5179650000000 1.0
C      1  0.5183970000000  0.5159400000000  0.4990960000000 1.0
C      1  0.4943180000000  0.4822240000000  0.5192020000000 1.0
C      1  0.4788920000000  0.4776550000000  0.4905440000000 1.0
C      1  0.5089910000000  0.4784090000000  0.4790120000000 1.0
C      1  0.5255260000000  0.4780940000000  0.5073920000000 1.0
C      1  0.4818550000000  0.5605970000000  0.4743440000000 1.0
C      1  0.4685170000000  0.5530630000000  0.5245390000000 1.0
C      1  0.5171660000000  0.5583770000000  0.5218960000000 1.0
C      1  0.5328420000000  0.5533910000000  0.4743190000000 1.0
C      1  0.4633940000000  0.4508900000000  0.5219570000000 1.0
C      1  0.4832650000000  0.4505410000000  0.4575180000000 1.0
C      1  0.5456800000000  0.4491480000000  0.4814090000000 1.0
C      1  0.5144270000000  0.4527190000000  0.5406420000000 1.0
C      1  0.4574820000000  0.4869430000000  0.5550970000000 1.0
C      1  0.4494840000000  0.4855180000000  0.4584810000000 1.0
C      1  0.5482860000000  0.4889670000000  0.5435690000000 1.0
C      1  0.5448820000000  0.4854460000000  0.4459060000000 1.0
END
