TITL C-8699-7882-254 -1.25785468595313e-05 125000 -359.981045619765 0 0 60 (C1) n - 1
REM
REM in /home/bkarasulu/CARBON/AIRSS/Generating-Clusters/EDIP-Nigel-Params/Higher-Symm/Box-15A/Only-C60/SD-CG/HFTN-CG
REM
REM
REM
REM
REM
REM ./C.cell (414f73aa93bd7a1190c7fd0f31ff2f98)
REM
REM compiler GCC version 9.2.1 20190827 (Red Hat 9.2.1-1)
REM options -cpp -mtune=generic -march=x86-64 -g -O0 -fpre-include=/usr/include/finclude/math-vector-fortran.h
REM seed 105407694 1261312318 1428078809 693121450 -2028461092 2051526357 -2025284636 -76848568 -1798507127 -1284559623 674387770 1949915544 2099230020 1819900901 1225767795 1274376572 169512482 990079786 -1545196096 172444625 -236406825 2064179420 1107515110 898421737 1845172900 1579881332 -890925246 841666622 2042000827 1873387484 -87820421 -2014048636 510759854
REM
CELL 1.54180   50.00000   50.00000   50.00000   90.00000   90.00000   90.00000
LATT -1
SFAC C  
C      1  0.4875080000000  0.4530480000000  0.5243140000000 1.0
C      1  0.4871750000000  0.5460040000000  0.4740060000000 1.0
C      1  0.5153710000000  0.5509110000000  0.4558930000000 1.0
C      1  0.5139910000000  0.4448710000000  0.5407100000000 1.0
C      1  0.5200000000000  0.4530600000000  0.4887390000000 1.0
C      1  0.5195850000000  0.5474470000000  0.5092790000000 1.0
C      1  0.4609850000000  0.5348180000000  0.5669840000000 1.0
C      1  0.4564330000000  0.4724850000000  0.4392420000000 1.0
C      1  0.4912120000000  0.4495570000000  0.4241420000000 1.0
C      1  0.5046700000000  0.5507610000000  0.5808750000000 1.0
C      1  0.5216420000000  0.4920000000000  0.5173010000000 1.0
C      1  0.5212270000000  0.5064440000000  0.4813790000000 1.0
C      1  0.5098820000000  0.4846760000000  0.4594200000000 1.0
C      1  0.5089720000000  0.5133870000000  0.5355650000000 1.0
C      1  0.5584350000000  0.5270200000000  0.5287230000000 1.0
C      1  0.5597240000000  0.4738150000000  0.4726600000000 1.0
C      1  0.5190860000000  0.5291400000000  0.4346770000000 1.0
C      1  0.5133730000000  0.4634490000000  0.5643120000000 1.0
C      1  0.4574550000000  0.4729690000000  0.4929310000000 1.0
C      1  0.4573130000000  0.5278250000000  0.5079110000000 1.0
C      1  0.4365120000000  0.5082310000000  0.5137980000000 1.0
C      1  0.4352740000000  0.4914570000000  0.4886850000000 1.0
C      1  0.5068980000000  0.4410730000000  0.4668010000000 1.0
C      1  0.5066760000000  0.5572490000000  0.5326670000000 1.0
C      1  0.4828870000000  0.5131700000000  0.5075780000000 1.0
C      1  0.4826580000000  0.4868700000000  0.4925380000000 1.0
C      1  0.4610220000000  0.5561130000000  0.5482330000000 1.0
C      1  0.4624120000000  0.4445640000000  0.4480150000000 1.0
C      1  0.4874590000000  0.5286220000000  0.5784700000000 1.0
C      1  0.4789440000000  0.4758330000000  0.4213240000000 1.0
C      1  0.4712760000000  0.5617680000000  0.4970630000000 1.0
C      1  0.4704400000000  0.4380980000000  0.5022450000000 1.0
C      1  0.4425790000000  0.5075410000000  0.4627540000000 1.0
C      1  0.4468590000000  0.4929850000000  0.5390350000000 1.0
C      1  0.5484340000000  0.5451520000000  0.5084560000000 1.0
C      1  0.5488820000000  0.4536930000000  0.4905320000000 1.0
C      1  0.5412220000000  0.5487330000000  0.4708300000000 1.0
C      1  0.5406740000000  0.4506980000000  0.5278190000000 1.0
C      1  0.4972290000000  0.4967180000000  0.4326720000000 1.0
C      1  0.5006510000000  0.5048480000000  0.5645000000000 1.0
C      1  0.5464860000000  0.5189530000000  0.4709890000000 1.0
C      1  0.5446120000000  0.4801580000000  0.5318830000000 1.0
C      1  0.4708360000000  0.4735370000000  0.5406220000000 1.0
C      1  0.4684550000000  0.5251670000000  0.4602400000000 1.0
C      1  0.5033330000000  0.5287540000000  0.4925120000000 1.0
C      1  0.5033260000000  0.4708120000000  0.5058440000000 1.0
C      1  0.5205650000000  0.5498000000000  0.5576840000000 1.0
C      1  0.5152930000000  0.4507410000000  0.4408130000000 1.0
C      1  0.4817750000000  0.5216110000000  0.4353010000000 1.0
C      1  0.4864280000000  0.4778130000000  0.5650250000000 1.0
C      1  0.5652130000000  0.4998490000000  0.5174910000000 1.0
C      1  0.5659380000000  0.5000790000000  0.4865230000000 1.0
C      1  0.4783400000000  0.4396650000000  0.4727030000000 1.0
C      1  0.4783290000000  0.5619390000000  0.5265740000000 1.0
C      1  0.5347490000000  0.4866640000000  0.5606040000000 1.0
C      1  0.5426080000000  0.5102000000000  0.4424170000000 1.0
C      1  0.5405760000000  0.4793990000000  0.4484450000000 1.0
C      1  0.5375180000000  0.5243270000000  0.5511190000000 1.0
C      1  0.4468940000000  0.5115820000000  0.5601830000000 1.0
C      1  0.4357000000000  0.4918430000000  0.4399500000000 1.0
END
