TITL C-8699-7882-93 -9.9345818277325e-08 125000 -367.830212547663 0 0 60 (C2) n - 1
REM
REM in /home/bkarasulu/CARBON/AIRSS/Generating-Clusters/EDIP-Nigel-Params/Higher-Symm/Box-15A/Only-C60/SD-CG/HFTN-CG
REM
REM
REM
REM
REM
REM ./C.cell (414f73aa93bd7a1190c7fd0f31ff2f98)
REM
REM compiler GCC version 9.2.1 20190827 (Red Hat 9.2.1-1)
REM options -cpp -mtune=generic -march=x86-64 -g -O0 -fpre-include=/usr/include/finclude/math-vector-fortran.h
REM seed -400627145 -2077192308 -520109829 -2099219774 -1438521885 -1148743366 -1078475350 -311988723 2059696698 1787567986 825482833 758236416 1504194037 820444675 286452407 230994038 -2000964341 672811810 1601834403 -2135559651 -1734078974 -51682104 464711085 -2095633680 1672405227 -1474982283 -1801847110 -350223134 -639221035 251270633 1893511511 -1588311546 -611740752
REM
CELL 1.54180   50.00000   50.00000   50.00000   90.00000   90.00000   90.00000
LATT -1
SFAC C  
C      1  0.5072680000000  0.5008160000000  0.4701430000000 1.0
C      1  0.5061170000000  0.4752730000000  0.5139560000000 1.0
C      1  0.5070320000000  0.5236170000000  0.5151670000000 1.0
C      1  0.4927450000000  0.5016080000000  0.5298290000000 1.0
C      1  0.4936080000000  0.4750170000000  0.4866360000000 1.0
C      1  0.4932290000000  0.5233250000000  0.4842730000000 1.0
C      1  0.5025990000000  0.5030620000000  0.4397860000000 1.0
C      1  0.5040600000000  0.4476650000000  0.5276070000000 1.0
C      1  0.5060150000000  0.5497480000000  0.5314890000000 1.0
C      1  0.4974430000000  0.5045250000000  0.5601240000000 1.0
C      1  0.4953560000000  0.4470700000000  0.4736480000000 1.0
C      1  0.4945330000000  0.5490470000000  0.4673330000000 1.0
C      1  0.5150580000000  0.5447770000000  0.5609830000000 1.0
C      1  0.5115420000000  0.5317480000000  0.4305730000000 1.0
C      1  0.5126240000000  0.4252920000000  0.5077530000000 1.0
C      1  0.4854320000000  0.5434740000000  0.4379650000000 1.0
C      1  0.4888210000000  0.5335210000000  0.5686490000000 1.0
C      1  0.4865470000000  0.4252730000000  0.4940290000000 1.0
C      1  0.4685370000000  0.5205990000000  0.4348820000000 1.0
C      1  0.4696460000000  0.4349630000000  0.5150210000000 1.0
C      1  0.4720580000000  0.5471960000000  0.5496860000000 1.0
C      1  0.5316980000000  0.5217950000000  0.5646120000000 1.0
C      1  0.5296280000000  0.4342910000000  0.4865380000000 1.0
C      1  0.5284570000000  0.5456850000000  0.4492070000000 1.0
C      1  0.5137950000000  0.5845930000000  0.5014410000000 1.0
C      1  0.5110030000000  0.4586270000000  0.4222050000000 1.0
C      1  0.5144730000000  0.4545320000000  0.5739630000000 1.0
C      1  0.4871440000000  0.5846820000000  0.4965410000000 1.0
C      1  0.4885490000000  0.4606180000000  0.5787580000000 1.0
C      1  0.4850140000000  0.4529450000000  0.4271400000000 1.0
C      1  0.5476530000000  0.5315440000000  0.4646960000000 1.0
C      1  0.5453420000000  0.4577790000000  0.4881370000000 1.0
C      1  0.5481370000000  0.5121120000000  0.5438850000000 1.0
C      1  0.4527050000000  0.5329040000000  0.5345360000000 1.0
C      1  0.4541930000000  0.4585800000000  0.5128600000000 1.0
C      1  0.4519950000000  0.5115950000000  0.4558320000000 1.0
C      1  0.5365410000000  0.4791400000000  0.5091310000000 1.0
C      1  0.5378780000000  0.5157550000000  0.5153620000000 1.0
C      1  0.5381450000000  0.5043580000000  0.4730190000000 1.0
C      1  0.4632290000000  0.4793350000000  0.4913640000000 1.0
C      1  0.4622970000000  0.5158030000000  0.4842610000000 1.0
C      1  0.4619090000000  0.5054230000000  0.5268640000000 1.0
C      1  0.4395950000000  0.5484770000000  0.5151440000000 1.0
C      1  0.4399150000000  0.4870620000000  0.4496310000000 1.0
C      1  0.4410580000000  0.4640510000000  0.5370560000000 1.0
C      1  0.5609370000000  0.5474290000000  0.4837130000000 1.0
C      1  0.5599440000000  0.4876010000000  0.5506710000000 1.0
C      1  0.5585350000000  0.4625260000000  0.4638190000000 1.0
C      1  0.5457670000000  0.4686180000000  0.5359230000000 1.0
C      1  0.5459290000000  0.5444710000000  0.5070430000000 1.0
C      1  0.5448490000000  0.4840050000000  0.4523460000000 1.0
C      1  0.4538830000000  0.4682800000000  0.4648290000000 1.0
C      1  0.4545660000000  0.5447970000000  0.4918930000000 1.0
C      1  0.4549830000000  0.4856440000000  0.5480160000000 1.0
C      1  0.4740090000000  0.5651280000000  0.4816330000000 1.0
C      1  0.4741450000000  0.4499560000000  0.4527100000000 1.0
C      1  0.4772240000000  0.4840260000000  0.5684860000000 1.0
C      1  0.5267140000000  0.5652560000000  0.5168120000000 1.0
C      1  0.5253040000000  0.4508140000000  0.5484740000000 1.0
C      1  0.5225880000000  0.4821460000000  0.4319170000000 1.0
END
