TITL C-8698-8182-255 -2.79531509349673e-05 125000 -373.343230047249 0 0 60 (C5) n - 1
REM
REM in /home/bkarasulu/CARBON/AIRSS/Generating-Clusters/EDIP-Nigel-Params/Higher-Symm/Box-15A/Only-C60/SD-CG/HFTN-CG
REM
REM
REM
REM
REM
REM ./C.cell (414f73aa93bd7a1190c7fd0f31ff2f98)
REM
REM compiler GCC version 9.2.1 20190827 (Red Hat 9.2.1-1)
REM options -cpp -mtune=generic -march=x86-64 -g -O0 -fpre-include=/usr/include/finclude/math-vector-fortran.h
REM seed -1036384998 439573922 1390931551 1246703863 -1463679721 -1676626387 -1019339958 1495654519 657482163 -1281597445 1946160721 1365695994 -2014744482 1832318657 1876403984 1260781342 1798310498 1600258540 -789769350 -68007324 -1678784603 -1407497296 -1276958710 1440521437 921058948 761271498 853417878 680266495 468778307 225317585 1412060576 965274722 -1680033549
REM
CELL 1.54180   50.00000   50.00000   50.00000   90.00000   90.00000   90.00000
LATT -1
SFAC C  
C      1  0.5506140000000  0.4901070000000  0.4328250000000 1.0
C      1  0.5250250000000  0.5450710000000  0.4328100000000 1.0
C      1  0.4648440000000  0.5377180000000  0.4328170000000 1.0
C      1  0.4532400000000  0.4782110000000  0.4328370000000 1.0
C      1  0.5062490000000  0.4487860000000  0.4328420000000 1.0
C      1  0.4777580000000  0.4309810000000  0.4924440000000 1.0
C      1  0.5587650000000  0.4575180000000  0.4924280000000 1.0
C      1  0.5585590000000  0.5427600000000  0.4924010000000 1.0
C      1  0.4774260000000  0.5689060000000  0.4924000000000 1.0
C      1  0.4274880000000  0.4998230000000  0.4924260000000 1.0
C      1  0.4801100000000  0.5703650000000  0.5214790000000 1.0
C      1  0.4269400000000  0.5028310000000  0.5215050000000 1.0
C      1  0.4747390000000  0.4313940000000  0.5215240000000 1.0
C      1  0.5574500000000  0.4547780000000  0.5215090000000 1.0
C      1  0.5607700000000  0.5406670000000  0.5214820000000 1.0
C      1  0.5346590000000  0.5383640000000  0.5630740000000 1.0
C      1  0.4742470000000  0.5448260000000  0.5630770000000 1.0
C      1  0.4494320000000  0.4893680000000  0.5630960000000 1.0
C      1  0.4945080000000  0.4486300000000  0.5631050000000 1.0
C      1  0.5471810000000  0.4789110000000  0.5630910000000 1.0
C      1  0.4790540000000  0.5122680000000  0.4966340000000 1.0
C      1  0.4818580000000  0.4838690000000  0.4966430000000 1.0
C      1  0.5097340000000  0.4777610000000  0.4966420000000 1.0
C      1  0.5241570000000  0.5023850000000  0.4966330000000 1.0
C      1  0.5051960000000  0.5237110000000  0.4966280000000 1.0
C      1  0.5535840000000  0.5057080000000  0.4970260000000 1.0
C      1  0.5111290000000  0.5527240000000  0.4970150000000 1.0
C      1  0.4532940000000  0.5268760000000  0.4970280000000 1.0
C      1  0.4600050000000  0.4638850000000  0.4970470000000 1.0
C      1  0.5219870000000  0.4508020000000  0.4970460000000 1.0
C      1  0.5607490000000  0.4779570000000  0.5386700000000 1.0
C      1  0.5397510000000  0.5509700000000  0.5386480000000 1.0
C      1  0.4638230000000  0.5535610000000  0.5386540000000 1.0
C      1  0.4378950000000  0.4821500000000  0.5386790000000 1.0
C      1  0.4977990000000  0.4354240000000  0.5386880000000 1.0
C      1  0.4367910000000  0.4748330000000  0.4813120000000 1.0
C      1  0.5043960000000  0.4321050000000  0.4813200000000 1.0
C      1  0.5659230000000  0.4831970000000  0.4812990000000 1.0
C      1  0.5363450000000  0.5575020000000  0.4812780000000 1.0
C      1  0.4565370000000  0.5523330000000  0.4812860000000 1.0
C      1  0.5067770000000  0.4324180000000  0.4538200000000 1.0
C      1  0.5663520000000  0.4855550000000  0.4537980000000 1.0
C      1  0.5342250000000  0.5586340000000  0.4537780000000 1.0
C      1  0.4547950000000  0.5506620000000  0.4537870000000 1.0
C      1  0.4378320000000  0.4726570000000  0.4538130000000 1.0
C      1  0.4468980000000  0.5348210000000  0.5250190000000 1.0
C      1  0.4504830000000  0.4602610000000  0.5250420000000 1.0
C      1  0.5225010000000  0.4406300000000  0.5250420000000 1.0
C      1  0.5634270000000  0.5030570000000  0.5250190000000 1.0
C      1  0.5167010000000  0.5612700000000  0.5250050000000 1.0
C      1  0.4972940000000  0.4756030000000  0.5694160000000 1.0
C      1  0.5223920000000  0.4898970000000  0.5694090000000 1.0
C      1  0.5165530000000  0.5181830000000  0.5694010000000 1.0
C      1  0.4878470000000  0.5213710000000  0.5694020000000 1.0
C      1  0.4759440000000  0.4950550000000  0.5694120000000 1.0
C      1  0.4778790000000  0.4896530000000  0.4283030000000 1.0
C      1  0.5029790000000  0.4757540000000  0.4283050000000 1.0
C      1  0.5239540000000  0.4953310000000  0.4282970000000 1.0
C      1  0.5118170000000  0.5213290000000  0.4282900000000 1.0
C      1  0.4833410000000  0.5178190000000  0.4282930000000 1.0
END
