TITL C-8698-8182-106 1.0362937027838e-06 125000 -360.053790506369 0 0 60 (C1) n - 1
REM
REM in /home/bkarasulu/CARBON/AIRSS/Generating-Clusters/EDIP-Nigel-Params/Higher-Symm/Box-15A/Only-C60/SD-CG/HFTN-CG
REM
REM
REM
REM
REM
REM ./C.cell (414f73aa93bd7a1190c7fd0f31ff2f98)
REM
REM compiler GCC version 9.2.1 20190827 (Red Hat 9.2.1-1)
REM options -cpp -mtune=generic -march=x86-64 -g -O0 -fpre-include=/usr/include/finclude/math-vector-fortran.h
REM seed -1586348083 -1159691169 1820443047 371862459 1658235472 156624390 764443233 1063266126 -1976197808 -339253487 962251215 -1088948961 1608135303 -1182791105 441116632 4446703 947715549 -752949812 403117230 1306645514 -425280388 529513276 -713685763 240470469 1513296716 1352831768 716540761 -1446681048 -304245333 -1503383398 1515075520 -1466848754 114570587
REM
CELL 1.54180   50.00000   50.00000   50.00000   90.00000   90.00000   90.00000
LATT -1
SFAC C  
C      1  0.5687640000000  0.5012750000000  0.5289990000000 1.0
C      1  0.5601990000000  0.4958300000000  0.4786110000000 1.0
C      1  0.4692060000000  0.4568470000000  0.5246010000000 1.0
C      1  0.4680050000000  0.4583790000000  0.4740220000000 1.0
C      1  0.5002380000000  0.5130160000000  0.5531850000000 1.0
C      1  0.4988840000000  0.5121700000000  0.4429470000000 1.0
C      1  0.4723080000000  0.5411340000000  0.4725000000000 1.0
C      1  0.4711450000000  0.5408440000000  0.5224300000000 1.0
C      1  0.4802970000000  0.4930140000000  0.5549470000000 1.0
C      1  0.4770050000000  0.4945040000000  0.4424630000000 1.0
C      1  0.5263550000000  0.4691190000000  0.4418250000000 1.0
C      1  0.5307940000000  0.4727990000000  0.5484820000000 1.0
C      1  0.5076280000000  0.4564300000000  0.5540730000000 1.0
C      1  0.5019270000000  0.4555850000000  0.4398200000000 1.0
C      1  0.5589880000000  0.5624060000000  0.4808790000000 1.0
C      1  0.5584360000000  0.5626890000000  0.5186070000000 1.0
C      1  0.5493270000000  0.4572790000000  0.4525420000000 1.0
C      1  0.5568650000000  0.4622700000000  0.5565080000000 1.0
C      1  0.4780080000000  0.4671290000000  0.4488460000000 1.0
C      1  0.4816640000000  0.4655650000000  0.5487650000000 1.0
C      1  0.5274080000000  0.5338300000000  0.5252530000000 1.0
C      1  0.5281870000000  0.5332930000000  0.4737660000000 1.0
C      1  0.5720110000000  0.4709890000000  0.5334720000000 1.0
C      1  0.5643950000000  0.4669320000000  0.4742530000000 1.0
C      1  0.5155540000000  0.5619540000000  0.5292250000000 1.0
C      1  0.5167390000000  0.5620030000000  0.4688970000000 1.0
C      1  0.5270380000000  0.5016010000000  0.5558290000000 1.0
C      1  0.5239950000000  0.4978550000000  0.4455680000000 1.0
C      1  0.5446030000000  0.5118450000000  0.4595030000000 1.0
C      1  0.5474370000000  0.5176300000000  0.5434440000000 1.0
C      1  0.4941040000000  0.5422180000000  0.5440790000000 1.0
C      1  0.4959600000000  0.5412620000000  0.4534350000000 1.0
C      1  0.4512870000000  0.5613630000000  0.4753390000000 1.0
C      1  0.4495750000000  0.5625780000000  0.5192410000000 1.0
C      1  0.4997020000000  0.4959170000000  0.5016560000000 1.0
C      1  0.4178370000000  0.4967620000000  0.5002740000000 1.0
C      1  0.4883380000000  0.4172580000000  0.4939490000000 1.0
C      1  0.5403380000000  0.4730440000000  0.5108210000000 1.0
C      1  0.5043050000000  0.5690830000000  0.4990180000000 1.0
C      1  0.4169250000000  0.4474640000000  0.4958170000000 1.0
C      1  0.4298950000000  0.4715590000000  0.5001840000000 1.0
C      1  0.5612490000000  0.4528870000000  0.5006570000000 1.0
C      1  0.5476280000000  0.4277580000000  0.4987690000000 1.0
C      1  0.4843760000000  0.5895680000000  0.4987810000000 1.0
C      1  0.4709800000000  0.4961990000000  0.5012200000000 1.0
C      1  0.4576180000000  0.5809830000000  0.4971610000000 1.0
C      1  0.5136750000000  0.4708450000000  0.4998380000000 1.0
C      1  0.4573640000000  0.5147650000000  0.5188490000000 1.0
C      1  0.4594560000000  0.4695420000000  0.4999140000000 1.0
C      1  0.4884730000000  0.5423880000000  0.4979150000000 1.0
C      1  0.5555480000000  0.5839030000000  0.4995370000000 1.0
C      1  0.5629530000000  0.5400060000000  0.4999760000000 1.0
C      1  0.5129980000000  0.5227460000000  0.4995100000000 1.0
C      1  0.4353560000000  0.4278360000000  0.4939650000000 1.0
C      1  0.4603430000000  0.4178680000000  0.4929440000000 1.0
C      1  0.4289790000000  0.5478610000000  0.5036550000000 1.0
C      1  0.5023350000000  0.4439190000000  0.4981190000000 1.0
C      1  0.5206010000000  0.4205740000000  0.4972240000000 1.0
C      1  0.5696030000000  0.5117760000000  0.5014390000000 1.0
C      1  0.4300060000000  0.5196640000000  0.5110220000000 1.0
END
