TITL C-8698-8182-288 -7.14756131996568e-07 125000 -375.76192056264 0 0 60 (C6) n - 1
REM
REM in /home/bkarasulu/CARBON/AIRSS/Generating-Clusters/EDIP-Nigel-Params/Higher-Symm/Box-15A/Only-C60/SD-CG/HFTN-CG
REM
REM
REM
REM
REM
REM ./C.cell (414f73aa93bd7a1190c7fd0f31ff2f98)
REM
REM compiler GCC version 9.2.1 20190827 (Red Hat 9.2.1-1)
REM options -cpp -mtune=generic -march=x86-64 -g -O0 -fpre-include=/usr/include/finclude/math-vector-fortran.h
REM seed 1604842443 -951204403 -717395572 1655514192 1322846696 -1314999932 1809067998 321156094 -89053091 -1625268818 1807450608 1573111081 618175530 740560140 -1932727568 1764821334 -490757769 914557757 1071952776 1749670538 648003288 -78794893 1742294406 -117683060 -618848376 1764017795 -1834196925 -38120159 -2138161278 -907849908 1045464238 312595923 -41318408
REM
CELL 1.54180   50.00000   50.00000   50.00000   90.00000   90.00000   90.00000
LATT -1
SFAC C  
C      1  0.4911130000000  0.4656460000000  0.5443510000000 1.0
C      1  0.4911140000000  0.4444130000000  0.4924240000000 1.0
C      1  0.4911140000000  0.4787670000000  0.4480730000000 1.0
C      1  0.4911130000000  0.5343540000000  0.4556480000000 1.0
C      1  0.4911120000000  0.5555860000000  0.5075760000000 1.0
C      1  0.4911120000000  0.5212320000000  0.5519270000000 1.0
C      1  0.4597400000000  0.4728240000000  0.4512960000000 1.0
C      1  0.4597400000000  0.5285900000000  0.4521130000000 1.0
C      1  0.4597390000000  0.5557660000000  0.5008170000000 1.0
C      1  0.4597380000000  0.5271750000000  0.5487030000000 1.0
C      1  0.4597390000000  0.4714090000000  0.5478860000000 1.0
C      1  0.4597400000000  0.4442330000000  0.4991820000000 1.0
C      1  0.4603550000000  0.5624310000000  0.4710640000000 1.0
C      1  0.4603550000000  0.5562750000000  0.5395990000000 1.0
C      1  0.4603550000000  0.4938430000000  0.5685350000000 1.0
C      1  0.4603560000000  0.4375680000000  0.5289350000000 1.0
C      1  0.4603570000000  0.4437250000000  0.4604000000000 1.0
C      1  0.4603570000000  0.5061560000000  0.4314640000000 1.0
C      1  0.4477220000000  0.4713270000000  0.4991950000000 1.0
C      1  0.4477220000000  0.4863600000000  0.4747660000000 1.0
C      1  0.4477220000000  0.5150320000000  0.4755700000000 1.0
C      1  0.4477220000000  0.5286720000000  0.5008040000000 1.0
C      1  0.4477210000000  0.5136390000000  0.5252330000000 1.0
C      1  0.4477220000000  0.4849670000000  0.5244280000000 1.0
C      1  0.5012910000000  0.5101080000000  0.5264800000000 1.0
C      1  0.5012920000000  0.4821220000000  0.5219940000000 1.0
C      1  0.5012920000000  0.4720130000000  0.4955140000000 1.0
C      1  0.5012920000000  0.4898920000000  0.4735200000000 1.0
C      1  0.5012920000000  0.5178790000000  0.4780060000000 1.0
C      1  0.5012910000000  0.5279870000000  0.5044860000000 1.0
C      1  0.5047590000000  0.5481800000000  0.5562410000000 1.0
C      1  0.5047600000000  0.4753840000000  0.5698460000000 1.0
C      1  0.5047610000000  0.4272040000000  0.5136050000000 1.0
C      1  0.5047620000000  0.4518200000000  0.4437600000000 1.0
C      1  0.5047610000000  0.5246160000000  0.4301540000000 1.0
C      1  0.5047600000000  0.5727960000000  0.4863950000000 1.0
C      1  0.5600760000000  0.4545190000000  0.4866720000000 1.0
C      1  0.5600760000000  0.4888030000000  0.4539490000000 1.0
C      1  0.5600760000000  0.5342840000000  0.4672770000000 1.0
C      1  0.5600750000000  0.5454820000000  0.5133290000000 1.0
C      1  0.5600750000000  0.5111980000000  0.5460530000000 1.0
C      1  0.5600760000000  0.4657170000000  0.5327240000000 1.0
C      1  0.4886470000000  0.5646200000000  0.5373300000000 1.0
C      1  0.4886470000000  0.4999810000000  0.5746280000000 1.0
C      1  0.4886480000000  0.4353610000000  0.5372970000000 1.0
C      1  0.4886490000000  0.4353800000000  0.4626690000000 1.0
C      1  0.4886490000000  0.5000190000000  0.4253720000000 1.0
C      1  0.4886480000000  0.5646390000000  0.4627030000000 1.0
C      1  0.5540650000000  0.4476230000000  0.5127370000000 1.0
C      1  0.5540660000000  0.4627820000000  0.4610080000000 1.0
C      1  0.5540660000000  0.5151600000000  0.4482720000000 1.0
C      1  0.5540650000000  0.5523780000000  0.4872650000000 1.0
C      1  0.5540640000000  0.5372190000000  0.5389930000000 1.0
C      1  0.5540650000000  0.4848410000000  0.5517290000000 1.0
C      1  0.5322290000000  0.5688960000000  0.4833920000000 1.0
C      1  0.5322280000000  0.5488320000000  0.5513620000000 1.0
C      1  0.5322280000000  0.4799360000000  0.5679700000000 1.0
C      1  0.5322300000000  0.4311040000000  0.5166090000000 1.0
C      1  0.5322300000000  0.4511690000000  0.4486390000000 1.0
C      1  0.5322300000000  0.5200650000000  0.4320300000000 1.0
END
