TITL C-8696-5006-1 -5.63055628837041e-07 125000 -391.467711235593 0 0 60 (Ih) n - 1
REM
REM in /home/bkarasulu/CARBON/AIRSS/Generating-Clusters/EDIP-Nigel-Params/Higher-Symm/Box-15A/Only-C60/SD-CG/HFTN-CG
REM
REM
REM
REM
REM
REM ./C.cell (414f73aa93bd7a1190c7fd0f31ff2f98)
REM
REM compiler GCC version 9.2.1 20190827 (Red Hat 9.2.1-1)
REM options -cpp -mtune=generic -march=x86-64 -g -O0 -fpre-include=/usr/include/finclude/math-vector-fortran.h
REM seed -185745880 164883228 1709798932 -323911676 -1084616758 -2058836095 -2037623282 1530632778 -1926316004 -266673424 2040961263 1546850483 -1274050074 -812306595 -1341231034 996574745 666838894 -2066494898 194387169 1325966508 -1492407046 -1124043664 1418932349 -1636181271 -874601900 -1659250998 -1476704469 -512084864 1350454985 -709271737 1890772695 634090739 -1032363131
REM
CELL 1.54180   50.00000   50.00000   50.00000   90.00000   90.00000   90.00000
LATT -1
SFAC C  
C      1  0.4461310000000  0.4851030000000  0.4518300000000 1.0
C      1  0.4851080000000  0.4518280000000  0.4461310000000 1.0
C      1  0.4518310000000  0.4461280000000  0.4851060000000 1.0
C      1  0.5538710000000  0.5148940000000  0.4518310000000 1.0
C      1  0.4461290000000  0.5148950000000  0.5481690000000 1.0
C      1  0.5538700000000  0.4851080000000  0.5481710000000 1.0
C      1  0.5148940000000  0.5481690000000  0.4461290000000 1.0
C      1  0.4851040000000  0.5481710000000  0.5538680000000 1.0
C      1  0.5148940000000  0.4518320000000  0.5538720000000 1.0
C      1  0.5481690000000  0.5538710000000  0.4851050000000 1.0
C      1  0.4518290000000  0.5538700000000  0.5148920000000 1.0
C      1  0.5481710000000  0.4461310000000  0.5148970000000 1.0
C      1  0.4461290000000  0.4851060000000  0.5481690000000 1.0
C      1  0.4851060000000  0.4518310000000  0.5538710000000 1.0
C      1  0.4518310000000  0.4461290000000  0.5148950000000 1.0
C      1  0.5538690000000  0.5148970000000  0.5481700000000 1.0
C      1  0.4461300000000  0.5148920000000  0.4518290000000 1.0
C      1  0.5538710000000  0.4851050000000  0.4518310000000 1.0
C      1  0.5148920000000  0.5481720000000  0.5538690000000 1.0
C      1  0.4851060000000  0.5481680000000  0.4461280000000 1.0
C      1  0.5148960000000  0.4518290000000  0.4461320000000 1.0
C      1  0.5481690000000  0.5538720000000  0.5148940000000 1.0
C      1  0.4518290000000  0.5538690000000  0.4851030000000 1.0
C      1  0.5481710000000  0.4461300000000  0.4851080000000 1.0
C      1  0.4759020000000  0.4369340000000  0.4702310000000 1.0
C      1  0.4369370000000  0.4702270000000  0.4759000000000 1.0
C      1  0.4702310000000  0.4758980000000  0.4369360000000 1.0
C      1  0.5240990000000  0.5630640000000  0.4702280000000 1.0
C      1  0.4758990000000  0.5630650000000  0.5297680000000 1.0
C      1  0.5241000000000  0.4369370000000  0.5297730000000 1.0
C      1  0.5630640000000  0.5297710000000  0.4759010000000 1.0
C      1  0.4369350000000  0.5297700000000  0.5240980000000 1.0
C      1  0.5630640000000  0.4702310000000  0.5241010000000 1.0
C      1  0.5297710000000  0.5240980000000  0.4369360000000 1.0
C      1  0.4702280000000  0.5241010000000  0.5630630000000 1.0
C      1  0.5297700000000  0.4759030000000  0.5630650000000 1.0
C      1  0.4759010000000  0.4369360000000  0.5297720000000 1.0
C      1  0.4369360000000  0.4702290000000  0.5240990000000 1.0
C      1  0.4702290000000  0.4759020000000  0.5630640000000 1.0
C      1  0.5240980000000  0.5630660000000  0.5297690000000 1.0
C      1  0.4759000000000  0.5630630000000  0.4702270000000 1.0
C      1  0.5241010000000  0.4369350000000  0.4702320000000 1.0
C      1  0.5630630000000  0.5297730000000  0.5241000000000 1.0
C      1  0.4369360000000  0.5297690000000  0.4758990000000 1.0
C      1  0.5630650000000  0.4702300000000  0.4759020000000 1.0
C      1  0.5297690000000  0.5241020000000  0.5630640000000 1.0
C      1  0.4702300000000  0.5240970000000  0.4369350000000 1.0
C      1  0.5297720000000  0.4758990000000  0.4369370000000 1.0
C      1  0.4277300000000  0.5148750000000  0.4999980000000 1.0
C      1  0.5148780000000  0.4999980000000  0.4277310000000 1.0
C      1  0.5000010000000  0.4277310000000  0.5148780000000 1.0
C      1  0.5722700000000  0.4851250000000  0.5000020000000 1.0
C      1  0.4277310000000  0.4851220000000  0.4999990000000 1.0
C      1  0.5722690000000  0.5148780000000  0.5000010000000 1.0
C      1  0.4851250000000  0.4999980000000  0.4277300000000 1.0
C      1  0.5148750000000  0.5000020000000  0.5722700000000 1.0
C      1  0.4851220000000  0.5000020000000  0.5722690000000 1.0
C      1  0.4999980000000  0.5722700000000  0.5148740000000 1.0
C      1  0.4999990000000  0.5722690000000  0.4851220000000 1.0
C      1  0.5000020000000  0.4277300000000  0.4851260000000 1.0
END
