TITL C-8699-7882-59 -1.99250237127237e-07 125000 -369.987572365233 0 0 60 (C1) n - 1
REM
REM in /home/bkarasulu/CARBON/AIRSS/Generating-Clusters/EDIP-Nigel-Params/Higher-Symm/Box-15A/Only-C60/SD-CG/HFTN-CG
REM
REM
REM
REM
REM
REM ./C.cell (414f73aa93bd7a1190c7fd0f31ff2f98)
REM
REM compiler GCC version 9.2.1 20190827 (Red Hat 9.2.1-1)
REM options -cpp -mtune=generic -march=x86-64 -g -O0 -fpre-include=/usr/include/finclude/math-vector-fortran.h
REM seed 2072365434 771219070 70978662 -1072506226 10004009 -1834172209 -323359843 839313874 1024150456 1726273077 -989907706 -2064040776 -579891990 2120033762 2050482570 -442950799 99208409 1781586381 -244995314 -1479370222 -1482417051 1932424066 -348550087 1624108862 1453884123 -1878790882 1867176687 138463279 973962255 664679967 -400394013 -1713134824 557846024
REM
CELL 1.54180   50.00000   50.00000   50.00000   90.00000   90.00000   90.00000
LATT -1
SFAC C  
C      1  0.5250440000000  0.4302890000000  0.4786020000000 1.0
C      1  0.4245690000000  0.4748030000000  0.4863370000000 1.0
C      1  0.5419320000000  0.4955920000000  0.4536870000000 1.0
C      1  0.5566660000000  0.4288320000000  0.5160750000000 1.0
C      1  0.4845950000000  0.5006690000000  0.4362040000000 1.0
C      1  0.5367810000000  0.5308490000000  0.4789540000000 1.0
C      1  0.4544420000000  0.5038110000000  0.5364440000000 1.0
C      1  0.5316320000000  0.5154820000000  0.4360490000000 1.0
C      1  0.5180580000000  0.5318700000000  0.5660330000000 1.0
C      1  0.5176890000000  0.5730110000000  0.4800590000000 1.0
C      1  0.5280050000000  0.4803620000000  0.4985490000000 1.0
C      1  0.5500910000000  0.4451860000000  0.5384640000000 1.0
C      1  0.4307820000000  0.5372520000000  0.5089600000000 1.0
C      1  0.5022100000000  0.5018320000000  0.5368080000000 1.0
C      1  0.5566390000000  0.4736750000000  0.5370570000000 1.0
C      1  0.5453940000000  0.5546190000000  0.5154900000000 1.0
C      1  0.4726080000000  0.5600170000000  0.5078610000000 1.0
C      1  0.4530800000000  0.5072740000000  0.4847840000000 1.0
C      1  0.5213680000000  0.4790000000000  0.4688260000000 1.0
C      1  0.5448230000000  0.5210970000000  0.5541550000000 1.0
C      1  0.4686500000000  0.4384420000000  0.4964710000000 1.0
C      1  0.5225800000000  0.4379580000000  0.5484540000000 1.0
C      1  0.4369590000000  0.5084530000000  0.5124120000000 1.0
C      1  0.5459820000000  0.5228950000000  0.5239420000000 1.0
C      1  0.4643430000000  0.5305940000000  0.5455450000000 1.0
C      1  0.5095870000000  0.5577990000000  0.4572100000000 1.0
C      1  0.4851700000000  0.4404270000000  0.5189750000000 1.0
C      1  0.5738340000000  0.5224960000000  0.4979160000000 1.0
C      1  0.5313810000000  0.4226240000000  0.5047890000000 1.0
C      1  0.4922690000000  0.4877870000000  0.4628440000000 1.0
C      1  0.4988670000000  0.5470710000000  0.5145780000000 1.0
C      1  0.5448070000000  0.4908490000000  0.5572660000000 1.0
C      1  0.5069760000000  0.5242080000000  0.4952090000000 1.0
C      1  0.5607170000000  0.5480070000000  0.4914800000000 1.0
C      1  0.5169150000000  0.4502360000000  0.4606890000000 1.0
C      1  0.4673170000000  0.4536040000000  0.4731460000000 1.0
C      1  0.4158980000000  0.4889670000000  0.5079200000000 1.0
C      1  0.5097650000000  0.4254280000000  0.5247590000000 1.0
C      1  0.5152310000000  0.4879570000000  0.5610900000000 1.0
C      1  0.4837310000000  0.5056680000000  0.4852110000000 1.0
C      1  0.4429810000000  0.4685640000000  0.4664210000000 1.0
C      1  0.4449920000000  0.5153360000000  0.4543900000000 1.0
C      1  0.4432000000000  0.4869750000000  0.4432970000000 1.0
C      1  0.5198800000000  0.5669130000000  0.5079560000000 1.0
C      1  0.5215290000000  0.5055990000000  0.5136070000000 1.0
C      1  0.5325400000000  0.5391570000000  0.4508970000000 1.0
C      1  0.5091570000000  0.5086970000000  0.5817130000000 1.0
C      1  0.4643890000000  0.5573170000000  0.4796680000000 1.0
C      1  0.4709390000000  0.5265220000000  0.4425230000000 1.0
C      1  0.4513300000000  0.5505790000000  0.5265010000000 1.0
C      1  0.4800270000000  0.4597400000000  0.5404620000000 1.0
C      1  0.4385660000000  0.5429930000000  0.4803500000000 1.0
C      1  0.5566010000000  0.4786600000000  0.4993260000000 1.0
C      1  0.4648920000000  0.4833110000000  0.4249560000000 1.0
C      1  0.4842220000000  0.5437840000000  0.4625030000000 1.0
C      1  0.5038770000000  0.4594260000000  0.5591510000000 1.0
C      1  0.4953430000000  0.5316590000000  0.5429600000000 1.0
C      1  0.5622660000000  0.5005550000000  0.4796090000000 1.0
C      1  0.4773950000000  0.4871540000000  0.5300850000000 1.0
C      1  0.4884890000000  0.4500640000000  0.4543220000000 1.0
END
