TITL C-8699-7882-311 -1.37525629835687e-06 125000 -344.171486039516 0 0 60 (C3i) n - 1
REM
REM in /home/bkarasulu/CARBON/AIRSS/Generating-Clusters/EDIP-Nigel-Params/Higher-Symm/Box-15A/Only-C60/SD-CG/HFTN-CG
REM
REM
REM
REM
REM
REM ./C.cell (414f73aa93bd7a1190c7fd0f31ff2f98)
REM
REM compiler GCC version 9.2.1 20190827 (Red Hat 9.2.1-1)
REM options -cpp -mtune=generic -march=x86-64 -g -O0 -fpre-include=/usr/include/finclude/math-vector-fortran.h
REM seed -1986172950 -198626551 -1923555234 673702654 672680494 1871696764 1088476971 1748705797 1275338180 -811744602 -875871357 623746412 -419030476 1142924811 1624518079 1318769158 1157670330 -301464308 212820477 744034978 -430482882 -1746645079 522956864 1718101428 -1551984617 -919884200 767332340 -1624473796 1539359069 -593515168 -6810801 -467377123 -1470090660
REM
CELL 1.54180   50.00000   50.00000   50.00000   90.00000   90.00000   90.00000
LATT -1
SFAC C  
C      1  0.5432760000000  0.4818270000000  0.5199980000000 1.0
C      1  0.5389570000000  0.5181770000000  0.4725240000000 1.0
C      1  0.4956830000000  0.4818300000000  0.4525220000000 1.0
C      1  0.4567240000000  0.5181730000000  0.4800020000000 1.0
C      1  0.4610430000000  0.4818230000000  0.5274760000000 1.0
C      1  0.5043170000000  0.5181700000000  0.5474780000000 1.0
C      1  0.5618040000000  0.5302700000000  0.4887630000000 1.0
C      1  0.5211700000000  0.4697390000000  0.4408530000000 1.0
C      1  0.4593630000000  0.5302680000000  0.4520970000000 1.0
C      1  0.4381960000000  0.4697300000000  0.5112370000000 1.0
C      1  0.4788300000000  0.5302610000000  0.5591470000000 1.0
C      1  0.5406370000000  0.4697320000000  0.5479030000000 1.0
C      1  0.5212560000000  0.5627650000000  0.5042710000000 1.0
C      1  0.5143260000000  0.4372380000000  0.4837180000000 1.0
C      1  0.4930630000000  0.5627650000000  0.4794610000000 1.0
C      1  0.4787440000000  0.4372350000000  0.4957290000000 1.0
C      1  0.4856740000000  0.5627620000000  0.5162820000000 1.0
C      1  0.5069370000000  0.4372350000000  0.5205390000000 1.0
C      1  0.5479730000000  0.5563090000000  0.5314970000000 1.0
C      1  0.5512630000000  0.4436950000000  0.4741940000000 1.0
C      1  0.5032830000000  0.5563140000000  0.4427100000000 1.0
C      1  0.4520270000000  0.4436910000000  0.4685030000000 1.0
C      1  0.4487370000000  0.5563050000000  0.5258060000000 1.0
C      1  0.4967170000000  0.4436860000000  0.5572900000000 1.0
C      1  0.5516240000000  0.5306850000000  0.5444670000000 1.0
C      1  0.5643210000000  0.4693180000000  0.4775210000000 1.0
C      1  0.5126930000000  0.5306920000000  0.4330610000000 1.0
C      1  0.4483760000000  0.4693150000000  0.4555330000000 1.0
C      1  0.4356790000000  0.5306820000000  0.5224790000000 1.0
C      1  0.4873070000000  0.4693080000000  0.5669390000000 1.0
C      1  0.4720420000000  0.5563270000000  0.5438800000000 1.0
C      1  0.5240220000000  0.4436660000000  0.5461440000000 1.0
C      1  0.5519730000000  0.5563330000000  0.5022770000000 1.0
C      1  0.5279580000000  0.4436730000000  0.4561200000000 1.0
C      1  0.4759780000000  0.5563340000000  0.4538560000000 1.0
C      1  0.4480270000000  0.4436670000000  0.4977230000000 1.0
C      1  0.4818070000000  0.5237130000000  0.4968730000000 1.0
C      1  0.4881950000000  0.4762850000000  0.5141890000000 1.0
C      1  0.5063850000000  0.5237130000000  0.5173210000000 1.0
C      1  0.5181930000000  0.4762870000000  0.5031270000000 1.0
C      1  0.5118050000000  0.5237150000000  0.4858110000000 1.0
C      1  0.4936150000000  0.4762870000000  0.4826790000000 1.0
C      1  0.4510910000000  0.4871190000000  0.4791830000000 1.0
C      1  0.4575180000000  0.5128770000000  0.5319500000000 1.0
C      1  0.5064280000000  0.4871160000000  0.5527640000000 1.0
C      1  0.5489090000000  0.5128810000000  0.5208170000000 1.0
C      1  0.5424820000000  0.4871230000000  0.4680500000000 1.0
C      1  0.4935720000000  0.5128840000000  0.4472360000000 1.0
C      1  0.5309070000000  0.5225900000000  0.5634930000000 1.0
C      1  0.5704400000000  0.4774090000000  0.5049770000000 1.0
C      1  0.5395310000000  0.5226000000000  0.4414890000000 1.0
C      1  0.4690930000000  0.4774100000000  0.4365070000000 1.0
C      1  0.4295600000000  0.5225910000000  0.4950230000000 1.0
C      1  0.4604690000000  0.4774000000000  0.5585110000000 1.0
C      1  0.5327420000000  0.4922810000000  0.5704120000000 1.0
C      1  0.5773490000000  0.5077180000000  0.5068510000000 1.0
C      1  0.5446080000000  0.4922920000000  0.4364380000000 1.0
C      1  0.4672580000000  0.5077190000000  0.4295880000000 1.0
C      1  0.4226510000000  0.4922820000000  0.4931490000000 1.0
C      1  0.4553920000000  0.5077080000000  0.5635620000000 1.0
END
