TITL C-8697-8172-265 5.38244883921234e-07 125000 -361.197818337178 0 0 60 (Ci) n - 1
REM
REM in /home/bkarasulu/CARBON/AIRSS/Generating-Clusters/EDIP-Nigel-Params/Higher-Symm/Box-15A/Only-C60/SD-CG/HFTN-CG
REM
REM
REM
REM
REM
REM ./C.cell (414f73aa93bd7a1190c7fd0f31ff2f98)
REM
REM compiler GCC version 9.2.1 20190827 (Red Hat 9.2.1-1)
REM options -cpp -mtune=generic -march=x86-64 -g -O0 -fpre-include=/usr/include/finclude/math-vector-fortran.h
REM seed -1580394102 -87950257 1761198077 -2131370510 702928803 1391246433 -111432442 45199752 -703940577 1552524854 -265286243 875141808 -617670419 -511581149 -343316066 -1400898943 -439577660 -1035497850 -1246787523 -1219233932 -606837013 -1200351904 -301490725 -187478743 621683721 971305012 775555524 512721585 -624679924 1663496893 2100434538 -996353955 -2124696521
REM
CELL 1.54180   50.00000   50.00000   50.00000   90.00000   90.00000   90.00000
LATT -1
SFAC C  
C      1  0.5386220000000  0.5207370000000  0.5452260000000 1.0
C      1  0.4613780000000  0.4792630000000  0.4547740000000 1.0
C      1  0.4336660000000  0.5634170000000  0.4884370000000 1.0
C      1  0.5663340000000  0.4365830000000  0.5115630000000 1.0
C      1  0.4836650000000  0.4744140000000  0.5265120000000 1.0
C      1  0.5163350000000  0.5255860000000  0.4734880000000 1.0
C      1  0.4689120000000  0.4671820000000  0.4801830000000 1.0
C      1  0.5310880000000  0.5328180000000  0.5198170000000 1.0
C      1  0.4651700000000  0.4311590000000  0.5260180000000 1.0
C      1  0.5348300000000  0.5688410000000  0.4739820000000 1.0
C      1  0.5554000000000  0.5472690000000  0.5220490000000 1.0
C      1  0.4446000000000  0.4527310000000  0.4779510000000 1.0
C      1  0.5353050000000  0.4479610000000  0.5505770000000 1.0
C      1  0.4646950000000  0.5520390000000  0.4494230000000 1.0
C      1  0.4372030000000  0.4836700000000  0.5146490000000 1.0
C      1  0.5627970000000  0.5163300000000  0.4853510000000 1.0
C      1  0.4957000000000  0.4477590000000  0.4300340000000 1.0
C      1  0.5043000000000  0.5522410000000  0.5699660000000 1.0
C      1  0.5061120000000  0.5523630000000  0.5177960000000 1.0
C      1  0.4938880000000  0.4476370000000  0.4822040000000 1.0
C      1  0.4677700000000  0.5445670000000  0.5387120000000 1.0
C      1  0.5322300000000  0.4554330000000  0.4612880000000 1.0
C      1  0.5113910000000  0.4379280000000  0.5388920000000 1.0
C      1  0.4886090000000  0.5620720000000  0.4611080000000 1.0
C      1  0.5275020000000  0.4993440000000  0.4327860000000 1.0
C      1  0.4724980000000  0.5006560000000  0.5672140000000 1.0
C      1  0.4287410000000  0.4568490000000  0.5020150000000 1.0
C      1  0.5712590000000  0.5431510000000  0.4979850000000 1.0
C      1  0.5084660000000  0.4903080000000  0.5271620000000 1.0
C      1  0.4915340000000  0.5096920000000  0.4728380000000 1.0
C      1  0.4400220000000  0.4701780000000  0.5426320000000 1.0
C      1  0.5599780000000  0.5298220000000  0.4573680000000 1.0
C      1  0.4785860000000  0.5025530000000  0.4470370000000 1.0
C      1  0.5214140000000  0.4974470000000  0.5529630000000 1.0
C      1  0.4747790000000  0.5413850000000  0.5089940000000 1.0
C      1  0.5252210000000  0.4586150000000  0.4910060000000 1.0
C      1  0.4681250000000  0.4752800000000  0.5522340000000 1.0
C      1  0.5318750000000  0.5247200000000  0.4477660000000 1.0
C      1  0.5103760000000  0.5549050000000  0.4786220000000 1.0
C      1  0.4896240000000  0.4450950000000  0.5213780000000 1.0
C      1  0.4930030000000  0.5591130000000  0.5454430000000 1.0
C      1  0.5069970000000  0.4408870000000  0.4545570000000 1.0
C      1  0.4390100000000  0.4419320000000  0.5281870000000 1.0
C      1  0.5609900000000  0.5580680000000  0.4718130000000 1.0
C      1  0.5393750000000  0.4371070000000  0.5057700000000 1.0
C      1  0.4606250000000  0.5628930000000  0.4942300000000 1.0
C      1  0.4644690000000  0.5261690000000  0.4384030000000 1.0
C      1  0.5355310000000  0.4738310000000  0.5615970000000 1.0
C      1  0.4609350000000  0.5230880000000  0.5549420000000 1.0
C      1  0.5390650000000  0.4769120000000  0.4450580000000 1.0
C      1  0.5344850000000  0.5140630000000  0.4955110000000 1.0
C      1  0.4655150000000  0.4859370000000  0.5044890000000 1.0
C      1  0.5601100000000  0.4402930000000  0.5382200000000 1.0
C      1  0.4398900000000  0.5597070000000  0.4617800000000 1.0
C      1  0.5264560000000  0.4864200000000  0.5045730000000 1.0
C      1  0.4735440000000  0.5135800000000  0.4954270000000 1.0
C      1  0.5056790000000  0.5305060000000  0.5856580000000 1.0
C      1  0.4943210000000  0.4694940000000  0.4143420000000 1.0
C      1  0.5011220000000  0.5053440000000  0.5741770000000 1.0
C      1  0.4988780000000  0.4946560000000  0.4258230000000 1.0
END
