TITL C-8693-7204-216 -8.75127249442593e-07 125000 -368.622341901756 0 0 60 (C2) n - 1
REM
REM in /home/bkarasulu/CARBON/AIRSS/Generating-Clusters/EDIP-Nigel-Params/Higher-Symm/Box-15A/Only-C60/SD-CG/HFTN-CG
REM
REM
REM
REM
REM
REM ./C.cell (414f73aa93bd7a1190c7fd0f31ff2f98)
REM
REM compiler GCC version 9.2.1 20190827 (Red Hat 9.2.1-1)
REM options -cpp -mtune=generic -march=x86-64 -g -O0 -fpre-include=/usr/include/finclude/math-vector-fortran.h
REM seed -2135824189 1146794024 -1460195163 -551703218 79641733 -1788344913 1494422341 1214937744 -1687589672 1563178514 1722367454 -1669030948 -2134234404 -568377090 -505403347 1290062442 369289021 -564452410 1253111772 -146383521 2061599216 -89281742 363035287 1295360489 850553210 1652963145 297010314 -556973516 811993776 1707980883 -718000931 -1739277240 292800560
REM
CELL 1.54180   50.00000   50.00000   50.00000   90.00000   90.00000   90.00000
LATT -1
SFAC C  
C      1  0.4462740000000  0.5177600000000  0.5352740000000 1.0
C      1  0.5534640000000  0.5181700000000  0.4651290000000 1.0
C      1  0.4469410000000  0.4821230000000  0.4643680000000 1.0
C      1  0.5533190000000  0.4819450000000  0.5357390000000 1.0
C      1  0.5079090000000  0.5120210000000  0.5303190000000 1.0
C      1  0.4912680000000  0.5119040000000  0.4703900000000 1.0
C      1  0.5090720000000  0.4883430000000  0.4703940000000 1.0
C      1  0.4917440000000  0.4877270000000  0.5301250000000 1.0
C      1  0.5185410000000  0.4649180000000  0.4269760000000 1.0
C      1  0.4813420000000  0.4637160000000  0.5723050000000 1.0
C      1  0.5178250000000  0.5356800000000  0.5728140000000 1.0
C      1  0.4822970000000  0.5356900000000  0.4270620000000 1.0
C      1  0.4755090000000  0.4843600000000  0.5048350000000 1.0
C      1  0.5270630000000  0.4876720000000  0.4947270000000 1.0
C      1  0.4729990000000  0.5123730000000  0.4945190000000 1.0
C      1  0.5244330000000  0.5155980000000  0.5052450000000 1.0
C      1  0.5431770000000  0.5079300000000  0.4393190000000 1.0
C      1  0.4571970000000  0.5073540000000  0.5607440000000 1.0
C      1  0.5421030000000  0.4921390000000  0.5611680000000 1.0
C      1  0.4575230000000  0.4925770000000  0.4387640000000 1.0
C      1  0.5116520000000  0.4490160000000  0.5367370000000 1.0
C      1  0.4888730000000  0.4499070000000  0.4628220000000 1.0
C      1  0.5115500000000  0.5504000000000  0.4633700000000 1.0
C      1  0.4879250000000  0.5506770000000  0.5370240000000 1.0
C      1  0.4407670000000  0.4932970000000  0.5184810000000 1.0
C      1  0.5571020000000  0.4933910000000  0.4824960000000 1.0
C      1  0.4431020000000  0.5067570000000  0.4818980000000 1.0
C      1  0.5590160000000  0.5065460000000  0.5192150000000 1.0
C      1  0.4915800000000  0.5422980000000  0.5649880000000 1.0
C      1  0.5083040000000  0.5422780000000  0.4353830000000 1.0
C      1  0.4924400000000  0.4582620000000  0.4349420000000 1.0
C      1  0.5076750000000  0.4571630000000  0.5647260000000 1.0
C      1  0.4486350000000  0.5326080000000  0.4637030000000 1.0
C      1  0.5507560000000  0.5315830000000  0.5358820000000 1.0
C      1  0.4488370000000  0.4681220000000  0.5350330000000 1.0
C      1  0.5517800000000  0.4676920000000  0.4640250000000 1.0
C      1  0.4601690000000  0.4453180000000  0.5197590000000 1.0
C      1  0.5402680000000  0.4453730000000  0.4797050000000 1.0
C      1  0.4599650000000  0.5547960000000  0.4796990000000 1.0
C      1  0.5395990000000  0.5545140000000  0.5206690000000 1.0
C      1  0.4717840000000  0.4734530000000  0.4245780000000 1.0
C      1  0.5279530000000  0.4728050000000  0.5751740000000 1.0
C      1  0.4711850000000  0.5265690000000  0.5750710000000 1.0
C      1  0.5290790000000  0.5271720000000  0.4251310000000 1.0
C      1  0.5128250000000  0.4413710000000  0.4748930000000 1.0
C      1  0.4875140000000  0.4406160000000  0.5247970000000 1.0
C      1  0.5121970000000  0.5591750000000  0.5254330000000 1.0
C      1  0.4874610000000  0.5588360000000  0.4752360000000 1.0
C      1  0.5492840000000  0.5574820000000  0.4943010000000 1.0
C      1  0.4501600000000  0.5568490000000  0.5059870000000 1.0
C      1  0.5497700000000  0.4431000000000  0.5060850000000 1.0
C      1  0.4507870000000  0.4425690000000  0.4932570000000 1.0
C      1  0.5286030000000  0.5181050000000  0.5520930000000 1.0
C      1  0.4711010000000  0.5184770000000  0.4478570000000 1.0
C      1  0.5294970000000  0.4819560000000  0.4480400000000 1.0
C      1  0.4708020000000  0.4814640000000  0.5516090000000 1.0
C      1  0.5341640000000  0.5370070000000  0.4802970000000 1.0
C      1  0.4654440000000  0.5365800000000  0.5198500000000 1.0
C      1  0.5343280000000  0.4632540000000  0.5199400000000 1.0
C      1  0.4660660000000  0.4631600000000  0.4795990000000 1.0
END
