TITL C-8696-5006-57 -1.16812239180178e-06 125000 -370.131510726168 0 0 60 (C2h) n - 1
REM
REM in /home/bkarasulu/CARBON/AIRSS/Generating-Clusters/EDIP-Nigel-Params/Higher-Symm/Box-15A/Only-C60/SD-CG/HFTN-CG
REM
REM
REM
REM
REM
REM ./C.cell (414f73aa93bd7a1190c7fd0f31ff2f98)
REM
REM compiler GCC version 9.2.1 20190827 (Red Hat 9.2.1-1)
REM options -cpp -mtune=generic -march=x86-64 -g -O0 -fpre-include=/usr/include/finclude/math-vector-fortran.h
REM seed -1549421081 -183754271 -37928099 2006320961 -1147964813 -1063498425 910079270 953323902 -1397081610 638083073 -2072623088 -2100808878 -301194501 -1887441790 -446640429 1809922210 1777464230 -1713460169 1870770718 867027912 1051340980 -1570857871 215785589 -81659205 1517995553 -1143986225 27275126 -1544258039 -1040453846 407254605 -1559297022 331030592 220726136
REM
CELL 1.54180   50.00000   50.00000   50.00000   90.00000   90.00000   90.00000
LATT -1
SFAC C  
C      1  0.4366390000000  0.5015200000000  0.5290920000000 1.0
C      1  0.4366370000000  0.4984940000000  0.4709110000000 1.0
C      1  0.5633630000000  0.5015060000000  0.5290890000000 1.0
C      1  0.5633610000000  0.4984800000000  0.4709080000000 1.0
C      1  0.4853020000000  0.5476450000000  0.5332060000000 1.0
C      1  0.4852900000000  0.4523590000000  0.4667940000000 1.0
C      1  0.5147100000000  0.5476410000000  0.5332060000000 1.0
C      1  0.5146980000000  0.4523550000000  0.4667940000000 1.0
C      1  0.5311650000000  0.5614100000000  0.4646810000000 1.0
C      1  0.5311520000000  0.4385820000000  0.5353180000000 1.0
C      1  0.4688480000000  0.5614180000000  0.4646820000000 1.0
C      1  0.4688350000000  0.4385900000000  0.5353190000000 1.0
C      1  0.5276220000000  0.4685210000000  0.5734590000000 1.0
C      1  0.5276260000000  0.5314730000000  0.4265400000000 1.0
C      1  0.4723740000000  0.4685270000000  0.5734600000000 1.0
C      1  0.4723780000000  0.5314790000000  0.4265410000000 1.0
C      1  0.5156430000000  0.5058990000000  0.4694010000000 1.0
C      1  0.5156430000000  0.4940970000000  0.5305980000000 1.0
C      1  0.4843570000000  0.5059030000000  0.4694020000000 1.0
C      1  0.4843570000000  0.4941010000000  0.5305990000000 1.0
C      1  0.4696290000000  0.5087900000000  0.4428490000000 1.0
C      1  0.4696300000000  0.4912170000000  0.5571520000000 1.0
C      1  0.5303700000000  0.5087830000000  0.4428480000000 1.0
C      1  0.5303710000000  0.4912100000000  0.5571510000000 1.0
C      1  0.5239860000000  0.5680300000000  0.5149720000000 1.0
C      1  0.5239700000000  0.4319640000000  0.4850260000000 1.0
C      1  0.4760300000000  0.5680360000000  0.5149740000000 1.0
C      1  0.4760140000000  0.4319700000000  0.4850280000000 1.0
C      1  0.5258470000000  0.4733150000000  0.5088270000000 1.0
C      1  0.5258530000000  0.5266790000000  0.4911720000000 1.0
C      1  0.4741470000000  0.4733210000000  0.5088280000000 1.0
C      1  0.4741530000000  0.5266850000000  0.4911730000000 1.0
C      1  0.5148250000000  0.4495730000000  0.5573230000000 1.0
C      1  0.5148340000000  0.5504230000000  0.4426760000000 1.0
C      1  0.4851660000000  0.4495770000000  0.5573240000000 1.0
C      1  0.4851750000000  0.5504270000000  0.4426770000000 1.0
C      1  0.5558420000000  0.5028100000000  0.5561090000000 1.0
C      1  0.5558380000000  0.4971770000000  0.4438890000000 1.0
C      1  0.4441620000000  0.5028230000000  0.5561110000000 1.0
C      1  0.4441580000000  0.4971900000000  0.4438910000000 1.0
C      1  0.5675160000000  0.4749110000000  0.5174420000000 1.0
C      1  0.5675210000000  0.5250730000000  0.4825550000000 1.0
C      1  0.4324790000000  0.4749270000000  0.5174450000000 1.0
C      1  0.4324840000000  0.5250890000000  0.4825580000000 1.0
C      1  0.5249900000000  0.5218220000000  0.5214420000000 1.0
C      1  0.5249840000000  0.4781730000000  0.4785560000000 1.0
C      1  0.4750160000000  0.5218270000000  0.5214440000000 1.0
C      1  0.4750100000000  0.4781780000000  0.4785580000000 1.0
C      1  0.5620630000000  0.5251540000000  0.5114360000000 1.0
C      1  0.5620560000000  0.4748320000000  0.4885610000000 1.0
C      1  0.4379440000000  0.5251680000000  0.5114390000000 1.0
C      1  0.4379370000000  0.4748460000000  0.4885640000000 1.0
C      1  0.5155330000000  0.5555730000000  0.4894580000000 1.0
C      1  0.5155200000000  0.4444240000000  0.5105420000000 1.0
C      1  0.4844800000000  0.5555760000000  0.4894580000000 1.0
C      1  0.4844670000000  0.4444270000000  0.5105420000000 1.0
C      1  0.5559820000000  0.4526710000000  0.5316870000000 1.0
C      1  0.5559920000000  0.5473160000000  0.4683100000000 1.0
C      1  0.4440080000000  0.4526840000000  0.5316900000000 1.0
C      1  0.4440180000000  0.5473290000000  0.4683130000000 1.0
END
