TITL C-8698-8182-92 -0.000101489764046013 125000 -360.369144574895 0 0 60 (Ci) n - 1
REM
REM in /home/bkarasulu/CARBON/AIRSS/Generating-Clusters/EDIP-Nigel-Params/Higher-Symm/Box-15A/Only-C60/SD-CG/HFTN-CG
REM
REM
REM
REM
REM
REM ./C.cell (414f73aa93bd7a1190c7fd0f31ff2f98)
REM
REM compiler GCC version 9.2.1 20190827 (Red Hat 9.2.1-1)
REM options -cpp -mtune=generic -march=x86-64 -g -O0 -fpre-include=/usr/include/finclude/math-vector-fortran.h
REM seed 2117740321 950394734 357605297 -1361748780 -892579325 838285061 -407412615 -1594439527 -1738152015 -1860180057 1003261162 -1439577154 1802798389 496685259 -463740236 2093211466 -24096462 166815044 1322289915 1660767353 1323222103 488573043 -791028123 -604498775 -520690470 1174407371 1871427117 -1538430308 1628878989 -630523616 1640994347 998321557 113287106
REM
CELL 1.54180   50.00000   50.00000   50.00000   90.00000   90.00000   90.00000
LATT -1
SFAC C  
C      1  0.5217270000000  0.4499020000000  0.5549850000000 1.0
C      1  0.4782730000000  0.5500980000000  0.4450150000000 1.0
C      1  0.4950620000000  0.5053290000000  0.4319020000000 1.0
C      1  0.5049380000000  0.4946710000000  0.5680980000000 1.0
C      1  0.5481220000000  0.4785380000000  0.4769110000000 1.0
C      1  0.4518780000000  0.5214620000000  0.5230890000000 1.0
C      1  0.4561950000000  0.4655130000000  0.4910110000000 1.0
C      1  0.5438050000000  0.5344870000000  0.5089890000000 1.0
C      1  0.4917230000000  0.4774540000000  0.4407180000000 1.0
C      1  0.5082770000000  0.5225460000000  0.5592820000000 1.0
C      1  0.4901010000000  0.5640910000000  0.5098880000000 1.0
C      1  0.5098990000000  0.4359090000000  0.4901120000000 1.0
C      1  0.4980360000000  0.4677430000000  0.5294800000000 1.0
C      1  0.5019640000000  0.5322570000000  0.4705200000000 1.0
C      1  0.4607490000000  0.4790100000000  0.4634900000000 1.0
C      1  0.5392510000000  0.5209900000000  0.5365100000000 1.0
C      1  0.5680090000000  0.5010220000000  0.4811740000000 1.0
C      1  0.4319910000000  0.4989780000000  0.5188260000000 1.0
C      1  0.4652180000000  0.5656460000000  0.4949590000000 1.0
C      1  0.5347820000000  0.4343540000000  0.5050410000000 1.0
C      1  0.5215800000000  0.5162920000000  0.4345300000000 1.0
C      1  0.4784200000000  0.4837080000000  0.5654700000000 1.0
C      1  0.4408600000000  0.4717980000000  0.5320450000000 1.0
C      1  0.5591400000000  0.5282020000000  0.4679550000000 1.0
C      1  0.4850710000000  0.4291900000000  0.5032010000000 1.0
C      1  0.5149290000000  0.5708100000000  0.4967990000000 1.0
C      1  0.5127370000000  0.5622280000000  0.4684400000000 1.0
C      1  0.4872630000000  0.4377720000000  0.5315600000000 1.0
C      1  0.4575740000000  0.5022430000000  0.5675360000000 1.0
C      1  0.5424260000000  0.4977570000000  0.4324640000000 1.0
C      1  0.5309210000000  0.4351610000000  0.5330990000000 1.0
C      1  0.4690790000000  0.5648390000000  0.4669010000000 1.0
C      1  0.5415650000000  0.4739970000000  0.4474800000000 1.0
C      1  0.4584350000000  0.5260030000000  0.5525200000000 1.0
C      1  0.5199940000000  0.5201220000000  0.4943620000000 1.0
C      1  0.4800060000000  0.4798780000000  0.5056380000000 1.0
C      1  0.4733240000000  0.4556800000000  0.5630030000000 1.0
C      1  0.5266760000000  0.5443200000000  0.4369970000000 1.0
C      1  0.5426120000000  0.4915150000000  0.5376940000000 1.0
C      1  0.4573880000000  0.5084850000000  0.4623060000000 1.0
C      1  0.4719170000000  0.5221180000000  0.4392600000000 1.0
C      1  0.5280830000000  0.4778820000000  0.5607400000000 1.0
C      1  0.4618440000000  0.4374030000000  0.4900430000000 1.0
C      1  0.5381560000000  0.5625970000000  0.5099570000000 1.0
C      1  0.4770320000000  0.5104790000000  0.5099220000000 1.0
C      1  0.5229680000000  0.4895210000000  0.4900780000000 1.0
C      1  0.5159670000000  0.4596420000000  0.4431830000000 1.0
C      1  0.4840330000000  0.5403580000000  0.5568170000000 1.0
C      1  0.4468930000000  0.5452570000000  0.5045990000000 1.0
C      1  0.5531070000000  0.4547430000000  0.4954010000000 1.0
C      1  0.4723720000000  0.5245300000000  0.4831810000000 1.0
C      1  0.5276280000000  0.4754700000000  0.5168190000000 1.0
C      1  0.4889730000000  0.5598610000000  0.5373150000000 1.0
C      1  0.5110270000000  0.4401390000000  0.4626850000000 1.0
C      1  0.5026830000000  0.5235990000000  0.5208490000000 1.0
C      1  0.4973170000000  0.4764010000000  0.4791510000000 1.0
C      1  0.4528540000000  0.4485440000000  0.5446850000000 1.0
C      1  0.5471460000000  0.5514560000000  0.4553150000000 1.0
C      1  0.5775780000000  0.5281030000000  0.4909840000000 1.0
C      1  0.4224220000000  0.4718970000000  0.5090160000000 1.0
END
