TITL C-8693-7204-191 -1.32163398519216e-07 125000 -361.898915804797 0 0 60 (C1) n - 1
REM
REM in /home/bkarasulu/CARBON/AIRSS/Generating-Clusters/EDIP-Nigel-Params/Higher-Symm/Box-15A/Only-C60/SD-CG/HFTN-CG
REM
REM
REM
REM
REM
REM ./C.cell (414f73aa93bd7a1190c7fd0f31ff2f98)
REM
REM compiler GCC version 9.2.1 20190827 (Red Hat 9.2.1-1)
REM options -cpp -mtune=generic -march=x86-64 -g -O0 -fpre-include=/usr/include/finclude/math-vector-fortran.h
REM seed -1950938830 1157835009 -1418478223 1673241100 1822421330 -1700696876 955726577 -1073951671 -1381627846 1248910790 769767401 -1493623890 826156262 2020539366 1816888519 626387588 -268553291 2042484070 1163592993 -183232946 1079748545 -1909146319 1585098351 -987845167 1057617822 -215722506 -613206731 -1844399138 -1598581501 -1416678904 -601839379 389571263 -952677854
REM
CELL 1.54180   50.00000   50.00000   50.00000   90.00000   90.00000   90.00000
LATT -1
SFAC C  
C      1  0.5231740000000  0.5307450000000  0.4753240000000 1.0
C      1  0.5123790000000  0.4762650000000  0.5178400000000 1.0
C      1  0.4865370000000  0.5274030000000  0.4791230000000 1.0
C      1  0.4789960000000  0.4702500000000  0.5212930000000 1.0
C      1  0.5082630000000  0.4716710000000  0.4881920000000 1.0
C      1  0.5197500000000  0.5291330000000  0.5084600000000 1.0
C      1  0.4777920000000  0.4749890000000  0.4877460000000 1.0
C      1  0.4888940000000  0.5302190000000  0.5091670000000 1.0
C      1  0.5266020000000  0.4866150000000  0.5764410000000 1.0
C      1  0.5473520000000  0.5236470000000  0.4342310000000 1.0
C      1  0.4588890000000  0.4689040000000  0.5692450000000 1.0
C      1  0.4820760000000  0.5165240000000  0.4254930000000 1.0
C      1  0.5315000000000  0.5120690000000  0.5656000000000 1.0
C      1  0.5195330000000  0.4885920000000  0.4487430000000 1.0
C      1  0.4604340000000  0.5162380000000  0.5618460000000 1.0
C      1  0.4674990000000  0.4978180000000  0.4421530000000 1.0
C      1  0.5411730000000  0.5610170000000  0.4423630000000 1.0
C      1  0.5315180000000  0.4544620000000  0.5553980000000 1.0
C      1  0.4774440000000  0.5522970000000  0.4399240000000 1.0
C      1  0.4747990000000  0.4356100000000  0.5574140000000 1.0
C      1  0.5138790000000  0.4414950000000  0.4506400000000 1.0
C      1  0.5280040000000  0.5476190000000  0.5499830000000 1.0
C      1  0.4578880000000  0.4504900000000  0.4485530000000 1.0
C      1  0.4695300000000  0.5521200000000  0.5495310000000 1.0
C      1  0.5383480000000  0.5562010000000  0.4705000000000 1.0
C      1  0.5290530000000  0.4530010000000  0.5270900000000 1.0
C      1  0.4718720000000  0.5512220000000  0.4680390000000 1.0
C      1  0.4744370000000  0.4410370000000  0.5293380000000 1.0
C      1  0.5215680000000  0.4478410000000  0.4770380000000 1.0
C      1  0.5317640000000  0.5532230000000  0.5223510000000 1.0
C      1  0.4643180000000  0.4510090000000  0.4758350000000 1.0
C      1  0.4702600000000  0.5495810000000  0.5209450000000 1.0
C      1  0.5757620000000  0.5197040000000  0.4880380000000 1.0
C      1  0.5533720000000  0.4869580000000  0.5040830000000 1.0
C      1  0.4422220000000  0.5143470000000  0.4821260000000 1.0
C      1  0.4395180000000  0.4889880000000  0.5258610000000 1.0
C      1  0.5600060000000  0.4981060000000  0.4754970000000 1.0
C      1  0.5661960000000  0.5219810000000  0.5168120000000 1.0
C      1  0.4368920000000  0.4658550000000  0.5104770000000 1.0
C      1  0.4360870000000  0.5129540000000  0.5104650000000 1.0
C      1  0.4568960000000  0.4251080000000  0.5140400000000 1.0
C      1  0.4447400000000  0.5443350000000  0.4787670000000 1.0
C      1  0.5518070000000  0.4564310000000  0.5086460000000 1.0
C      1  0.5628520000000  0.5552050000000  0.4858100000000 1.0
C      1  0.4444940000000  0.5504010000000  0.5076820000000 1.0
C      1  0.4450690000000  0.4431490000000  0.4961730000000 1.0
C      1  0.5597390000000  0.5509820000000  0.5146260000000 1.0
C      1  0.5480150000000  0.4424810000000  0.4847100000000 1.0
C      1  0.5100160000000  0.5261550000000  0.5539150000000 1.0
C      1  0.5046220000000  0.4661850000000  0.4404620000000 1.0
C      1  0.4840660000000  0.5327180000000  0.5654770000000 1.0
C      1  0.4752350000000  0.4697340000000  0.4370800000000 1.0
C      1  0.5083520000000  0.4696830000000  0.5627920000000 1.0
C      1  0.5259190000000  0.5421840000000  0.4261520000000 1.0
C      1  0.4851000000000  0.4566740000000  0.5745590000000 1.0
C      1  0.5001540000000  0.5348970000000  0.4376960000000 1.0
C      1  0.4686750000000  0.5026510000000  0.4727040000000 1.0
C      1  0.4593540000000  0.4900970000000  0.5488340000000 1.0
C      1  0.5376600000000  0.5089040000000  0.4583530000000 1.0
C      1  0.5316610000000  0.5038280000000  0.5223230000000 1.0
END
