TITL C-8693-7204-344 -7.99476290139194e-07 125000 -359.474875373776 0 0 60 (C3) n - 1
REM
REM in /home/bkarasulu/CARBON/AIRSS/Generating-Clusters/EDIP-Nigel-Params/Higher-Symm/Box-15A/Only-C60/SD-CG/HFTN-CG
REM
REM
REM
REM
REM
REM ./C.cell (414f73aa93bd7a1190c7fd0f31ff2f98)
REM
REM compiler GCC version 9.2.1 20190827 (Red Hat 9.2.1-1)
REM options -cpp -mtune=generic -march=x86-64 -g -O0 -fpre-include=/usr/include/finclude/math-vector-fortran.h
REM seed -2099977296 -563508023 690258117 1535799587 1714267499 19947600 1543552424 -2057642164 -1467548640 -478167697 2034187702 1040935878 990730172 -1516530649 -629217547 -979035197 -921664488 -374615430 1984588224 -882348060 -1490349227 -701359451 459485592 -1310478943 -1272887693 547058027 -370724870 -2076332501 1447757769 -230323896 -1449592590 1515242611 -986767179
REM
CELL 1.54180   50.00000   50.00000   50.00000   90.00000   90.00000   90.00000
LATT -1
SFAC C  
C      1  0.5249570000000  0.4679340000000  0.5557320000000 1.0
C      1  0.4588330000000  0.4984080000000  0.5553160000000 1.0
C      1  0.5182770000000  0.5403790000000  0.5528460000000 1.0
C      1  0.5271840000000  0.5062760000000  0.4791280000000 1.0
C      1  0.4921960000000  0.4718690000000  0.4809800000000 1.0
C      1  0.4798550000000  0.5193650000000  0.4791880000000 1.0
C      1  0.5519090000000  0.5390990000000  0.4957340000000 1.0
C      1  0.5079890000000  0.4353680000000  0.5005410000000 1.0
C      1  0.4400270000000  0.5252870000000  0.4977110000000 1.0
C      1  0.4735220000000  0.5831190000000  0.4609650000000 1.0
C      1  0.5858620000000  0.4787160000000  0.4638300000000 1.0
C      1  0.4392580000000  0.4337490000000  0.4675220000000 1.0
C      1  0.4731660000000  0.5587290000000  0.4496750000000 1.0
C      1  0.5651060000000  0.4903410000000  0.4513200000000 1.0
C      1  0.4599060000000  0.4450040000000  0.4545060000000 1.0
C      1  0.4858790000000  0.4537050000000  0.4587430000000 1.0
C      1  0.4676510000000  0.5322550000000  0.4557510000000 1.0
C      1  0.5448350000000  0.5087190000000  0.4557430000000 1.0
C      1  0.5246190000000  0.4365550000000  0.5241900000000 1.0
C      1  0.4323510000000  0.5120300000000  0.5222580000000 1.0
C      1  0.5438570000000  0.5541040000000  0.5191270000000 1.0
C      1  0.4402080000000  0.4283410000000  0.5157320000000 1.0
C      1  0.4675630000000  0.5884740000000  0.5088210000000 1.0
C      1  0.5926830000000  0.4846640000000  0.5115000000000 1.0
C      1  0.5005370000000  0.5198890000000  0.5592650000000 1.0
C      1  0.5159720000000  0.4939270000000  0.5601350000000 1.0
C      1  0.4857600000000  0.4935630000000  0.5605310000000 1.0
C      1  0.4369120000000  0.4817030000000  0.5210330000000 1.0
C      1  0.5153340000000  0.5651600000000  0.5166220000000 1.0
C      1  0.5484890000000  0.4555300000000  0.5207000000000 1.0
C      1  0.5219630000000  0.4339420000000  0.4751170000000 1.0
C      1  0.4322300000000  0.5120780000000  0.4730440000000 1.0
C      1  0.5447760000000  0.5506270000000  0.4700450000000 1.0
C      1  0.4626770000000  0.4330290000000  0.5294720000000 1.0
C      1  0.4601660000000  0.5677120000000  0.5239800000000 1.0
C      1  0.5781480000000  0.5024830000000  0.5251680000000 1.0
C      1  0.4712400000000  0.4911680000000  0.4893900000000 1.0
C      1  0.5069010000000  0.5284880000000  0.4874100000000 1.0
C      1  0.5214310000000  0.4789510000000  0.4892580000000 1.0
C      1  0.5074960000000  0.4475720000000  0.5453840000000 1.0
C      1  0.4500980000000  0.5228840000000  0.5430190000000 1.0
C      1  0.5440420000000  0.5348650000000  0.5413430000000 1.0
C      1  0.5106430000000  0.5776060000000  0.4899510000000 1.0
C      1  0.5620550000000  0.4514650000000  0.4944750000000 1.0
C      1  0.4270470000000  0.4701020000000  0.4954130000000 1.0
C      1  0.5857750000000  0.4684790000000  0.4898280000000 1.0
C      1  0.4300040000000  0.4407970000000  0.4929270000000 1.0
C      1  0.4838290000000  0.5894490000000  0.4861530000000 1.0
C      1  0.4832250000000  0.4521960000000  0.5250660000000 1.0
C      1  0.4665690000000  0.5400960000000  0.5216720000000 1.0
C      1  0.5510700000000  0.5105200000000  0.5218190000000 1.0
C      1  0.5396410000000  0.4574470000000  0.4759440000000 1.0
C      1  0.4437380000000  0.4851620000000  0.4760160000000 1.0
C      1  0.5156670000000  0.5542840000000  0.4722750000000 1.0
C      1  0.4689580000000  0.4818820000000  0.5215040000000 1.0
C      1  0.4994670000000  0.5374030000000  0.5188430000000 1.0
C      1  0.5323450000000  0.4832160000000  0.5206500000000 1.0
C      1  0.5510770000000  0.5347590000000  0.4477350000000 1.0
C      1  0.5054430000000  0.4347760000000  0.4524100000000 1.0
C      1  0.4415850000000  0.5243020000000  0.4495440000000 1.0
END
