TITL C-8698-8182-13 -1.6983754072393e-06 125000 -367.935521578398 0 0 60 (C1) n - 1
REM
REM in /home/bkarasulu/CARBON/AIRSS/Generating-Clusters/EDIP-Nigel-Params/Higher-Symm/Box-15A/Only-C60/SD-CG/HFTN-CG
REM
REM
REM
REM
REM
REM ./C.cell (414f73aa93bd7a1190c7fd0f31ff2f98)
REM
REM compiler GCC version 9.2.1 20190827 (Red Hat 9.2.1-1)
REM options -cpp -mtune=generic -march=x86-64 -g -O0 -fpre-include=/usr/include/finclude/math-vector-fortran.h
REM seed 1921452151 795547086 -1853057226 1694065077 785587500 -1911335995 1484408280 -829404494 -1799608821 588028801 1840470879 1200535445 2135753929 1747839332 -1131039506 -970611005 -1858967635 -1247883751 -1703504265 1311457306 -143993619 815086499 2131844207 1878221087 -1044332103 1779345305 2091580925 -864183567 1969360596 -194280290 -2143595964 1574996165 1751379050
REM
CELL 1.54180   50.00000   50.00000   50.00000   90.00000   90.00000   90.00000
LATT -1
SFAC C  
C      1  0.5230420000000  0.5675900000000  0.4829400000000 1.0
C      1  0.5246670000000  0.4606620000000  0.4539010000000 1.0
C      1  0.5287480000000  0.4711310000000  0.5660810000000 1.0
C      1  0.5278560000000  0.4226720000000  0.4840110000000 1.0
C      1  0.5227730000000  0.5218890000000  0.5796510000000 1.0
C      1  0.5203090000000  0.5538280000000  0.4349770000000 1.0
C      1  0.4616620000000  0.4405810000000  0.4865120000000 1.0
C      1  0.4712250000000  0.5087190000000  0.5496840000000 1.0
C      1  0.4662800000000  0.5396490000000  0.4632160000000 1.0
C      1  0.5397430000000  0.5448940000000  0.4922600000000 1.0
C      1  0.5360600000000  0.4818070000000  0.4724880000000 1.0
C      1  0.5393090000000  0.4770840000000  0.5370870000000 1.0
C      1  0.5778630000000  0.4939540000000  0.4962940000000 1.0
C      1  0.5781680000000  0.5014700000000  0.5230370000000 1.0
C      1  0.5749550000000  0.5150260000000  0.4784240000000 1.0
C      1  0.5493510000000  0.4569350000000  0.5152090000000 1.0
C      1  0.5336650000000  0.5224780000000  0.5349670000000 1.0
C      1  0.5299250000000  0.5151470000000  0.4612520000000 1.0
C      1  0.4643700000000  0.4925230000000  0.4454390000000 1.0
C      1  0.4637730000000  0.4554500000000  0.5361490000000 1.0
C      1  0.4729730000000  0.5465080000000  0.5133770000000 1.0
C      1  0.4464960000000  0.4481930000000  0.5104260000000 1.0
C      1  0.4572750000000  0.5326300000000  0.5355280000000 1.0
C      1  0.4494760000000  0.5175120000000  0.4519400000000 1.0
C      1  0.4928470000000  0.4955480000000  0.4412850000000 1.0
C      1  0.4931330000000  0.4495420000000  0.5399310000000 1.0
C      1  0.4921420000000  0.5665340000000  0.5248850000000 1.0
C      1  0.5100630000000  0.4395000000000  0.4696340000000 1.0
C      1  0.5124220000000  0.4959700000000  0.5731020000000 1.0
C      1  0.5070710000000  0.5568070000000  0.4600630000000 1.0
C      1  0.4285110000000  0.4723910000000  0.5041420000000 1.0
C      1  0.4326940000000  0.5211290000000  0.5213300000000 1.0
C      1  0.4276650000000  0.5111780000000  0.4713390000000 1.0
C      1  0.5146780000000  0.4891190000000  0.4930600000000 1.0
C      1  0.5138680000000  0.4851960000000  0.5241200000000 1.0
C      1  0.5221850000000  0.5247390000000  0.5064520000000 1.0
C      1  0.5534610000000  0.5308830000000  0.4706920000000 1.0
C      1  0.5593230000000  0.4716720000000  0.4903950000000 1.0
C      1  0.5557430000000  0.5019700000000  0.5392270000000 1.0
C      1  0.4453440000000  0.4939420000000  0.5166820000000 1.0
C      1  0.4293200000000  0.5334110000000  0.4941200000000 1.0
C      1  0.4288260000000  0.4802840000000  0.4756250000000 1.0
C      1  0.4876800000000  0.4520080000000  0.4851930000000 1.0
C      1  0.5016850000000  0.5040140000000  0.5459870000000 1.0
C      1  0.4950490000000  0.5302260000000  0.4682100000000 1.0
C      1  0.5110330000000  0.4484010000000  0.5628410000000 1.0
C      1  0.5078590000000  0.5771140000000  0.5046450000000 1.0
C      1  0.5080990000000  0.4730960000000  0.4336140000000 1.0
C      1  0.5100630000000  0.4283530000000  0.5298180000000 1.0
C      1  0.5051400000000  0.5577870000000  0.5482690000000 1.0
C      1  0.5050520000000  0.5099620000000  0.4207440000000 1.0
C      1  0.4898350000000  0.5253740000000  0.4994790000000 1.0
C      1  0.4861590000000  0.4815220000000  0.4819650000000 1.0
C      1  0.4726320000000  0.4990830000000  0.5020320000000 1.0
C      1  0.5245990000000  0.5396850000000  0.5574890000000 1.0
C      1  0.5245620000000  0.5259080000000  0.4335030000000 1.0
C      1  0.5296040000000  0.4350670000000  0.5093390000000 1.0
C      1  0.4541240000000  0.4700840000000  0.4630700000000 1.0
C      1  0.4537930000000  0.4833200000000  0.5439970000000 1.0
C      1  0.4537680000000  0.5508480000000  0.4888730000000 1.0
END
