TITL C-8697-8172-248 -3.24670816076832e-06 125000 -360.782165231611 0 0 60 (D2) n - 1
REM
REM in /home/bkarasulu/CARBON/AIRSS/Generating-Clusters/EDIP-Nigel-Params/Higher-Symm/Box-15A/Only-C60/SD-CG/HFTN-CG
REM
REM
REM
REM
REM
REM ./C.cell (414f73aa93bd7a1190c7fd0f31ff2f98)
REM
REM compiler GCC version 9.2.1 20190827 (Red Hat 9.2.1-1)
REM options -cpp -mtune=generic -march=x86-64 -g -O0 -fpre-include=/usr/include/finclude/math-vector-fortran.h
REM seed 781068350 771429772 -1466237617 789279845 -95264672 -227157628 14169084 -86327250 -1376235899 2079931567 1300937928 2077306144 1808010212 -465539103 -2027256947 1661523295 1993881593 -873003240 273050963 219537372 996570217 1909257760 1072929921 1761512165 -1094355486 -860681059 -494892385 926877783 -1205060072 845639808 -1675281054 -584804008 -1499272134
REM
CELL 1.54180   50.00000   50.00000   50.00000   90.00000   90.00000   90.00000
LATT -1
SFAC C  
C      1  0.4386180000000  0.4731550000000  0.4722930000000 1.0
C      1  0.4728910000000  0.5648170000000  0.4725730000000 1.0
C      1  0.5613830000000  0.5268510000000  0.4723020000000 1.0
C      1  0.5271110000000  0.4351890000000  0.4725610000000 1.0
C      1  0.4386180000000  0.5268490000000  0.5263940000000 1.0
C      1  0.4728850000000  0.4351850000000  0.5261150000000 1.0
C      1  0.5613800000000  0.4731450000000  0.5263910000000 1.0
C      1  0.5271130000000  0.5648100000000  0.5261300000000 1.0
C      1  0.5626490000000  0.5279200000000  0.5257840000000 1.0
C      1  0.5266320000000  0.4354100000000  0.5267780000000 1.0
C      1  0.4373500000000  0.4720750000000  0.5257750000000 1.0
C      1  0.4733660000000  0.5645840000000  0.5267910000000 1.0
C      1  0.5626480000000  0.4720760000000  0.4729090000000 1.0
C      1  0.5266370000000  0.5645880000000  0.4719120000000 1.0
C      1  0.4373530000000  0.5279290000000  0.4729110000000 1.0
C      1  0.4733640000000  0.4354180000000  0.4718970000000 1.0
C      1  0.4846080000000  0.4843490000000  0.4501520000000 1.0
C      1  0.4843650000000  0.5155770000000  0.4580740000000 1.0
C      1  0.5153940000000  0.5156610000000  0.4501560000000 1.0
C      1  0.5156370000000  0.4844320000000  0.4580710000000 1.0
C      1  0.4846070000000  0.5156520000000  0.5485370000000 1.0
C      1  0.4843620000000  0.4844240000000  0.5406150000000 1.0
C      1  0.5153910000000  0.4843380000000  0.5485340000000 1.0
C      1  0.5156360000000  0.5155670000000  0.5406190000000 1.0
C      1  0.4689530000000  0.5316990000000  0.4383320000000 1.0
C      1  0.5314730000000  0.5333530000000  0.4348400000000 1.0
C      1  0.5310510000000  0.4683140000000  0.4383270000000 1.0
C      1  0.4685300000000  0.4666610000000  0.4348320000000 1.0
C      1  0.4689470000000  0.4683030000000  0.5603560000000 1.0
C      1  0.5314680000000  0.4666450000000  0.5638510000000 1.0
C      1  0.5310490000000  0.5316840000000  0.5603640000000 1.0
C      1  0.4685290000000  0.5333410000000  0.5638560000000 1.0
C      1  0.4543430000000  0.4529260000000  0.4552360000000 1.0
C      1  0.4538410000000  0.5474290000000  0.4560530000000 1.0
C      1  0.5456600000000  0.5470840000000  0.4552480000000 1.0
C      1  0.5461610000000  0.4525800000000  0.4560450000000 1.0
C      1  0.4543430000000  0.5470770000000  0.5434510000000 1.0
C      1  0.4538360000000  0.4525740000000  0.5426340000000 1.0
C      1  0.5456550000000  0.4529140000000  0.5434440000000 1.0
C      1  0.5461620000000  0.5474170000000  0.5426470000000 1.0
C      1  0.4358120000000  0.4994110000000  0.5340560000000 1.0
C      1  0.5003170000000  0.5697690000000  0.5348120000000 1.0
C      1  0.5641870000000  0.5005820000000  0.5340600000000 1.0
C      1  0.4996820000000  0.4302240000000  0.5347970000000 1.0
C      1  0.4358130000000  0.5005930000000  0.4646300000000 1.0
C      1  0.5003140000000  0.4302310000000  0.4638770000000 1.0
C      1  0.5641880000000  0.4994150000000  0.4646330000000 1.0
C      1  0.4996880000000  0.5697760000000  0.4638920000000 1.0
C      1  0.5500040000000  0.5324090000000  0.4992030000000 1.0
C      1  0.5316100000000  0.4448400000000  0.4997010000000 1.0
C      1  0.4499960000000  0.4675910000000  0.4991930000000 1.0
C      1  0.4683900000000  0.5551600000000  0.4997110000000 1.0
C      1  0.5500020000000  0.4675880000000  0.4994890000000 1.0
C      1  0.5316130000000  0.5551580000000  0.4989900000000 1.0
C      1  0.4499980000000  0.5324120000000  0.4994940000000 1.0
C      1  0.4683870000000  0.4448420000000  0.4989770000000 1.0
C      1  0.5157330000000  0.5149970000000  0.5063680000000 1.0
C      1  0.5157330000000  0.4850020000000  0.4923220000000 1.0
C      1  0.4842680000000  0.5150000000000  0.4923240000000 1.0
C      1  0.4842660000000  0.4850010000000  0.5063640000000 1.0
END
