TITL C-8698-8182-292 -8.86251037574639e-07 125000 -366.689821719298 0 0 60 (Ci) n - 1
REM
REM in /home/bkarasulu/CARBON/AIRSS/Generating-Clusters/EDIP-Nigel-Params/Higher-Symm/Box-15A/Only-C60/SD-CG/HFTN-CG
REM
REM
REM
REM
REM
REM ./C.cell (414f73aa93bd7a1190c7fd0f31ff2f98)
REM
REM compiler GCC version 9.2.1 20190827 (Red Hat 9.2.1-1)
REM options -cpp -mtune=generic -march=x86-64 -g -O0 -fpre-include=/usr/include/finclude/math-vector-fortran.h
REM seed 1173346611 635981964 1563732377 -809568080 -872489675 -874289935 1811091707 1264998496 352909418 1819038171 -59629328 723132884 677103614 -607778942 -987399317 427503027 830168566 -269756813 -1441493829 -885424778 -1498027163 1423267894 -2119859013 -999252905 -1137530949 780262114 -394306845 -1722620145 -1134802778 -5038483 -334607379 922158319 -1666245349
REM
CELL 1.54180   50.00000   50.00000   50.00000   90.00000   90.00000   90.00000
LATT -1
SFAC C  
C      1  0.4676180000000  0.5810660000000  0.4711870000000 1.0
C      1  0.5304960000000  0.5803840000000  0.5233710000000 1.0
C      1  0.4665680000000  0.5557310000000  0.5700470000000 1.0
C      1  0.5321800000000  0.5071240000000  0.5787420000000 1.0
C      1  0.4687020000000  0.4543790000000  0.5710980000000 1.0
C      1  0.5323820000000  0.4189340000000  0.5288130000000 1.0
C      1  0.4695040000000  0.4196160000000  0.4766290000000 1.0
C      1  0.5334320000000  0.4442690000000  0.4299530000000 1.0
C      1  0.4678200000000  0.4928760000000  0.4212580000000 1.0
C      1  0.5312980000000  0.5456210000000  0.4289020000000 1.0
C      1  0.4562200000000  0.5224010000000  0.5086170000000 1.0
C      1  0.5437210000000  0.5156920000000  0.5197070000000 1.0
C      1  0.4543800000000  0.4984510000000  0.5256070000000 1.0
C      1  0.5418490000000  0.4866780000000  0.5191620000000 1.0
C      1  0.4546500000000  0.4750270000000  0.5078790000000 1.0
C      1  0.5437800000000  0.4775990000000  0.4913830000000 1.0
C      1  0.4562790000000  0.4843080000000  0.4802930000000 1.0
C      1  0.5456200000000  0.5015490000000  0.4743930000000 1.0
C      1  0.4581510000000  0.5133220000000  0.4808380000000 1.0
C      1  0.5453500000000  0.5249730000000  0.4921210000000 1.0
C      1  0.4505460000000  0.4738340000000  0.5675270000000 1.0
C      1  0.5426770000000  0.4421910000000  0.5369660000000 1.0
C      1  0.4520970000000  0.4281080000000  0.4952510000000 1.0
C      1  0.5436700000000  0.4459880000000  0.4547940000000 1.0
C      1  0.4474360000000  0.4792580000000  0.4323050000000 1.0
C      1  0.5494540000000  0.5261660000000  0.4324730000000 1.0
C      1  0.4573230000000  0.5578090000000  0.4630340000000 1.0
C      1  0.5479030000000  0.5718920000000  0.5047490000000 1.0
C      1  0.4563300000000  0.5540120000000  0.5452060000000 1.0
C      1  0.5525640000000  0.5207420000000  0.5676950000000 1.0
C      1  0.5100860000000  0.4722390000000  0.5547490000000 1.0
C      1  0.4862460000000  0.4341620000000  0.5324590000000 1.0
C      1  0.5111890000000  0.4389580000000  0.4895520000000 1.0
C      1  0.4887030000000  0.4507980000000  0.4473530000000 1.0
C      1  0.5149780000000  0.4885180000000  0.4281440000000 1.0
C      1  0.4899140000000  0.5277610000000  0.4452510000000 1.0
C      1  0.5137540000000  0.5658380000000  0.4675410000000 1.0
C      1  0.4888110000000  0.5610420000000  0.5104480000000 1.0
C      1  0.5112970000000  0.5492020000000  0.5526470000000 1.0
C      1  0.4850220000000  0.5114820000000  0.5718560000000 1.0
C      1  0.4920290000000  0.4490510000000  0.5568450000000 1.0
C      1  0.5082310000000  0.4244630000000  0.5153050000000 1.0
C      1  0.4933630000000  0.4308900000000  0.4676940000000 1.0
C      1  0.5100530000000  0.4598560000000  0.4295000000000 1.0
C      1  0.4919320000000  0.5060280000000  0.4258780000000 1.0
C      1  0.5079710000000  0.5509490000000  0.4431550000000 1.0
C      1  0.4917690000000  0.5755370000000  0.4846950000000 1.0
C      1  0.5066370000000  0.5691100000000  0.5323060000000 1.0
C      1  0.4899470000000  0.5401440000000  0.5705000000000 1.0
C      1  0.5080680000000  0.4939720000000  0.5741220000000 1.0
C      1  0.4559140000000  0.4469660000000  0.5152360000000 1.0
C      1  0.5378980000000  0.4500220000000  0.4818470000000 1.0
C      1  0.4568170000000  0.4682810000000  0.4561150000000 1.0
C      1  0.5449470000000  0.5019970000000  0.4453270000000 1.0
C      1  0.4633960000000  0.5311700000000  0.4579180000000 1.0
C      1  0.5440860000000  0.5530340000000  0.4847640000000 1.0
C      1  0.4621020000000  0.5499780000000  0.5181530000000 1.0
C      1  0.5431830000000  0.5317190000000  0.5438850000000 1.0
C      1  0.4550530000000  0.4980030000000  0.5546730000000 1.0
C      1  0.5366040000000  0.4688300000000  0.5420820000000 1.0
END
