TITL C-8691-6797-67 -2.4071599311876e-05 125000 -361.134580098946 0 0 60 (C1) n - 1
REM
REM in /home/bkarasulu/CARBON/AIRSS/Generating-Clusters/EDIP-Nigel-Params/Higher-Symm/Box-15A/Only-C60/SD-CG/HFTN-CG
REM
REM
REM
REM
REM
REM ./C.cell (414f73aa93bd7a1190c7fd0f31ff2f98)
REM
REM compiler GCC version 9.2.1 20190827 (Red Hat 9.2.1-1)
REM options -cpp -mtune=generic -march=x86-64 -g -O0 -fpre-include=/usr/include/finclude/math-vector-fortran.h
REM seed -1121769843 -1432513557 1142547352 1251872667 480050560 -1119797551 -551490880 -1485250077 1906942464 1567779642 1410566344 -491540604 -744915935 243778126 -103443984 903868939 -1723621267 -824781859 618321623 -23670429 -288188974 1841710178 -643103232 2024000022 1935326037 -137225517 -1707344013 797962499 1040150315 -2032389486 543478179 2019156964 1526007597
REM
CELL 1.54180   50.00000   50.00000   50.00000   90.00000   90.00000   90.00000
LATT -1
SFAC C  
C      1  0.4596400000000  0.5318350000000  0.4479300000000 1.0
C      1  0.5478670000000  0.5198450000000  0.4517160000000 1.0
C      1  0.4935340000000  0.4490500000000  0.4520840000000 1.0
C      1  0.4790320000000  0.5276960000000  0.5706990000000 1.0
C      1  0.5278820000000  0.5025440000000  0.5687460000000 1.0
C      1  0.4840100000000  0.4708370000000  0.5670360000000 1.0
C      1  0.4578610000000  0.5127390000000  0.5604120000000 1.0
C      1  0.5271670000000  0.5294080000000  0.5622220000000 1.0
C      1  0.5084980000000  0.4595420000000  0.5607000000000 1.0
C      1  0.5118390000000  0.5720620000000  0.4694250000000 1.0
C      1  0.5570840000000  0.4491500000000  0.4667100000000 1.0
C      1  0.4327160000000  0.4758140000000  0.4669090000000 1.0
C      1  0.5467130000000  0.5369110000000  0.5439360000000 1.0
C      1  0.5090820000000  0.4374640000000  0.5441180000000 1.0
C      1  0.4408030000000  0.5249750000000  0.5418030000000 1.0
C      1  0.5518890000000  0.5414180000000  0.5170750000000 1.0
C      1  0.5115320000000  0.4327270000000  0.5167600000000 1.0
C      1  0.4331600000000  0.5267190000000  0.5147720000000 1.0
C      1  0.5606140000000  0.4500810000000  0.5118450000000 1.0
C      1  0.4329470000000  0.4775600000000  0.5151020000000 1.0
C      1  0.5114260000000  0.5695170000000  0.5175830000000 1.0
C      1  0.4396650000000  0.4550890000000  0.4972390000000 1.0
C      1  0.4895340000000  0.5769280000000  0.4992160000000 1.0
C      1  0.5735620000000  0.4617430000000  0.4877720000000 1.0
C      1  0.4663580000000  0.5631860000000  0.5108920000000 1.0
C      1  0.5717610000000  0.4947320000000  0.5075990000000 1.0
C      1  0.4635140000000  0.4450970000000  0.5113370000000 1.0
C      1  0.4163480000000  0.4976190000000  0.4742650000000 1.0
C      1  0.5385510000000  0.5746210000000  0.4783860000000 1.0
C      1  0.5418700000000  0.4263570000000  0.4754940000000 1.0
C      1  0.5531420000000  0.4772310000000  0.5231370000000 1.0
C      1  0.4622260000000  0.4807280000000  0.5240630000000 1.0
C      1  0.4954910000000  0.5449220000000  0.5276410000000 1.0
C      1  0.5144420000000  0.5242010000000  0.4871500000000 1.0
C      1  0.5158960000000  0.4731130000000  0.4895660000000 1.0
C      1  0.4740430000000  0.4976610000000  0.4792600000000 1.0
C      1  0.4692020000000  0.5035380000000  0.4519990000000 1.0
C      1  0.5190310000000  0.5255770000000  0.4587280000000 1.0
C      1  0.5132530000000  0.4702330000000  0.4606860000000 1.0
C      1  0.5001970000000  0.5400030000000  0.5571280000000 1.0
C      1  0.5277720000000  0.4795370000000  0.5525900000000 1.0
C      1  0.4644710000000  0.4852620000000  0.5533630000000 1.0
C      1  0.5523600000000  0.4932750000000  0.4439140000000 1.0
C      1  0.4695370000000  0.4583570000000  0.4405080000000 1.0
C      1  0.4807740000000  0.5485680000000  0.4399940000000 1.0
C      1  0.4998210000000  0.5196070000000  0.5112680000000 1.0
C      1  0.5254870000000  0.4836870000000  0.5141980000000 1.0
C      1  0.4765240000000  0.5020430000000  0.5066260000000 1.0
C      1  0.4891780000000  0.4315770000000  0.4733900000000 1.0
C      1  0.4470180000000  0.5423190000000  0.4707140000000 1.0
C      1  0.5649560000000  0.5271540000000  0.4727300000000 1.0
C      1  0.5385320000000  0.4317220000000  0.5032150000000 1.0
C      1  0.4230940000000  0.5017310000000  0.5016480000000 1.0
C      1  0.5372050000000  0.5640850000000  0.5048440000000 1.0
C      1  0.5410220000000  0.4679170000000  0.4489030000000 1.0
C      1  0.4520530000000  0.4800810000000  0.4447860000000 1.0
C      1  0.5073600000000  0.5514930000000  0.4488680000000 1.0
C      1  0.4867900000000  0.4315920000000  0.5010070000000 1.0
C      1  0.4460360000000  0.5471070000000  0.4981660000000 1.0
C      1  0.5666310000000  0.5224130000000  0.5001240000000 1.0
END
