TITL C-8692-4986-140 -2.52795551443906e-06 125000 -362.439898876981 0 0 60 (C1) n - 1
REM
REM in /home/bkarasulu/CARBON/AIRSS/Generating-Clusters/EDIP-Nigel-Params/Higher-Symm/Box-15A/Only-C60/SD-CG/HFTN-CG
REM
REM
REM
REM
REM
REM ./C.cell (414f73aa93bd7a1190c7fd0f31ff2f98)
REM
REM compiler GCC version 9.2.1 20190827 (Red Hat 9.2.1-1)
REM options -cpp -mtune=generic -march=x86-64 -g -O0 -fpre-include=/usr/include/finclude/math-vector-fortran.h
REM seed -1650847331 -2065267583 1355526601 -2062335063 1121209596 3613749 977547218 -688069957 -1780806801 -155174557 2002937378 1714771501 733187527 2097958530 -178988274 -1663131534 395435910 -1139929613 -2012103533 -1018696059 1032330819 -1560346906 -573482910 -805169499 -1895132993 336355317 1642544140 1338795324 1358933180 -447332213 -410867247 1175552284 1079839261
REM
CELL 1.54180   50.00000   50.00000   50.00000   90.00000   90.00000   90.00000
LATT -1
SFAC C  
C      1  0.4471640000000  0.4578910000000  0.4828030000000 1.0
C      1  0.4474090000000  0.4595450000000  0.5151570000000 1.0
C      1  0.5442190000000  0.5601820000000  0.5277100000000 1.0
C      1  0.5440290000000  0.5602400000000  0.4729910000000 1.0
C      1  0.4954790000000  0.5510740000000  0.4725190000000 1.0
C      1  0.4950440000000  0.5529730000000  0.5290700000000 1.0
C      1  0.5220620000000  0.5218520000000  0.4368860000000 1.0
C      1  0.5219720000000  0.5223570000000  0.5617390000000 1.0
C      1  0.5557100000000  0.5380000000000  0.5146240000000 1.0
C      1  0.5558560000000  0.5381650000000  0.4858590000000 1.0
C      1  0.5188080000000  0.5625280000000  0.4858120000000 1.0
C      1  0.5189170000000  0.5628000000000  0.5150890000000 1.0
C      1  0.4717760000000  0.4497430000000  0.5295930000000 1.0
C      1  0.4720980000000  0.4479350000000  0.4686010000000 1.0
C      1  0.5299120000000  0.4893910000000  0.5333590000000 1.0
C      1  0.5295840000000  0.4895350000000  0.4660820000000 1.0
C      1  0.4680700000000  0.5511000000000  0.4827610000000 1.0
C      1  0.4670210000000  0.5527370000000  0.5198080000000 1.0
C      1  0.5127970000000  0.4973290000000  0.5734270000000 1.0
C      1  0.5138710000000  0.4963560000000  0.4251530000000 1.0
C      1  0.4948880000000  0.4619990000000  0.5149510000000 1.0
C      1  0.4949310000000  0.4610260000000  0.4830570000000 1.0
C      1  0.4811690000000  0.4576970000000  0.4406980000000 1.0
C      1  0.4800430000000  0.4602120000000  0.5571980000000 1.0
C      1  0.4549120000000  0.5350200000000  0.4612240000000 1.0
C      1  0.4532380000000  0.5383180000000  0.5425580000000 1.0
C      1  0.5382280000000  0.4802640000000  0.4255870000000 1.0
C      1  0.5368080000000  0.4805580000000  0.5743300000000 1.0
C      1  0.5005580000000  0.4895740000000  0.5273410000000 1.0
C      1  0.4995400000000  0.4882240000000  0.4699650000000 1.0
C      1  0.5213350000000  0.4450300000000  0.5150690000000 1.0
C      1  0.5218480000000  0.4446250000000  0.4841930000000 1.0
C      1  0.4265230000000  0.5286860000000  0.5434140000000 1.0
C      1  0.4276220000000  0.5278310000000  0.4600740000000 1.0
C      1  0.5642540000000  0.5148990000000  0.4706250000000 1.0
C      1  0.5647310000000  0.5147530000000  0.5296580000000 1.0
C      1  0.4296820000000  0.4765190000000  0.5315140000000 1.0
C      1  0.4309010000000  0.4766310000000  0.4671070000000 1.0
C      1  0.5340200000000  0.4550380000000  0.4389320000000 1.0
C      1  0.5325930000000  0.4552400000000  0.5609730000000 1.0
C      1  0.4546360000000  0.5027120000000  0.5168690000000 1.0
C      1  0.4547440000000  0.4997360000000  0.4876310000000 1.0
C      1  0.4270750000000  0.5055260000000  0.5278330000000 1.0
C      1  0.4261470000000  0.5043790000000  0.4751010000000 1.0
C      1  0.5637160000000  0.4877710000000  0.5150440000000 1.0
C      1  0.5634530000000  0.4880170000000  0.4849970000000 1.0
C      1  0.4920690000000  0.5123630000000  0.5112700000000 1.0
C      1  0.4837050000000  0.5099070000000  0.4835640000000 1.0
C      1  0.4723520000000  0.5241210000000  0.5594000000000 1.0
C      1  0.4726250000000  0.5216050000000  0.4423210000000 1.0
C      1  0.4883900000000  0.4903400000000  0.5553160000000 1.0
C      1  0.4890380000000  0.4880880000000  0.4418470000000 1.0
C      1  0.5050510000000  0.4486030000000  0.5640690000000 1.0
C      1  0.5069330000000  0.4470940000000  0.4349850000000 1.0
C      1  0.5415120000000  0.4602470000000  0.4681290000000 1.0
C      1  0.5411590000000  0.4600260000000  0.5316710000000 1.0
C      1  0.4976260000000  0.5369130000000  0.5532000000000 1.0
C      1  0.4979640000000  0.5338230000000  0.4492200000000 1.0
C      1  0.5511040000000  0.5122970000000  0.5570990000000 1.0
C      1  0.5510780000000  0.5125580000000  0.4429240000000 1.0
END
