TITL C-8694-7203-89 3.24879214692338e-05 125000 -355.708203617298 0 0 60 (Cs) n - 1
REM
REM in /home/bkarasulu/CARBON/AIRSS/Generating-Clusters/EDIP-Nigel-Params/Higher-Symm/Box-15A/Only-C60/SD-CG/HFTN-CG
REM
REM
REM
REM
REM
REM ./C.cell (414f73aa93bd7a1190c7fd0f31ff2f98)
REM
REM compiler GCC version 9.2.1 20190827 (Red Hat 9.2.1-1)
REM options -cpp -mtune=generic -march=x86-64 -g -O0 -fpre-include=/usr/include/finclude/math-vector-fortran.h
REM seed -1876831836 -243466477 1310643073 1269068620 1072159040 -1085644695 257706545 719842218 806761163 1210443198 413908200 1148255837 -2051249153 -1345988371 893714775 -293961510 1888224156 -342467494 -111056317 -2032768858 1416680119 138817225 -1980966354 1179317675 -679612497 -1419543620 713674045 -386935414 -1206172514 -1618052861 1824899757 1532905649 1620379922
REM
CELL 1.54180   50.00000   50.00000   50.00000   90.00000   90.00000   90.00000
LATT -1
SFAC C  
C      1  0.5098340000000  0.4328290000000  0.4679110000000 1.0
C      1  0.5737720000000  0.4959960000000  0.4720110000000 1.0
C      1  0.5273070000000  0.5642310000000  0.4725080000000 1.0
C      1  0.4487210000000  0.5453720000000  0.4728600000000 1.0
C      1  0.4396970000000  0.4661900000000  0.4721820000000 1.0
C      1  0.5091820000000  0.4350600000000  0.5322530000000 1.0
C      1  0.5710760000000  0.4960790000000  0.5299830000000 1.0
C      1  0.5275850000000  0.5634320000000  0.5339630000000 1.0
C      1  0.4491880000000  0.5461610000000  0.5346960000000 1.0
C      1  0.4386450000000  0.4667400000000  0.5332360000000 1.0
C      1  0.5047340000000  0.5224150000000  0.4321690000000 1.0
C      1  0.4785990000000  0.5081690000000  0.4321680000000 1.0
C      1  0.4835970000000  0.4788110000000  0.4336670000000 1.0
C      1  0.5138240000000  0.4746410000000  0.4324890000000 1.0
C      1  0.5267000000000  0.5023050000000  0.4336680000000 1.0
C      1  0.5036800000000  0.5251280000000  0.5633730000000 1.0
C      1  0.4768840000000  0.5105220000000  0.5633720000000 1.0
C      1  0.4820860000000  0.4805410000000  0.5630860000000 1.0
C      1  0.5127460000000  0.4766120000000  0.5641770000000 1.0
C      1  0.5260590000000  0.5045090000000  0.5630870000000 1.0
C      1  0.5661900000000  0.4720510000000  0.5155370000000 1.0
C      1  0.5492150000000  0.5541210000000  0.5172770000000 1.0
C      1  0.4654590000000  0.5633680000000  0.5181670000000 1.0
C      1  0.4278440000000  0.4879650000000  0.5172730000000 1.0
C      1  0.4876210000000  0.4292250000000  0.5155340000000 1.0
C      1  0.5635830000000  0.4733470000000  0.4857210000000 1.0
C      1  0.5430610000000  0.5469670000000  0.4890430000000 1.0
C      1  0.4700490000000  0.5549490000000  0.4897520000000 1.0
C      1  0.4371930000000  0.4892620000000  0.4890400000000 1.0
C      1  0.4879460000000  0.4321200000000  0.4857190000000 1.0
C      1  0.5217550000000  0.4600860000000  0.5385920000000 1.0
C      1  0.5452270000000  0.5090810000000  0.5366170000000 1.0
C      1  0.5058500000000  0.5443050000000  0.5384850000000 1.0
C      1  0.4595920000000  0.5190920000000  0.5384840000000 1.0
C      1  0.4678570000000  0.4669090000000  0.5366150000000 1.0
C      1  0.5236970000000  0.4565280000000  0.4588830000000 1.0
C      1  0.5488520000000  0.5078160000000  0.4611500000000 1.0
C      1  0.5068780000000  0.5477560000000  0.4575860000000 1.0
C      1  0.4561390000000  0.5200990000000  0.4575850000000 1.0
C      1  0.4669600000000  0.4631790000000  0.4611470000000 1.0
C      1  0.4647790000000  0.4381390000000  0.5299800000000 1.0
C      1  0.5496010000000  0.4570920000000  0.5322540000000 1.0
C      1  0.5612000000000  0.5335410000000  0.5332390000000 1.0
C      1  0.4887370000000  0.5677180000000  0.5346970000000 1.0
C      1  0.4317400000000  0.5111890000000  0.5339600000000 1.0
C      1  0.4633900000000  0.4358290000000  0.4720080000000 1.0
C      1  0.5511260000000  0.4553360000000  0.4679120000000 1.0
C      1  0.5610950000000  0.5323610000000  0.4721850000000 1.0
C      1  0.4896570000000  0.5676850000000  0.4728610000000 1.0
C      1  0.4312220000000  0.5118580000000  0.4725050000000 1.0
C      1  0.4835050000000  0.4792730000000  0.4813890000000 1.0
C      1  0.5125720000000  0.4769360000000  0.4763530000000 1.0
C      1  0.5263590000000  0.5026310000000  0.4813910000000 1.0
C      1  0.5043490000000  0.5231080000000  0.4758330000000 1.0
C      1  0.4782230000000  0.5088670000000  0.4758330000000 1.0
C      1  0.4821160000000  0.4814780000000  0.5132810000000 1.0
C      1  0.5107720000000  0.4802360000000  0.5201710000000 1.0
C      1  0.5252570000000  0.5049940000000  0.5132820000000 1.0
C      1  0.5030730000000  0.5261660000000  0.5149020000000 1.0
C      1  0.4763430000000  0.5115960000000  0.5149010000000 1.0
END
