TITL C-8693-7204-144 1.85020441629864e-06 125000 -361.838051417408 0 0 60 (C1) n - 1
REM
REM in /home/bkarasulu/CARBON/AIRSS/Generating-Clusters/EDIP-Nigel-Params/Higher-Symm/Box-15A/Only-C60/SD-CG/HFTN-CG
REM
REM
REM
REM
REM
REM ./C.cell (414f73aa93bd7a1190c7fd0f31ff2f98)
REM
REM compiler GCC version 9.2.1 20190827 (Red Hat 9.2.1-1)
REM options -cpp -mtune=generic -march=x86-64 -g -O0 -fpre-include=/usr/include/finclude/math-vector-fortran.h
REM seed 611642633 1671749911 -908061520 -1523914805 -1882909406 -932437966 1627751060 -197182321 -488533461 -208591594 332788041 -62275887 307066111 -1386802650 -2004406736 -947077738 1007604180 870643303 56721288 1561929886 -1507328067 1599237124 335616318 354047627 890520443 -1291292067 -1488332573 -1216661333 752563383 -2080639415 -1272316124 -1538164946 -1771465863
REM
CELL 1.54180   50.00000   50.00000   50.00000   90.00000   90.00000   90.00000
LATT -1
SFAC C  
C      1  0.5132420000000  0.4670060000000  0.5156880000000 1.0
C      1  0.5358760000000  0.5021230000000  0.5156360000000 1.0
C      1  0.5088580000000  0.5349010000000  0.5151370000000 1.0
C      1  0.4709410000000  0.5189650000000  0.5171410000000 1.0
C      1  0.4729210000000  0.4775610000000  0.5160510000000 1.0
C      1  0.5109550000000  0.4769180000000  0.4403360000000 1.0
C      1  0.5253230000000  0.5032780000000  0.4402860000000 1.0
C      1  0.5046980000000  0.5250990000000  0.4402690000000 1.0
C      1  0.4776100000000  0.5122140000000  0.4404620000000 1.0
C      1  0.4814560000000  0.4824710000000  0.4404050000000 1.0
C      1  0.5049080000000  0.5241030000000  0.4876090000000 1.0
C      1  0.4785640000000  0.5121020000000  0.4881320000000 1.0
C      1  0.4820160000000  0.4833540000000  0.4878560000000 1.0
C      1  0.5103730000000  0.4776990000000  0.4877190000000 1.0
C      1  0.5245650000000  0.5028970000000  0.4877250000000 1.0
C      1  0.4552870000000  0.4453110000000  0.5020260000000 1.0
C      1  0.5384450000000  0.4402740000000  0.5020480000000 1.0
C      1  0.5688090000000  0.5181160000000  0.5018400000000 1.0
C      1  0.5038450000000  0.5712600000000  0.5019370000000 1.0
C      1  0.4341920000000  0.5258770000000  0.5020340000000 1.0
C      1  0.4386170000000  0.4773540000000  0.4695270000000 1.0
C      1  0.5026440000000  0.4346430000000  0.4696150000000 1.0
C      1  0.5630150000000  0.4822860000000  0.4694560000000 1.0
C      1  0.5362480000000  0.5545390000000  0.4693780000000 1.0
C      1  0.4595200000000  0.5513760000000  0.4694040000000 1.0
C      1  0.4740480000000  0.4405340000000  0.4694520000000 1.0
C      1  0.5485950000000  0.4568970000000  0.4694600000000 1.0
C      1  0.5559530000000  0.5329640000000  0.4693360000000 1.0
C      1  0.4860560000000  0.5634610000000  0.4693320000000 1.0
C      1  0.4354370000000  0.5064100000000  0.4695760000000 1.0
C      1  0.4469060000000  0.5527640000000  0.4962230000000 1.0
C      1  0.4334910000000  0.4659110000000  0.4964380000000 1.0
C      1  0.5119410000000  0.4262430000000  0.4965540000000 1.0
C      1  0.5739460000000  0.4886000000000  0.4963320000000 1.0
C      1  0.5335700000000  0.5669300000000  0.4962760000000 1.0
C      1  0.5458460000000  0.4432480000000  0.5309630000000 1.0
C      1  0.5679150000000  0.5258900000000  0.5309110000000 1.0
C      1  0.4960670000000  0.5729860000000  0.5309770000000 1.0
C      1  0.4304260000000  0.5194210000000  0.5309340000000 1.0
C      1  0.4601920000000  0.4389130000000  0.5307930000000 1.0
C      1  0.4682640000000  0.5498690000000  0.5169880000000 1.0
C      1  0.4433480000000  0.4854880000000  0.5167260000000 1.0
C      1  0.4965110000000  0.4413270000000  0.5172090000000 1.0
C      1  0.5550510000000  0.4783260000000  0.5170040000000 1.0
C      1  0.5374850000000  0.5454970000000  0.5165620000000 1.0
C      1  0.4778590000000  0.4506330000000  0.5502870000000 1.0
C      1  0.5398610000000  0.4640910000000  0.5500960000000 1.0
C      1  0.5457810000000  0.5266660000000  0.5497540000000 1.0
C      1  0.4889390000000  0.5523630000000  0.5500400000000 1.0
C      1  0.4462390000000  0.5049520000000  0.5503760000000 1.0
C      1  0.5438470000000  0.5056960000000  0.4646870000000 1.0
C      1  0.5081300000000  0.5434380000000  0.4646550000000 1.0
C      1  0.4613360000000  0.5211850000000  0.4649460000000 1.0
C      1  0.4679120000000  0.4697310000000  0.4648370000000 1.0
C      1  0.5189650000000  0.4600840000000  0.4647740000000 1.0
C      1  0.5210810000000  0.5121140000000  0.5554730000000 1.0
C      1  0.4940970000000  0.5240000000000  0.5545200000000 1.0
C      1  0.4744040000000  0.5022160000000  0.5571770000000 1.0
C      1  0.4893240000000  0.4766380000000  0.5565140000000 1.0
C      1  0.5182510000000  0.4827860000000  0.5560970000000 1.0
END
