TITL C-8695-8180-299 2.51895505684345e-05 125000 -347.545613917554 0 0 60 (C1) n - 1
REM
REM in /home/bkarasulu/CARBON/AIRSS/Generating-Clusters/EDIP-Nigel-Params/Higher-Symm/Box-15A/Only-C60/SD-CG/HFTN-CG
REM
REM
REM
REM
REM
REM ./C.cell (414f73aa93bd7a1190c7fd0f31ff2f98)
REM
REM compiler GCC version 9.2.1 20190827 (Red Hat 9.2.1-1)
REM options -cpp -mtune=generic -march=x86-64 -g -O0 -fpre-include=/usr/include/finclude/math-vector-fortran.h
REM seed 1236527220 -56526755 897376437 339614841 1063778334 -1126393557 -732524931 2131353887 262602778 846124827 -1730660910 1418424982 -1599343956 -1874148887 251632939 254007928 -1349058415 1276360821 -849684445 919034521 2034078503 -870094851 -1758249276 89575410 -59519972 -2124896438 -1725718308 1658192419 -926537937 -1509371108 -566027093 -1923824429 437195594
REM
CELL 1.54180   50.00000   50.00000   50.00000   90.00000   90.00000   90.00000
LATT -1
SFAC C  
C      1  0.4743130000000  0.5706690000000  0.5238210000000 1.0
C      1  0.5160580000000  0.4705730000000  0.5773620000000 1.0
C      1  0.5681660000000  0.5156310000000  0.4757360000000 1.0
C      1  0.4657940000000  0.4342820000000  0.4698760000000 1.0
C      1  0.5349680000000  0.4315330000000  0.5289300000000 1.0
C      1  0.5221870000000  0.5665770000000  0.4669040000000 1.0
C      1  0.5317140000000  0.5258000000000  0.4396210000000 1.0
C      1  0.4848680000000  0.5146110000000  0.5612830000000 1.0
C      1  0.4818360000000  0.4689720000000  0.4278040000000 1.0
C      1  0.5677670000000  0.4885180000000  0.5258620000000 1.0
C      1  0.4269640000000  0.4839180000000  0.4825690000000 1.0
C      1  0.4429520000000  0.5269660000000  0.5270460000000 1.0
C      1  0.5270720000000  0.5710200000000  0.5128890000000 1.0
C      1  0.4743110000000  0.4654800000000  0.5634000000000 1.0
C      1  0.4351540000000  0.5270440000000  0.4764650000000 1.0
C      1  0.5198830000000  0.4420640000000  0.4808780000000 1.0
C      1  0.4883010000000  0.4345730000000  0.5114960000000 1.0
C      1  0.4670440000000  0.5721060000000  0.4803690000000 1.0
C      1  0.4851940000000  0.5213940000000  0.4333930000000 1.0
C      1  0.5271070000000  0.5260320000000  0.5674120000000 1.0
C      1  0.5255100000000  0.4736670000000  0.4355360000000 1.0
C      1  0.4291680000000  0.4853090000000  0.5343380000000 1.0
C      1  0.5652260000000  0.4694880000000  0.4703590000000 1.0
C      1  0.5603730000000  0.5344270000000  0.5243420000000 1.0
C      1  0.5420230000000  0.5079970000000  0.4859340000000 1.0
C      1  0.4870590000000  0.5458390000000  0.5228700000000 1.0
C      1  0.5288470000000  0.4790920000000  0.5542040000000 1.0
C      1  0.5479460000000  0.4726940000000  0.5143410000000 1.0
C      1  0.4504600000000  0.4739600000000  0.4936540000000 1.0
C      1  0.4692560000000  0.5225800000000  0.5161530000000 1.0
C      1  0.4713070000000  0.4625070000000  0.4747780000000 1.0
C      1  0.5268060000000  0.4601470000000  0.5311220000000 1.0
C      1  0.5078850000000  0.5439080000000  0.4780890000000 1.0
C      1  0.5208170000000  0.5155170000000  0.4649210000000 1.0
C      1  0.4827660000000  0.5034250000000  0.5355780000000 1.0
C      1  0.4679670000000  0.4789140000000  0.4499350000000 1.0
C      1  0.4634940000000  0.5232260000000  0.4793490000000 1.0
C      1  0.5139370000000  0.5453590000000  0.5090020000000 1.0
C      1  0.4760590000000  0.4743680000000  0.5360510000000 1.0
C      1  0.4499760000000  0.4711880000000  0.5222470000000 1.0
C      1  0.5422750000000  0.4772500000000  0.4865280000000 1.0
C      1  0.5348280000000  0.5219940000000  0.5175200000000 1.0
C      1  0.5039180000000  0.4669270000000  0.4796530000000 1.0
C      1  0.4974510000000  0.4589990000000  0.5220270000000 1.0
C      1  0.4784580000000  0.5478580000000  0.4727450000000 1.0
C      1  0.4726420000000  0.5075620000000  0.4545050000000 1.0
C      1  0.5255390000000  0.5078880000000  0.5456240000000 1.0
C      1  0.5110810000000  0.4860910000000  0.4568210000000 1.0
C      1  0.5094060000000  0.5291780000000  0.4241900000000 1.0
C      1  0.4912580000000  0.4627090000000  0.5842170000000 1.0
C      1  0.4748220000000  0.4215920000000  0.4919670000000 1.0
C      1  0.5067210000000  0.4647530000000  0.4182300000000 1.0
C      1  0.4163270000000  0.5076970000000  0.4756510000000 1.0
C      1  0.4637600000000  0.5853110000000  0.5036930000000 1.0
C      1  0.5310680000000  0.5807370000000  0.4880330000000 1.0
C      1  0.5307830000000  0.4271430000000  0.5016410000000 1.0
C      1  0.4232880000000  0.5114830000000  0.5372180000000 1.0
C      1  0.5788440000000  0.4925250000000  0.4664180000000 1.0
C      1  0.5768470000000  0.5135540000000  0.5295540000000 1.0
C      1  0.5021490000000  0.5273740000000  0.5778450000000 1.0
END
