TITL C-8698-8182-32 1.69811305477928e-06 125000 -359.462705368898 0 0 60 (C1) n - 1
REM
REM in /home/bkarasulu/CARBON/AIRSS/Generating-Clusters/EDIP-Nigel-Params/Higher-Symm/Box-15A/Only-C60/SD-CG/HFTN-CG
REM
REM
REM
REM
REM
REM ./C.cell (414f73aa93bd7a1190c7fd0f31ff2f98)
REM
REM compiler GCC version 9.2.1 20190827 (Red Hat 9.2.1-1)
REM options -cpp -mtune=generic -march=x86-64 -g -O0 -fpre-include=/usr/include/finclude/math-vector-fortran.h
REM seed 144896142 -1278402774 -680037740 694417105 -805306205 -516359322 -564199880 1310862543 2111068462 1102645677 253664572 497830956 -180487132 -1097466283 777107710 -862872400 816497272 1254490928 519371415 -1766458148 844300813 -1587055030 -1000876202 -1026688888 1945218756 -1416752308 1494137192 1394929445 -1975498801 -1405669032 1625943811 2011859890 1825782596
REM
CELL 1.54180   50.00000   50.00000   50.00000   90.00000   90.00000   90.00000
LATT -1
SFAC C  
C      1  0.5307250000000  0.4845950000000  0.5653000000000 1.0
C      1  0.5713900000000  0.4843580000000  0.4910670000000 1.0
C      1  0.5133530000000  0.4849290000000  0.4287950000000 1.0
C      1  0.4370570000000  0.4845750000000  0.4650960000000 1.0
C      1  0.4476150000000  0.4846530000000  0.5494220000000 1.0
C      1  0.4840950000000  0.5697580000000  0.5198330000000 1.0
C      1  0.5139310000000  0.5697030000000  0.5212670000000 1.0
C      1  0.5244690000000  0.5694590000000  0.4932920000000 1.0
C      1  0.5012400000000  0.5691360000000  0.4744430000000 1.0
C      1  0.4762730000000  0.5695550000000  0.4909500000000 1.0
C      1  0.4708660000000  0.4403890000000  0.5431310000000 1.0
C      1  0.5319730000000  0.4403500000000  0.5411110000000 1.0
C      1  0.5489410000000  0.4401550000000  0.4823070000000 1.0
C      1  0.4982930000000  0.4406510000000  0.4480230000000 1.0
C      1  0.4501000000000  0.4402670000000  0.4854890000000 1.0
C      1  0.5461350000000  0.5072800000000  0.5540270000000 1.0
C      1  0.5653950000000  0.5069880000000  0.4729190000000 1.0
C      1  0.4941250000000  0.5075170000000  0.4283750000000 1.0
C      1  0.4310560000000  0.5070050000000  0.4834870000000 1.0
C      1  0.4630430000000  0.5073440000000  0.5606910000000 1.0
C      1  0.4227880000000  0.4999650000000  0.5094850000000 1.0
C      1  0.4852830000000  0.5004810000000  0.5765980000000 1.0
C      1  0.5681540000000  0.5004380000000  0.5377940000000 1.0
C      1  0.5568900000000  0.5004050000000  0.4468580000000 1.0
C      1  0.4668660000000  0.5006090000000  0.4290780000000 1.0
C      1  0.5250890000000  0.5283040000000  0.5098620000000 1.0
C      1  0.5166850000000  0.5279510000000  0.4797570000000 1.0
C      1  0.4851620000000  0.5280040000000  0.4782950000000 1.0
C      1  0.4740190000000  0.5283920000000  0.5074340000000 1.0
C      1  0.4986680000000  0.5285010000000  0.5272270000000 1.0
C      1  0.5490400000000  0.5569580000000  0.4867670000000 1.0
C      1  0.5025060000000  0.5561700000000  0.4491330000000 1.0
C      1  0.4524180000000  0.5571110000000  0.4820230000000 1.0
C      1  0.4681050000000  0.5574630000000  0.5398330000000 1.0
C      1  0.5278710000000  0.5573610000000  0.5427170000000 1.0
C      1  0.4567320000000  0.4589870000000  0.5564750000000 1.0
C      1  0.5401990000000  0.4589300000000  0.5587380000000 1.0
C      1  0.5682630000000  0.4586980000000  0.4800210000000 1.0
C      1  0.5017870000000  0.4592720000000  0.4289230000000 1.0
C      1  0.4332810000000  0.4588280000000  0.4757430000000 1.0
C      1  0.4730320000000  0.4963510000000  0.5099700000000 1.0
C      1  0.5010190000000  0.4961320000000  0.5290190000000 1.0
C      1  0.5277030000000  0.4957710000000  0.5083690000000 1.0
C      1  0.5159940000000  0.4958850000000  0.4760530000000 1.0
C      1  0.4824970000000  0.4961610000000  0.4771030000000 1.0
C      1  0.5349060000000  0.5331380000000  0.5528070000000 1.0
C      1  0.5606710000000  0.5327150000000  0.4833250000000 1.0
C      1  0.5022850000000  0.5338960000000  0.4336510000000 1.0
C      1  0.4408740000000  0.5328730000000  0.4781820000000 1.0
C      1  0.4607650000000  0.5332420000000  0.5497090000000 1.0
C      1  0.4640050000000  0.4874050000000  0.4539250000000 1.0
C      1  0.4455240000000  0.4870980000000  0.5203220000000 1.0
C      1  0.5023660000000  0.4870760000000  0.5584600000000 1.0
C      1  0.5562090000000  0.4868650000000  0.5160280000000 1.0
C      1  0.5321050000000  0.4874770000000  0.4511650000000 1.0
C      1  0.5151380000000  0.4372360000000  0.5193470000000 1.0
C      1  0.5230430000000  0.4372820000000  0.4916250000000 1.0
C      1  0.4991610000000  0.4373080000000  0.4754990000000 1.0
C      1  0.4764890000000  0.4373250000000  0.4932780000000 1.0
C      1  0.4863330000000  0.4372720000000  0.5203750000000 1.0
END
