TITL C-8699-7882-45 -5.82226572125987e-07 125000 -362.283051313066 0 0 60 (C2) n - 1
REM
REM in /home/bkarasulu/CARBON/AIRSS/Generating-Clusters/EDIP-Nigel-Params/Higher-Symm/Box-15A/Only-C60/SD-CG/HFTN-CG
REM
REM
REM
REM
REM
REM ./C.cell (414f73aa93bd7a1190c7fd0f31ff2f98)
REM
REM compiler GCC version 9.2.1 20190827 (Red Hat 9.2.1-1)
REM options -cpp -mtune=generic -march=x86-64 -g -O0 -fpre-include=/usr/include/finclude/math-vector-fortran.h
REM seed 1335105500 419190052 1368483303 446323846 1131029765 66736274 573852754 894167194 118233616 -600121335 1239982125 -524411829 486683393 -492380893 -1793594902 -190676427 -182309602 -169472797 -1485998640 -47207171 1815030524 -1815049070 -1585493687 -7769245 750328773 665191527 -967910034 -710796549 -1911452985 -1053499888 -1432286376 -1207405373 1860425714
REM
CELL 1.54180   50.00000   50.00000   50.00000   90.00000   90.00000   90.00000
LATT -1
SFAC C  
C      1  0.5358970000000  0.5361080000000  0.4873650000000 1.0
C      1  0.5362440000000  0.4621200000000  0.5139070000000 1.0
C      1  0.4637560000000  0.4621190000000  0.4860940000000 1.0
C      1  0.4641030000000  0.5361080000000  0.5126340000000 1.0
C      1  0.5358820000000  0.4865300000000  0.5378340000000 1.0
C      1  0.5360770000000  0.5112880000000  0.4625750000000 1.0
C      1  0.4641180000000  0.4865290000000  0.4621660000000 1.0
C      1  0.4639230000000  0.5112900000000  0.5374240000000 1.0
C      1  0.4696970000000  0.4779710000000  0.4333440000000 1.0
C      1  0.4728660000000  0.5244340000000  0.5652000000000 1.0
C      1  0.5271340000000  0.5244320000000  0.4348000000000 1.0
C      1  0.5303030000000  0.4779730000000  0.5666570000000 1.0
C      1  0.4747790000000  0.4342190000000  0.4747420000000 1.0
C      1  0.4691300000000  0.5651620000000  0.5218770000000 1.0
C      1  0.5252220000000  0.4342200000000  0.5252610000000 1.0
C      1  0.5308700000000  0.5651610000000  0.4781200000000 1.0
C      1  0.5225620000000  0.5678490000000  0.4518750000000 1.0
C      1  0.5053780000000  0.4428500000000  0.5455900000000 1.0
C      1  0.4946220000000  0.4428480000000  0.4544110000000 1.0
C      1  0.4774370000000  0.5678510000000  0.5481220000000 1.0
C      1  0.5195210000000  0.4524360000000  0.5676600000000 1.0
C      1  0.5085470000000  0.5444480000000  0.4457500000000 1.0
C      1  0.4804790000000  0.4524340000000  0.4323420000000 1.0
C      1  0.4914530000000  0.5444500000000  0.5542480000000 1.0
C      1  0.4873380000000  0.5789190000000  0.5051330000000 1.0
C      1  0.4884120000000  0.4173710000000  0.4929310000000 1.0
C      1  0.5115890000000  0.4173720000000  0.5070710000000 1.0
C      1  0.5126620000000  0.5789190000000  0.4948640000000 1.0
C      1  0.4891110000000  0.5075400000000  0.5811300000000 1.0
C      1  0.4863120000000  0.4956520000000  0.4188710000000 1.0
C      1  0.5108890000000  0.5075380000000  0.4188690000000 1.0
C      1  0.5136880000000  0.4956540000000  0.5811290000000 1.0
C      1  0.4390770000000  0.4937450000000  0.5336280000000 1.0
C      1  0.4430120000000  0.5094910000000  0.4647370000000 1.0
C      1  0.5569870000000  0.5094920000000  0.5352620000000 1.0
C      1  0.5609230000000  0.4937440000000  0.4663720000000 1.0
C      1  0.4402410000000  0.5325180000000  0.4953580000000 1.0
C      1  0.4427790000000  0.4656590000000  0.5094450000000 1.0
C      1  0.5597590000000  0.5325180000000  0.5046410000000 1.0
C      1  0.5572210000000  0.4656590000000  0.4905560000000 1.0
C      1  0.4390300000000  0.4713760000000  0.5522130000000 1.0
C      1  0.4573080000000  0.5348040000000  0.4541530000000 1.0
C      1  0.5426920000000  0.5348060000000  0.5458460000000 1.0
C      1  0.5609700000000  0.4713750000000  0.4477880000000 1.0
C      1  0.4398640000000  0.5484080000000  0.4721350000000 1.0
C      1  0.4537460000000  0.4531920000000  0.5352310000000 1.0
C      1  0.5601360000000  0.5484090000000  0.5278640000000 1.0
C      1  0.5462540000000  0.4531910000000  0.4647700000000 1.0
C      1  0.5137730000000  0.4905440000000  0.4596420000000 1.0
C      1  0.5114510000000  0.5018090000000  0.5340090000000 1.0
C      1  0.4885490000000  0.5018080000000  0.4659910000000 1.0
C      1  0.4862270000000  0.4905450000000  0.5403580000000 1.0
C      1  0.5131800000000  0.4646800000000  0.4954400000000 1.0
C      1  0.5127610000000  0.5360730000000  0.5061800000000 1.0
C      1  0.4868200000000  0.4646800000000  0.5045610000000 1.0
C      1  0.4872390000000  0.5360730000000  0.4938190000000 1.0
C      1  0.4829870000000  0.4616050000000  0.5332910000000 1.0
C      1  0.5170130000000  0.4616040000000  0.4667100000000 1.0
C      1  0.4857400000000  0.5312000000000  0.4639860000000 1.0
C      1  0.5142600000000  0.5312010000000  0.5360120000000 1.0
END
