TITL C-8697-8172-150 -5.86665319073949e-06 125000 -361.871317065163 0 0 60 (C1) n - 1
REM
REM in /home/bkarasulu/CARBON/AIRSS/Generating-Clusters/EDIP-Nigel-Params/Higher-Symm/Box-15A/Only-C60/SD-CG/HFTN-CG
REM
REM
REM
REM
REM
REM ./C.cell (414f73aa93bd7a1190c7fd0f31ff2f98)
REM
REM compiler GCC version 9.2.1 20190827 (Red Hat 9.2.1-1)
REM options -cpp -mtune=generic -march=x86-64 -g -O0 -fpre-include=/usr/include/finclude/math-vector-fortran.h
REM seed -48987757 1629138427 602713317 -1642324406 1772263290 -174647531 -1728058937 -1692887614 904284604 -325060650 631101506 -1526824948 -1856027106 331251048 -1344832007 -1318922572 392463122 -1829408854 -811216734 -690322414 924642328 -2081013522 1070691637 -1091171796 1996789571 -1649500925 2138935384 1679800958 -1444903305 2042739321 -1321580421 1709921462 912907967
REM
CELL 1.54180   50.00000   50.00000   50.00000   90.00000   90.00000   90.00000
LATT -1
SFAC C  
C      1  0.4891360000000  0.5143340000000  0.4750140000000 1.0
C      1  0.4897800000000  0.5283100000000  0.5053660000000 1.0
C      1  0.4900160000000  0.5034940000000  0.5280370000000 1.0
C      1  0.4898030000000  0.4736490000000  0.5111290000000 1.0
C      1  0.4890660000000  0.4803860000000  0.4788550000000 1.0
C      1  0.5703450000000  0.4837040000000  0.5231620000000 1.0
C      1  0.5713310000000  0.4751970000000  0.4926760000000 1.0
C      1  0.5744530000000  0.5005460000000  0.4756020000000 1.0
C      1  0.5704800000000  0.5248580000000  0.4937790000000 1.0
C      1  0.5707840000000  0.5152100000000  0.5236730000000 1.0
C      1  0.4616830000000  0.5169390000000  0.4597650000000 1.0
C      1  0.4623050000000  0.5437180000000  0.5036630000000 1.0
C      1  0.4628460000000  0.5101900000000  0.5426060000000 1.0
C      1  0.4627150000000  0.4624880000000  0.5226040000000 1.0
C      1  0.4616530000000  0.4668140000000  0.4715140000000 1.0
C      1  0.4661580000000  0.4647840000000  0.5532110000000 1.0
C      1  0.4645080000000  0.4383410000000  0.4828420000000 1.0
C      1  0.4644800000000  0.4969450000000  0.4363270000000 1.0
C      1  0.4649110000000  0.5599190000000  0.4775800000000 1.0
C      1  0.4656140000000  0.5401090000000  0.5498900000000 1.0
C      1  0.5325350000000  0.4759330000000  0.4919690000000 1.0
C      1  0.5308450000000  0.4993110000000  0.4727400000000 1.0
C      1  0.5315330000000  0.5240910000000  0.4903330000000 1.0
C      1  0.5317440000000  0.5161950000000  0.5197740000000 1.0
C      1  0.5312300000000  0.4861630000000  0.5206880000000 1.0
C      1  0.4397490000000  0.5063120000000  0.5242640000000 1.0
C      1  0.4396430000000  0.4791870000000  0.5137520000000 1.0
C      1  0.4389900000000  0.4808560000000  0.4847320000000 1.0
C      1  0.4389570000000  0.5090130000000  0.4773120000000 1.0
C      1  0.4393920000000  0.5247400000000  0.5017680000000 1.0
C      1  0.5497330000000  0.5486480000000  0.4839100000000 1.0
C      1  0.5495970000000  0.5302320000000  0.5419860000000 1.0
C      1  0.5479900000000  0.4702200000000  0.5418610000000 1.0
C      1  0.5503910000000  0.4517770000000  0.4822270000000 1.0
C      1  0.5542940000000  0.5006650000000  0.4543800000000 1.0
C      1  0.5067070000000  0.4658240000000  0.4578680000000 1.0
C      1  0.5061480000000  0.5300730000000  0.4545770000000 1.0
C      1  0.5074380000000  0.5524190000000  0.5137760000000 1.0
C      1  0.5074050000000  0.5026980000000  0.5538050000000 1.0
C      1  0.5079300000000  0.4492140000000  0.5171580000000 1.0
C      1  0.4902310000000  0.4261340000000  0.4776390000000 1.0
C      1  0.4903280000000  0.4970430000000  0.4232300000000 1.0
C      1  0.4908610000000  0.5723890000000  0.4740140000000 1.0
C      1  0.4915640000000  0.5476330000000  0.5604410000000 1.0
C      1  0.4922620000000  0.4566310000000  0.5629990000000 1.0
C      1  0.5238530000000  0.4494130000000  0.5426840000000 1.0
C      1  0.5235240000000  0.4421420000000  0.4667970000000 1.0
C      1  0.5228340000000  0.5132870000000  0.4355110000000 1.0
C      1  0.5239980000000  0.5664010000000  0.4925680000000 1.0
C      1  0.5238210000000  0.5270650000000  0.5607440000000 1.0
C      1  0.4595010000000  0.4904780000000  0.5638220000000 1.0
C      1  0.4584550000000  0.4362430000000  0.5106760000000 1.0
C      1  0.4574710000000  0.4700920000000  0.4428980000000 1.0
C      1  0.4578780000000  0.5452800000000  0.4540650000000 1.0
C      1  0.4586460000000  0.5580030000000  0.5287660000000 1.0
C      1  0.5105690000000  0.5578120000000  0.5418860000000 1.0
C      1  0.5116830000000  0.4771880000000  0.5664480000000 1.0
C      1  0.5090130000000  0.4270680000000  0.4988500000000 1.0
C      1  0.5095510000000  0.4778030000000  0.4318030000000 1.0
C      1  0.5096400000000  0.5583880000000  0.4579880000000 1.0
END
