TITL C-8691-6797-219 -1.28374435415595e-05 125000 -370.87104390143 0 0 60 (C1) n - 1
REM
REM in /home/bkarasulu/CARBON/AIRSS/Generating-Clusters/EDIP-Nigel-Params/Higher-Symm/Box-15A/Only-C60/SD-CG/HFTN-CG
REM
REM
REM
REM
REM
REM ./C.cell (414f73aa93bd7a1190c7fd0f31ff2f98)
REM
REM compiler GCC version 9.2.1 20190827 (Red Hat 9.2.1-1)
REM options -cpp -mtune=generic -march=x86-64 -g -O0 -fpre-include=/usr/include/finclude/math-vector-fortran.h
REM seed -70588349 497510312 1106615536 519655367 1337210267 359415771 -55276880 2143441764 1280517788 -1748990593 1469952423 -139373065 -114588523 -1808172785 1546759507 -844819033 -310281482 -740907193 2106231718 -736641095 835699913 1442784539 1897432743 741258481 731629989 -1205974662 -836084618 440942882 242030912 -605146212 502378183 157353512 153301493
REM
CELL 1.54180   50.00000   50.00000   50.00000   90.00000   90.00000   90.00000
LATT -1
SFAC C  
C      1  0.4857680000000  0.4419430000000  0.5462910000000 1.0
C      1  0.5386450000000  0.4520620000000  0.5469460000000 1.0
C      1  0.5639710000000  0.4999500000000  0.5458750000000 1.0
C      1  0.5420810000000  0.5503790000000  0.5445770000000 1.0
C      1  0.4895790000000  0.5627430000000  0.5459210000000 1.0
C      1  0.4459650000000  0.5299630000000  0.5462780000000 1.0
C      1  0.4449310000000  0.4760870000000  0.5460470000000 1.0
C      1  0.5090360000000  0.5315770000000  0.5045190000000 1.0
C      1  0.4822550000000  0.5258810000000  0.5092380000000 1.0
C      1  0.4729100000000  0.5023940000000  0.5239290000000 1.0
C      1  0.4841830000000  0.4814280000000  0.5043120000000 1.0
C      1  0.5074790000000  0.4733300000000  0.5234600000000 1.0
C      1  0.5282520000000  0.4868440000000  0.5075180000000 1.0
C      1  0.5296610000000  0.5143250000000  0.5118570000000 1.0
C      1  0.5450040000000  0.5554560000000  0.5153550000000 1.0
C      1  0.4882090000000  0.5689520000000  0.5169420000000 1.0
C      1  0.4395080000000  0.5320520000000  0.5179450000000 1.0
C      1  0.4415510000000  0.4730560000000  0.5167990000000 1.0
C      1  0.4831950000000  0.4376250000000  0.5172490000000 1.0
C      1  0.5419460000000  0.4464000000000  0.5185930000000 1.0
C      1  0.5703030000000  0.4980220000000  0.5169150000000 1.0
C      1  0.4698800000000  0.4901580000000  0.4369020000000 1.0
C      1  0.4955400000000  0.4611330000000  0.4352220000000 1.0
C      1  0.5255080000000  0.4656090000000  0.4362640000000 1.0
C      1  0.5364810000000  0.4930910000000  0.4356340000000 1.0
C      1  0.5177490000000  0.5264050000000  0.4364140000000 1.0
C      1  0.4895020000000  0.5374780000000  0.4364880000000 1.0
C      1  0.4645100000000  0.5207270000000  0.4357780000000 1.0
C      1  0.5128370000000  0.4385520000000  0.5060730000000 1.0
C      1  0.5538760000000  0.4732050000000  0.5050970000000 1.0
C      1  0.5560010000000  0.5256300000000  0.5030860000000 1.0
C      1  0.5156940000000  0.5598470000000  0.5024290000000 1.0
C      1  0.4640820000000  0.5491240000000  0.5047970000000 1.0
C      1  0.4382240000000  0.5024700000000  0.5052110000000 1.0
C      1  0.4648450000000  0.4581080000000  0.5025680000000 1.0
C      1  0.4621410000000  0.5511980000000  0.4743350000000 1.0
C      1  0.4434710000000  0.5028870000000  0.4755040000000 1.0
C      1  0.4621980000000  0.4546390000000  0.4724390000000 1.0
C      1  0.5119530000000  0.4434320000000  0.4765430000000 1.0
C      1  0.5547540000000  0.4718770000000  0.4749190000000 1.0
C      1  0.5531600000000  0.5239560000000  0.4720650000000 1.0
C      1  0.5149520000000  0.5608090000000  0.4717340000000 1.0
C      1  0.4681570000000  0.5459180000000  0.5539340000000 1.0
C      1  0.4427740000000  0.5032090000000  0.5543970000000 1.0
C      1  0.4689460000000  0.4633140000000  0.5589620000000 1.0
C      1  0.5128170000000  0.4441800000000  0.5547910000000 1.0
C      1  0.5503070000000  0.4766910000000  0.5546390000000 1.0
C      1  0.5536090000000  0.5255970000000  0.5523180000000 1.0
C      1  0.5160230000000  0.5565480000000  0.5535630000000 1.0
C      1  0.5331440000000  0.5412200000000  0.4574350000000 1.0
C      1  0.4874570000000  0.5571710000000  0.4586870000000 1.0
C      1  0.4488110000000  0.5279900000000  0.4603820000000 1.0
C      1  0.4516290000000  0.4795280000000  0.4588210000000 1.0
C      1  0.4877460000000  0.4452850000000  0.4593860000000 1.0
C      1  0.5353160000000  0.4533350000000  0.4615380000000 1.0
C      1  0.5544780000000  0.4970580000000  0.4587460000000 1.0
C      1  0.4961770000000  0.4949830000000  0.5450850000000 1.0
C      1  0.4862850000000  0.4837340000000  0.5694730000000 1.0
C      1  0.4945850000000  0.4946560000000  0.4798150000000 1.0
C      1  0.4979640000000  0.4964590000000  0.4510430000000 1.0
END
