TITL C-8691-6797-178 -7.47545007629396e-07 125000 -385.435575877363 0 0 60 (C5) n - 1
REM
REM in /home/bkarasulu/CARBON/AIRSS/Generating-Clusters/EDIP-Nigel-Params/Higher-Symm/Box-15A/Only-C60/SD-CG/HFTN-CG
REM
REM
REM
REM
REM
REM ./C.cell (414f73aa93bd7a1190c7fd0f31ff2f98)
REM
REM compiler GCC version 9.2.1 20190827 (Red Hat 9.2.1-1)
REM options -cpp -mtune=generic -march=x86-64 -g -O0 -fpre-include=/usr/include/finclude/math-vector-fortran.h
REM seed -2103045691 -319062355 -133646077 673341070 -893799084 -1797683642 829285966 1643322016 -1655215597 1118308676 -932871189 1696202252 481748985 -667348174 -1565333398 -1694027984 -36346745 312538855 -1863781018 -191108725 2096590612 -1370556548 1427651930 529321598 -905524111 -313275053 -125755232 664808853 -1816715939 429589672 -627929615 1992536499 -1417057168
REM
CELL 1.54180   50.00000   50.00000   50.00000   90.00000   90.00000   90.00000
LATT -1
SFAC C  
C      1  0.5648050000000  0.4896540000000  0.4677080000000 1.0
C      1  0.5101710000000  0.4358160000000  0.4664380000000 1.0
C      1  0.4420800000000  0.4711470000000  0.4659080000000 1.0
C      1  0.4546310000000  0.5468220000000  0.4668510000000 1.0
C      1  0.5304790000000  0.5582600000000  0.4679640000000 1.0
C      1  0.4534740000000  0.4972260000000  0.4596710000000 1.0
C      1  0.4829500000000  0.5441710000000  0.4605400000000 1.0
C      1  0.5367080000000  0.5306370000000  0.4611060000000 1.0
C      1  0.5404570000000  0.4753280000000  0.4605860000000 1.0
C      1  0.4890150000000  0.4546790000000  0.4596990000000 1.0
C      1  0.5021470000000  0.4166950000000  0.4852110000000 1.0
C      1  0.4214290000000  0.4724990000000  0.4847260000000 1.0
C      1  0.4495460000000  0.5665070000000  0.4860610000000 1.0
C      1  0.5476420000000  0.5688030000000  0.4873720000000 1.0
C      1  0.5801510000000  0.4762140000000  0.4868460000000 1.0
C      1  0.4732930000000  0.5012880000000  0.5611540000000 1.0
C      1  0.4930120000000  0.5245940000000  0.5616520000000 1.0
C      1  0.5212740000000  0.5130390000000  0.5619040000000 1.0
C      1  0.5190210000000  0.4825910000000  0.5615610000000 1.0
C      1  0.4893680000000  0.4753280000000  0.5610970000000 1.0
C      1  0.5227820000000  0.4534900000000  0.5207370000000 1.0
C      1  0.4628260000000  0.4635560000000  0.5200540000000 1.0
C      1  0.4538640000000  0.5236890000000  0.5205540000000 1.0
C      1  0.5082810000000  0.5507870000000  0.5215470000000 1.0
C      1  0.5508750000000  0.5074020000000  0.5216600000000 1.0
C      1  0.4993630000000  0.4350200000000  0.5302370000000 1.0
C      1  0.4380280000000  0.4799300000000  0.5298940000000 1.0
C      1  0.4617760000000  0.5521360000000  0.5309480000000 1.0
C      1  0.5377880000000  0.5518530000000  0.5319420000000 1.0
C      1  0.5610180000000  0.4794720000000  0.5315030000000 1.0
C      1  0.4397690000000  0.5213140000000  0.4707550000000 1.0
C      1  0.5016290000000  0.5644300000000  0.4720100000000 1.0
C      1  0.5617580000000  0.5189140000000  0.4723300000000 1.0
C      1  0.5370590000000  0.4476660000000  0.4712740000000 1.0
C      1  0.4616650000000  0.4491500000000  0.4703000000000 1.0
C      1  0.5103360000000  0.4777220000000  0.5079240000000 1.0
C      1  0.4820150000000  0.4831310000000  0.5076080000000 1.0
C      1  0.4784030000000  0.5117380000000  0.5078550000000 1.0
C      1  0.5044920000000  0.5240100000000  0.5083230000000 1.0
C      1  0.5242280000000  0.5029870000000  0.5083660000000 1.0
C      1  0.4481590000000  0.5047760000000  0.5440960000000 1.0
C      1  0.4885470000000  0.5499050000000  0.5450900000000 1.0
C      1  0.5439520000000  0.5254320000000  0.5455660000000 1.0
C      1  0.5378060000000  0.4651770000000  0.5448650000000 1.0
C      1  0.4786020000000  0.4524110000000  0.5439570000000 1.0
C      1  0.5453240000000  0.4441210000000  0.5008240000000 1.0
C      1  0.4608700000000  0.4396170000000  0.4996700000000 1.0
C      1  0.4304780000000  0.5185490000000  0.5000830000000 1.0
C      1  0.4961480000000  0.5718360000000  0.5014930000000 1.0
C      1  0.5671270000000  0.5258370000000  0.5019510000000 1.0
C      1  0.4850440000000  0.4223970000000  0.5068780000000 1.0
C      1  0.4215800000000  0.4901000000000  0.5067410000000 1.0
C      1  0.4663470000000  0.5713720000000  0.5081650000000 1.0
C      1  0.5574790000000  0.5538990000000  0.5091800000000 1.0
C      1  0.5690340000000  0.4618270000000  0.5083850000000 1.0
C      1  0.4942630000000  0.4761350000000  0.4402990000000 1.0
C      1  0.4754870000000  0.4992470000000  0.4402900000000 1.0
C      1  0.4916640000000  0.5242440000000  0.4407600000000 1.0
C      1  0.5204370000000  0.5165800000000  0.4410580000000 1.0
C      1  0.5220430000000  0.4868470000000  0.4407740000000 1.0
END
