TITL C-8692-4986-196 -1.01016209700452e-05 125000 -362.633270558694 0 0 60 (C1) n - 1
REM
REM in /home/bkarasulu/CARBON/AIRSS/Generating-Clusters/EDIP-Nigel-Params/Higher-Symm/Box-15A/Only-C60/SD-CG/HFTN-CG
REM
REM
REM
REM
REM
REM ./C.cell (414f73aa93bd7a1190c7fd0f31ff2f98)
REM
REM compiler GCC version 9.2.1 20190827 (Red Hat 9.2.1-1)
REM options -cpp -mtune=generic -march=x86-64 -g -O0 -fpre-include=/usr/include/finclude/math-vector-fortran.h
REM seed -494335068 470530548 -503850902 322895617 -475825555 -1339744646 1728170973 1002725327 1154008246 2008200407 -1032249447 -619302220 1513120051 -1944375170 2027678050 176620175 2094519772 -395627755 196264910 1840423995 -311380891 1582612170 -1915625566 -968673629 1840832687 -346938570 983968382 775104472 409302769 1115390796 -380983402 -553704948 2087983826
REM
CELL 1.54180   50.00000   50.00000   50.00000   90.00000   90.00000   90.00000
LATT -1
SFAC C  
C      1  0.5299200000000  0.4429570000000  0.4441470000000 1.0
C      1  0.4683330000000  0.5344300000000  0.5476180000000 1.0
C      1  0.4492890000000  0.5030790000000  0.4450070000000 1.0
C      1  0.5536530000000  0.5124950000000  0.4872410000000 1.0
C      1  0.4717360000000  0.5064580000000  0.4905480000000 1.0
C      1  0.5064000000000  0.4376640000000  0.4872750000000 1.0
C      1  0.4930470000000  0.4312930000000  0.5291760000000 1.0
C      1  0.5673980000000  0.4979030000000  0.5107410000000 1.0
C      1  0.4820760000000  0.4587230000000  0.5231860000000 1.0
C      1  0.5439440000000  0.5412440000000  0.5258880000000 1.0
C      1  0.5237330000000  0.4357930000000  0.5296190000000 1.0
C      1  0.5004950000000  0.5613150000000  0.5281720000000 1.0
C      1  0.4708790000000  0.5083070000000  0.5786440000000 1.0
C      1  0.5559380000000  0.5183540000000  0.5409630000000 1.0
C      1  0.4157910000000  0.5025210000000  0.4838010000000 1.0
C      1  0.5695330000000  0.4451990000000  0.4687530000000 1.0
C      1  0.5228460000000  0.5529350000000  0.5429860000000 1.0
C      1  0.4345340000000  0.5675990000000  0.5050180000000 1.0
C      1  0.5306140000000  0.4619060000000  0.5711810000000 1.0
C      1  0.5001680000000  0.5062500000000  0.4385670000000 1.0
C      1  0.4403000000000  0.5446120000000  0.4915650000000 1.0
C      1  0.4789040000000  0.5681680000000  0.4589710000000 1.0
C      1  0.4702240000000  0.5369010000000  0.4961840000000 1.0
C      1  0.5182800000000  0.5216300000000  0.4233850000000 1.0
C      1  0.4883860000000  0.5216070000000  0.5617890000000 1.0
C      1  0.4735780000000  0.5029430000000  0.4320730000000 1.0
C      1  0.5551800000000  0.4530640000000  0.4917650000000 1.0
C      1  0.5387250000000  0.5277720000000  0.4421450000000 1.0
C      1  0.5318010000000  0.5282260000000  0.5008750000000 1.0
C      1  0.5185170000000  0.5473060000000  0.4806610000000 1.0
C      1  0.4769180000000  0.5471030000000  0.5239760000000 1.0
C      1  0.5339240000000  0.5508580000000  0.4574840000000 1.0
C      1  0.5547930000000  0.4550900000000  0.4473870000000 1.0
C      1  0.4509940000000  0.4925750000000  0.4726330000000 1.0
C      1  0.5373450000000  0.5119420000000  0.5650460000000 1.0
C      1  0.5332380000000  0.4359710000000  0.5013200000000 1.0
C      1  0.4492610000000  0.4950030000000  0.5686030000000 1.0
C      1  0.4280060000000  0.4776830000000  0.4837480000000 1.0
C      1  0.4352730000000  0.5268670000000  0.4457960000000 1.0
C      1  0.4328000000000  0.5084730000000  0.5263680000000 1.0
C      1  0.5152900000000  0.5048130000000  0.5106710000000 1.0
C      1  0.4361000000000  0.5493350000000  0.4620800000000 1.0
C      1  0.4981650000000  0.4921790000000  0.4895340000000 1.0
C      1  0.4895320000000  0.5506150000000  0.4775940000000 1.0
C      1  0.5691710000000  0.4679460000000  0.5126440000000 1.0
C      1  0.5413340000000  0.5036630000000  0.4602250000000 1.0
C      1  0.4528380000000  0.5694320000000  0.4525510000000 1.0
C      1  0.4236590000000  0.5217860000000  0.5032570000000 1.0
C      1  0.5158650000000  0.5328470000000  0.5644610000000 1.0
C      1  0.5242510000000  0.4861420000000  0.5580940000000 1.0
C      1  0.4566980000000  0.4670390000000  0.5317190000000 1.0
C      1  0.5416720000000  0.4462010000000  0.5506200000000 1.0
C      1  0.5091270000000  0.4340050000000  0.4587420000000 1.0
C      1  0.5556260000000  0.4828210000000  0.4467210000000 1.0
C      1  0.5635720000000  0.4577290000000  0.5379930000000 1.0
C      1  0.5342220000000  0.4892460000000  0.5287610000000 1.0
C      1  0.5121670000000  0.4950220000000  0.4625910000000 1.0
C      1  0.4918620000000  0.4634370000000  0.4957700000000 1.0
C      1  0.4417400000000  0.4876840000000  0.5428610000000 1.0
C      1  0.4903320000000  0.4178380000000  0.5028060000000 1.0
END
