TITL C-8693-7204-4 -1.0622404171627e-06 125000 -372.352272183914 0 0 60 (C2) n - 1
REM
REM in /home/bkarasulu/CARBON/AIRSS/Generating-Clusters/EDIP-Nigel-Params/Higher-Symm/Box-15A/Only-C60/SD-CG/HFTN-CG
REM
REM
REM
REM
REM
REM ./C.cell (414f73aa93bd7a1190c7fd0f31ff2f98)
REM
REM compiler GCC version 9.2.1 20190827 (Red Hat 9.2.1-1)
REM options -cpp -mtune=generic -march=x86-64 -g -O0 -fpre-include=/usr/include/finclude/math-vector-fortran.h
REM seed -2052133821 -1447456946 -1715687830 592514056 -649536212 -232422877 -1437564507 -1131100856 851431199 -1852374891 -587770196 1293604836 813350726 1745683700 1251297355 2100682877 -680990273 251010900 2137367652 -808351214 -2125548340 674791659 604554587 -537760127 -913981984 -1819839841 -748875502 -1749397007 -884950337 1627564995 -1055773062 -1559856781 308244659
REM
CELL 1.54180   50.00000   50.00000   50.00000   90.00000   90.00000   90.00000
LATT -1
SFAC C  
C      1  0.4679690000000  0.4335590000000  0.4798980000000 1.0
C      1  0.4679800000000  0.5664460000000  0.5201010000000 1.0
C      1  0.5327350000000  0.4326580000000  0.5217400000000 1.0
C      1  0.5327460000000  0.5673360000000  0.4782600000000 1.0
C      1  0.5156600000000  0.4428240000000  0.4992480000000 1.0
C      1  0.5156690000000  0.5571730000000  0.5007520000000 1.0
C      1  0.4850530000000  0.4370160000000  0.5043710000000 1.0
C      1  0.4850630000000  0.5629870000000  0.4956290000000 1.0
C      1  0.5357150000000  0.4906880000000  0.4413990000000 1.0
C      1  0.5357160000000  0.5093050000000  0.5586010000000 1.0
C      1  0.4657210000000  0.4905770000000  0.5572030000000 1.0
C      1  0.4657230000000  0.5094280000000  0.4427960000000 1.0
C      1  0.5371360000000  0.4477760000000  0.4685550000000 1.0
C      1  0.5371440000000  0.5522180000000  0.5314460000000 1.0
C      1  0.4658890000000  0.4493780000000  0.5274490000000 1.0
C      1  0.4658970000000  0.5506280000000  0.4725510000000 1.0
C      1  0.5589310000000  0.5516490000000  0.4845180000000 1.0
C      1  0.5589220000000  0.4483410000000  0.5154830000000 1.0
C      1  0.4410010000000  0.5510850000000  0.5159160000000 1.0
C      1  0.4409920000000  0.4489250000000  0.4840830000000 1.0
C      1  0.4982670000000  0.5153100000000  0.5223000000000 1.0
C      1  0.4982640000000  0.4846900000000  0.4777000000000 1.0
C      1  0.5025900000000  0.5151180000000  0.4775110000000 1.0
C      1  0.5025870000000  0.4848810000000  0.5224890000000 1.0
C      1  0.4380160000000  0.4925500000000  0.5130480000000 1.0
C      1  0.4380170000000  0.5074610000000  0.4869520000000 1.0
C      1  0.5575090000000  0.4922430000000  0.4875970000000 1.0
C      1  0.5575100000000  0.5077470000000  0.5124040000000 1.0
C      1  0.5245160000000  0.5374370000000  0.5535350000000 1.0
C      1  0.5245100000000  0.4625590000000  0.4464650000000 1.0
C      1  0.4774750000000  0.5367600000000  0.4482880000000 1.0
C      1  0.4774680000000  0.4632440000000  0.5517110000000 1.0
C      1  0.5188080000000  0.4739470000000  0.4982170000000 1.0
C      1  0.5188120000000  0.5260500000000  0.5017830000000 1.0
C      1  0.4747010000000  0.4740810000000  0.4975500000000 1.0
C      1  0.4747060000000  0.5259230000000  0.5024500000000 1.0
C      1  0.4727660000000  0.5501550000000  0.5466460000000 1.0
C      1  0.4727580000000  0.4498500000000  0.4533540000000 1.0
C      1  0.5291850000000  0.5508940000000  0.4519890000000 1.0
C      1  0.5291760000000  0.4491010000000  0.5480110000000 1.0
C      1  0.4472120000000  0.4666290000000  0.4596300000000 1.0
C      1  0.4472180000000  0.5333800000000  0.5403700000000 1.0
C      1  0.5541320000000  0.4661420000000  0.5405470000000 1.0
C      1  0.5541380000000  0.5338490000000  0.4594530000000 1.0
C      1  0.5068450000000  0.4704830000000  0.5493460000000 1.0
C      1  0.5068500000000  0.5295160000000  0.4506540000000 1.0
C      1  0.4954080000000  0.4704780000000  0.4509070000000 1.0
C      1  0.4954130000000  0.5295220000000  0.5490930000000 1.0
C      1  0.4407090000000  0.4620200000000  0.5121000000000 1.0
C      1  0.4407160000000  0.5379900000000  0.4878990000000 1.0
C      1  0.5550660000000  0.4623100000000  0.4885900000000 1.0
C      1  0.5550720000000  0.5376810000000  0.5114100000000 1.0
C      1  0.4878000000000  0.4922230000000  0.4309520000000 1.0
C      1  0.4878000000000  0.5077790000000  0.5690480000000 1.0
C      1  0.5133150000000  0.4922130000000  0.5698760000000 1.0
C      1  0.5133170000000  0.5077850000000  0.4301240000000 1.0
C      1  0.5467370000000  0.4942350000000  0.5355440000000 1.0
C      1  0.5467380000000  0.5057570000000  0.4644570000000 1.0
C      1  0.4531060000000  0.4946500000000  0.4653300000000 1.0
C      1  0.4531060000000  0.5053580000000  0.5346700000000 1.0
END
