TITL C-8693-7204-185 -1.68111652166213e-06 125000 -368.777067385057 0 0 60 (C1) n - 1
REM
REM in /home/bkarasulu/CARBON/AIRSS/Generating-Clusters/EDIP-Nigel-Params/Higher-Symm/Box-15A/Only-C60/SD-CG/HFTN-CG
REM
REM
REM
REM
REM
REM ./C.cell (414f73aa93bd7a1190c7fd0f31ff2f98)
REM
REM compiler GCC version 9.2.1 20190827 (Red Hat 9.2.1-1)
REM options -cpp -mtune=generic -march=x86-64 -g -O0 -fpre-include=/usr/include/finclude/math-vector-fortran.h
REM seed 32432255 242875880 -1885856468 1144066257 -1544830287 -696292343 -229742962 80213774 1269180801 -555862808 2118160264 118715728 -1077651403 -1508147476 1010486999 -604597507 -640206719 512725043 1108164695 2111771287 1745948911 2066651720 -548254194 1032134863 1944781917 1609668713 -1764045977 1276615687 -1235122534 -1644344721 -1251331492 1702096472 -1529292380
REM
CELL 1.54180   50.00000   50.00000   50.00000   90.00000   90.00000   90.00000
LATT -1
SFAC C  
C      1  0.4461260000000  0.5148640000000  0.5153750000000 1.0
C      1  0.5552650000000  0.5138380000000  0.4844750000000 1.0
C      1  0.4463310000000  0.5146990000000  0.4843320000000 1.0
C      1  0.5553970000000  0.5139920000000  0.5154150000000 1.0
C      1  0.4831250000000  0.5487410000000  0.4266590000000 1.0
C      1  0.5098950000000  0.5439950000000  0.5714490000000 1.0
C      1  0.4830020000000  0.5479370000000  0.5733060000000 1.0
C      1  0.5100120000000  0.5450000000000  0.4285080000000 1.0
C      1  0.4851270000000  0.5017650000000  0.4268720000000 1.0
C      1  0.5132480000000  0.4994280000000  0.5643430000000 1.0
C      1  0.4851260000000  0.5010840000000  0.5731530000000 1.0
C      1  0.5135550000000  0.5004660000000  0.4344270000000 1.0
C      1  0.4687770000000  0.4777640000000  0.5682040000000 1.0
C      1  0.5310960000000  0.4783120000000  0.4327420000000 1.0
C      1  0.4691120000000  0.4784990000000  0.4324030000000 1.0
C      1  0.5312670000000  0.4778280000000  0.5678380000000 1.0
C      1  0.5299030000000  0.5703340000000  0.4865090000000 1.0
C      1  0.4707180000000  0.5696390000000  0.5132720000000 1.0
C      1  0.5297360000000  0.5706940000000  0.5133380000000 1.0
C      1  0.4708200000000  0.5694420000000  0.4864260000000 1.0
C      1  0.4446630000000  0.4856100000000  0.5548370000000 1.0
C      1  0.5560860000000  0.4846990000000  0.4446580000000 1.0
C      1  0.4444910000000  0.4859720000000  0.4447370000000 1.0
C      1  0.5560020000000  0.4843580000000  0.5552100000000 1.0
C      1  0.5156710000000  0.4550690000000  0.4403880000000 1.0
C      1  0.4859480000000  0.4555580000000  0.5589570000000 1.0
C      1  0.5155710000000  0.4550630000000  0.5591040000000 1.0
C      1  0.4859360000000  0.4557640000000  0.4405140000000 1.0
C      1  0.4435190000000  0.4659750000000  0.4843900000000 1.0
C      1  0.5574280000000  0.4649920000000  0.5150050000000 1.0
C      1  0.4430740000000  0.4660650000000  0.5148510000000 1.0
C      1  0.5570560000000  0.4648870000000  0.4844750000000 1.0
C      1  0.5293370000000  0.5231040000000  0.4690890000000 1.0
C      1  0.4722410000000  0.5224590000000  0.5310640000000 1.0
C      1  0.5292670000000  0.5233080000000  0.5305650000000 1.0
C      1  0.4723360000000  0.5223580000000  0.4685620000000 1.0
C      1  0.5285740000000  0.4660730000000  0.5258590000000 1.0
C      1  0.4726410000000  0.4649980000000  0.4740780000000 1.0
C      1  0.5279150000000  0.4643780000000  0.4742250000000 1.0
C      1  0.4718810000000  0.4666500000000  0.5260090000000 1.0
C      1  0.4339990000000  0.4907130000000  0.5287030000000 1.0
C      1  0.5666500000000  0.4894410000000  0.4708560000000 1.0
C      1  0.4340990000000  0.4906730000000  0.4709440000000 1.0
C      1  0.5667140000000  0.4894900000000  0.5290280000000 1.0
C      1  0.4845220000000  0.4400390000000  0.4862180000000 1.0
C      1  0.5155150000000  0.4404810000000  0.5171480000000 1.0
C      1  0.4843980000000  0.4408140000000  0.5171200000000 1.0
C      1  0.5154690000000  0.4396790000000  0.4862900000000 1.0
C      1  0.5273820000000  0.5251040000000  0.4382820000000 1.0
C      1  0.4710270000000  0.5245570000000  0.5623730000000 1.0
C      1  0.5270840000000  0.5241770000000  0.5611480000000 1.0
C      1  0.4711180000000  0.5252880000000  0.4373250000000 1.0
C      1  0.5161250000000  0.4933590000000  0.5158160000000 1.0
C      1  0.4850500000000  0.4929280000000  0.4832010000000 1.0
C      1  0.5162060000000  0.4928030000000  0.4834290000000 1.0
C      1  0.4850490000000  0.4934660000000  0.5161350000000 1.0
C      1  0.4859450000000  0.5473640000000  0.4779380000000 1.0
C      1  0.5152260000000  0.5483600000000  0.5222250000000 1.0
C      1  0.4858270000000  0.5477150000000  0.5221700000000 1.0
C      1  0.5153230000000  0.5478900000000  0.4780240000000 1.0
END
