TITL C-8693-7204-109 -1.04910667398123e-05 125000 -353.940080517484 0 0 60 (C3) n - 1
REM
REM in /home/bkarasulu/CARBON/AIRSS/Generating-Clusters/EDIP-Nigel-Params/Higher-Symm/Box-15A/Only-C60/SD-CG/HFTN-CG
REM
REM
REM
REM
REM
REM ./C.cell (414f73aa93bd7a1190c7fd0f31ff2f98)
REM
REM compiler GCC version 9.2.1 20190827 (Red Hat 9.2.1-1)
REM options -cpp -mtune=generic -march=x86-64 -g -O0 -fpre-include=/usr/include/finclude/math-vector-fortran.h
REM seed -335330789 -1880625679 1441274511 -673743987 18835528 -1809030860 -187040223 821962703 -280860468 88947384 -249756615 -1443487632 1428390736 -782286938 -2119338335 -1607333000 237279287 -757913745 -1280032781 -358940395 643777166 573758944 2130680402 1752550538 107437761 -2105482505 821516341 2002874738 -1029944074 -934941079 993629215 -598406698 1108649353
REM
CELL 1.54180   50.00000   50.00000   50.00000   90.00000   90.00000   90.00000
LATT -1
SFAC C  
C      1  0.4794390000000  0.5060110000000  0.4296140000000 1.0
C      1  0.4493250000000  0.5060070000000  0.5530000000000 1.0
C      1  0.5712370000000  0.5059970000000  0.5173860000000 1.0
C      1  0.5497130000000  0.5150910000000  0.5587380000000 1.0
C      1  0.5260130000000  0.5151010000000  0.4275810000000 1.0
C      1  0.4242780000000  0.5151060000000  0.5136840000000 1.0
C      1  0.5524240000000  0.5221550000000  0.4381080000000 1.0
C      1  0.4201900000000  0.5221650000000  0.4855490000000 1.0
C      1  0.5273920000000  0.5221500000000  0.5763470000000 1.0
C      1  0.4724250000000  0.5104080000000  0.5698990000000 1.0
C      1  0.5743230000000  0.5104030000000  0.4889330000000 1.0
C      1  0.4532560000000  0.5104170000000  0.4411700000000 1.0
C      1  0.5254380000000  0.5117220000000  0.4893280000000 1.0
C      1  0.4780400000000  0.5117260000000  0.4833080000000 1.0
C      1  0.4965260000000  0.5117220000000  0.5273660000000 1.0
C      1  0.5505640000000  0.5275200000000  0.4835860000000 1.0
C      1  0.4605050000000  0.5275300000000  0.4644220000000 1.0
C      1  0.4889380000000  0.5275220000000  0.5519970000000 1.0
C      1  0.4968710000000  0.4420800000000  0.5435260000000 1.0
C      1  0.5392540000000  0.4420790000000  0.4809370000000 1.0
C      1  0.4638590000000  0.4420870000000  0.4755270000000 1.0
C      1  0.4898230000000  0.4701540000000  0.5411660000000 1.0
C      1  0.5407370000000  0.4701520000000  0.4882260000000 1.0
C      1  0.4694320000000  0.4701600000000  0.4706030000000 1.0
C      1  0.5037350000000  0.5043610000000  0.4710710000000 1.0
C      1  0.4730800000000  0.5043620000000  0.5112300000000 1.0
C      1  0.5231860000000  0.5043570000000  0.5176990000000 1.0
C      1  0.4524130000000  0.4767910000000  0.5488990000000 1.0
C      1  0.5661390000000  0.4767820000000  0.5167590000000 1.0
C      1  0.4814420000000  0.4767950000000  0.4343390000000 1.0
C      1  0.5280250000000  0.5488510000000  0.5129450000000 1.0
C      1  0.4972020000000  0.5488560000000  0.4692650000000 1.0
C      1  0.4747860000000  0.5488550000000  0.5177990000000 1.0
C      1  0.5233450000000  0.5556010000000  0.4827120000000 1.0
C      1  0.4733610000000  0.5556060000000  0.4884360000000 1.0
C      1  0.5033100000000  0.5556010000000  0.5288610000000 1.0
C      1  0.4388980000000  0.5423690000000  0.4771290000000 1.0
C      1  0.5107470000000  0.5423580000000  0.5643580000000 1.0
C      1  0.5503660000000  0.5423600000000  0.4585200000000 1.0
C      1  0.5467250000000  0.5214650000000  0.5290230000000 1.0
C      1  0.5017740000000  0.5214740000000  0.4450270000000 1.0
C      1  0.4515070000000  0.5214740000000  0.5259540000000 1.0
C      1  0.5497220000000  0.4678370000000  0.5410140000000 1.0
C      1  0.5106560000000  0.4678460000000  0.4364270000000 1.0
C      1  0.4396140000000  0.4678480000000  0.5225530000000 1.0
C      1  0.4198810000000  0.4861430000000  0.5116650000000 1.0
C      1  0.5501610000000  0.4861280000000  0.5635510000000 1.0
C      1  0.5299550000000  0.4861380000000  0.4247820000000 1.0
C      1  0.4693850000000  0.4743090000000  0.5140240000000 1.0
C      1  0.5274500000000  0.4743030000000  0.5194970000000 1.0
C      1  0.5031580000000  0.4743080000000  0.4664750000000 1.0
C      1  0.5653300000000  0.4863350000000  0.4737170000000 1.0
C      1  0.4445720000000  0.4863470000000  0.4565620000000 1.0
C      1  0.4900950000000  0.4863360000000  0.5697190000000 1.0
C      1  0.5122240000000  0.4363920000000  0.4870540000000 1.0
C      1  0.4826710000000  0.4363950000000  0.4958760000000 1.0
C      1  0.5050870000000  0.4363910000000  0.5170590000000 1.0
C      1  0.5165040000000  0.4943810000000  0.5795550000000 1.0
C      1  0.5606440000000  0.4943850000000  0.4459290000000 1.0
C      1  0.4228510000000  0.4943960000000  0.4745150000000 1.0
END
