TITL C-8698-8182-8 7.67611255302688e-05 125000 -362.414756322741 0 0 60 (C1) n - 1
REM
REM in /home/bkarasulu/CARBON/AIRSS/Generating-Clusters/EDIP-Nigel-Params/Higher-Symm/Box-15A/Only-C60/SD-CG/HFTN-CG
REM
REM
REM
REM
REM
REM ./C.cell (414f73aa93bd7a1190c7fd0f31ff2f98)
REM
REM compiler GCC version 9.2.1 20190827 (Red Hat 9.2.1-1)
REM options -cpp -mtune=generic -march=x86-64 -g -O0 -fpre-include=/usr/include/finclude/math-vector-fortran.h
REM seed 2060448467 -1717289371 463313042 413180777 332991816 59345071 -1020003190 1045262026 -236324939 1316298081 -2032992964 -1353696629 1066776435 -148770944 417063479 1514514699 2085188931 619997964 -963638724 -522228131 -1153928770 1804151183 246524367 -1932660879 -1538707782 383822077 35704117 -884720596 1749067602 1205070980 1416398965 -1650961536 435062402
REM
CELL 1.54180   50.00000   50.00000   50.00000   90.00000   90.00000   90.00000
LATT -1
SFAC C  
C      1  0.5598350000000  0.4929240000000  0.4700050000000 1.0
C      1  0.5580490000000  0.4775790000000  0.5196340000000 1.0
C      1  0.5573660000000  0.5280870000000  0.5084280000000 1.0
C      1  0.4307360000000  0.4902260000000  0.4753600000000 1.0
C      1  0.4302000000000  0.4892680000000  0.5228590000000 1.0
C      1  0.4332240000000  0.5311770000000  0.5002170000000 1.0
C      1  0.5545630000000  0.5208050000000  0.4796340000000 1.0
C      1  0.5538320000000  0.5058750000000  0.5280170000000 1.0
C      1  0.5554950000000  0.4713130000000  0.4902700000000 1.0
C      1  0.4421450000000  0.5161760000000  0.4776050000000 1.0
C      1  0.4420170000000  0.5151330000000  0.5220960000000 1.0
C      1  0.4393820000000  0.4773160000000  0.4989410000000 1.0
C      1  0.5314300000000  0.5672110000000  0.4985860000000 1.0
C      1  0.5383220000000  0.4599130000000  0.4411760000000 1.0
C      1  0.5231760000000  0.4694060000000  0.5500750000000 1.0
C      1  0.4742880000000  0.5585360000000  0.5014870000000 1.0
C      1  0.4747950000000  0.4723340000000  0.4502340000000 1.0
C      1  0.4702000000000  0.4714500000000  0.5494980000000 1.0
C      1  0.5331030000000  0.4279220000000  0.5003730000000 1.0
C      1  0.5244730000000  0.5317890000000  0.4364410000000 1.0
C      1  0.5245400000000  0.5360170000000  0.5617360000000 1.0
C      1  0.4692530000000  0.4340090000000  0.5009110000000 1.0
C      1  0.4659040000000  0.5358450000000  0.4366170000000 1.0
C      1  0.4701460000000  0.5341390000000  0.5639720000000 1.0
C      1  0.4809460000000  0.4849420000000  0.5251770000000 1.0
C      1  0.4838220000000  0.5299320000000  0.5005120000000 1.0
C      1  0.4820820000000  0.4866900000000  0.4751640000000 1.0
C      1  0.5126680000000  0.4837620000000  0.5257240000000 1.0
C      1  0.5162580000000  0.5288740000000  0.5006000000000 1.0
C      1  0.5121200000000  0.4871510000000  0.4781930000000 1.0
C      1  0.4720010000000  0.5143640000000  0.5244000000000 1.0
C      1  0.4689820000000  0.4716830000000  0.4993800000000 1.0
C      1  0.4721200000000  0.5156530000000  0.4756520000000 1.0
C      1  0.5243550000000  0.5127400000000  0.5272690000000 1.0
C      1  0.5252580000000  0.4699430000000  0.4992110000000 1.0
C      1  0.5255370000000  0.5140900000000  0.4740780000000 1.0
C      1  0.4637770000000  0.5122830000000  0.4240070000000 1.0
C      1  0.4746370000000  0.4287150000000  0.5274090000000 1.0
C      1  0.4673650000000  0.5573530000000  0.5507110000000 1.0
C      1  0.5354970000000  0.5076180000000  0.4314010000000 1.0
C      1  0.5423820000000  0.4333440000000  0.5250200000000 1.0
C      1  0.5363690000000  0.5524980000000  0.5437610000000 1.0
C      1  0.4687030000000  0.4862790000000  0.4272280000000 1.0
C      1  0.4691780000000  0.5690490000000  0.5267330000000 1.0
C      1  0.4717130000000  0.4437820000000  0.5493640000000 1.0
C      1  0.5481360000000  0.4859820000000  0.4434100000000 1.0
C      1  0.5469680000000  0.5544670000000  0.5180900000000 1.0
C      1  0.5471750000000  0.4569230000000  0.5389490000000 1.0
C      1  0.4835420000000  0.4454240000000  0.4519180000000 1.0
C      1  0.4714540000000  0.4867640000000  0.5727250000000 1.0
C      1  0.4865530000000  0.5744200000000  0.4807870000000 1.0
C      1  0.5216660000000  0.4398300000000  0.4504250000000 1.0
C      1  0.5262630000000  0.4877190000000  0.5711220000000 1.0
C      1  0.5141000000000  0.5657670000000  0.4761620000000 1.0
C      1  0.4816890000000  0.5555040000000  0.4477160000000 1.0
C      1  0.4838630000000  0.5118000000000  0.5734340000000 1.0
C      1  0.4883410000000  0.4371570000000  0.4795360000000 1.0
C      1  0.5091750000000  0.5489010000000  0.4525850000000 1.0
C      1  0.5123190000000  0.5120100000000  0.5696310000000 1.0
C      1  0.5165110000000  0.4321400000000  0.4783410000000 1.0
END
