TITL C-8699-7882-19 -5.67634543315847e-07 125000 -375.135524255988 0 0 60 (C5) n - 1
REM
REM in /home/bkarasulu/CARBON/AIRSS/Generating-Clusters/EDIP-Nigel-Params/Higher-Symm/Box-15A/Only-C60/SD-CG/HFTN-CG
REM
REM
REM
REM
REM
REM ./C.cell (414f73aa93bd7a1190c7fd0f31ff2f98)
REM
REM compiler GCC version 9.2.1 20190827 (Red Hat 9.2.1-1)
REM options -cpp -mtune=generic -march=x86-64 -g -O0 -fpre-include=/usr/include/finclude/math-vector-fortran.h
REM seed -1954318951 -1815816855 1930292923 -583972067 -1120294532 42925180 979868558 551535771 2097671483 1380303441 866210674 -2141988214 -268017385 -964410517 -1451547178 1829557179 1183689588 1827177952 387501449 509501007 -1811434453 -1964113129 923204673 -1852445612 585717370 -1165942133 -2039780077 1583241253 -1463606954 21732196 -1253614428 1206209817 -386587147
REM
CELL 1.54180   50.00000   50.00000   50.00000   90.00000   90.00000   90.00000
LATT -1
SFAC C  
C      1  0.5389690000000  0.5027180000000  0.5529560000000 1.0
C      1  0.5389630000000  0.4504730000000  0.5189530000000 1.0
C      1  0.5389640000000  0.4666670000000  0.4587570000000 1.0
C      1  0.5389700000000  0.5289210000000  0.4555570000000 1.0
C      1  0.5389730000000  0.5512020000000  0.5137760000000 1.0
C      1  0.4505440000000  0.4747970000000  0.4964900000000 1.0
C      1  0.4505460000000  0.4955540000000  0.4749410000000 1.0
C      1  0.4505490000000  0.5224620000000  0.4880230000000 1.0
C      1  0.4505490000000  0.5183350000000  0.5176570000000 1.0
C      1  0.4505460000000  0.4888760000000  0.5228900000000 1.0
C      1  0.5115720000000  0.5539620000000  0.4985170000000 1.0
C      1  0.5115690000000  0.5180850000000  0.5508630000000 1.0
C      1  0.5115630000000  0.4572140000000  0.5329190000000 1.0
C      1  0.5115620000000  0.4554700000000  0.4694810000000 1.0
C      1  0.5115680000000  0.5152640000000  0.4482200000000 1.0
C      1  0.4964990000000  0.5753270000000  0.4555580000000 1.0
C      1  0.4964980000000  0.5655450000000  0.5579070000000 1.0
C      1  0.4964890000000  0.4651820000000  0.5802310000000 1.0
C      1  0.4964830000000  0.4129370000000  0.4916780000000 1.0
C      1  0.4964890000000  0.4810110000000  0.4146260000000 1.0
C      1  0.5402700000000  0.5567340000000  0.4573620000000 1.0
C      1  0.5402710000000  0.5580800000000  0.5407850000000 1.0
C      1  0.5402630000000  0.4791560000000  0.5678440000000 1.0
C      1  0.5402580000000  0.4290320000000  0.5011450000000 1.0
C      1  0.5402620000000  0.4769780000000  0.4328630000000 1.0
C      1  0.5174400000000  0.5647980000000  0.4708600000000 1.0
C      1  0.5174390000000  0.5477360000000  0.5526240000000 1.0
C      1  0.5174310000000  0.4647020000000  0.5616630000000 1.0
C      1  0.5174270000000  0.4304460000000  0.4854860000000 1.0
C      1  0.5174330000000  0.4923090000000  0.4293670000000 1.0
C      1  0.4780810000000  0.4723690000000  0.4342470000000 1.0
C      1  0.4780890000000  0.5539980000000  0.4534010000000 1.0
C      1  0.4780900000000  0.5610060000000  0.5369530000000 1.0
C      1  0.4780830000000  0.4837090000000  0.5694380000000 1.0
C      1  0.4780770000000  0.4289280000000  0.5059620000000 1.0
C      1  0.4633090000000  0.4468300000000  0.5452940000000 1.0
C      1  0.4633080000000  0.4404950000000  0.4634260000000 1.0
C      1  0.4633150000000  0.5163990000000  0.4321020000000 1.0
C      1  0.4633210000000  0.5696450000000  0.4946110000000 1.0
C      1  0.4633170000000  0.5266490000000  0.5645680000000 1.0
C      1  0.4866010000000  0.4496680000000  0.4505070000000 1.0
C      1  0.4866090000000  0.5315180000000  0.4368360000000 1.0
C      1  0.4866130000000  0.5698130000000  0.5104560000000 1.0
C      1  0.4866080000000  0.5116300000000  0.5696260000000 1.0
C      1  0.4866010000000  0.4373770000000  0.5325760000000 1.0
C      1  0.4598230000000  0.4744320000000  0.5476280000000 1.0
C      1  0.4598200000000  0.4468050000000  0.4903980000000 1.0
C      1  0.4598240000000  0.4926970000000  0.4464380000000 1.0
C      1  0.4598300000000  0.5486870000000  0.4764990000000 1.0
C      1  0.4598290000000  0.5373990000000  0.5390390000000 1.0
C      1  0.5535980000000  0.5252950000000  0.5066160000000 1.0
C      1  0.5535960000000  0.5015200000000  0.5261060000000 1.0
C      1  0.5535930000000  0.4756370000000  0.5095170000000 1.0
C      1  0.5535940000000  0.4834160000000  0.4797750000000 1.0
C      1  0.5535970000000  0.5141060000000  0.4779830000000 1.0
C      1  0.5033010000000  0.4810670000000  0.5159830000000 1.0
C      1  0.5033010000000  0.4789480000000  0.4869330000000 1.0
C      1  0.5033030000000  0.5059220000000  0.4759410000000 1.0
C      1  0.5033050000000  0.5247120000000  0.4981980000000 1.0
C      1  0.5033040000000  0.5093500000000  0.5229460000000 1.0
END
