TITL C-8698-8182-214 1.43120366725771e-05 125000 -358.758807685251 0 0 60 (C1) n - 1
REM
REM in /home/bkarasulu/CARBON/AIRSS/Generating-Clusters/EDIP-Nigel-Params/Higher-Symm/Box-15A/Only-C60/SD-CG/HFTN-CG
REM
REM
REM
REM
REM
REM ./C.cell (414f73aa93bd7a1190c7fd0f31ff2f98)
REM
REM compiler GCC version 9.2.1 20190827 (Red Hat 9.2.1-1)
REM options -cpp -mtune=generic -march=x86-64 -g -O0 -fpre-include=/usr/include/finclude/math-vector-fortran.h
REM seed 1883655561 1273680711 -199539753 1471408845 1447461867 438447139 1771600256 1415067560 76903387 -1210368895 506178842 -894336648 -95684955 194844109 1619541004 1128821941 683792694 -1446991758 707912144 -994505550 -1549533834 1528129204 -1479015988 2103667981 1925054226 -469770486 366207769 -134413799 1922126178 2042840757 -293659903 2134988207 -2113618049
REM
CELL 1.54180   50.00000   50.00000   50.00000   90.00000   90.00000   90.00000
LATT -1
SFAC C  
C      1  0.5521380000000  0.4601030000000  0.4877570000000 1.0
C      1  0.5346220000000  0.4993790000000  0.4542840000000 1.0
C      1  0.5466410000000  0.5354820000000  0.4859660000000 1.0
C      1  0.5304830000000  0.5122190000000  0.5396610000000 1.0
C      1  0.5451260000000  0.4859200000000  0.5272810000000 1.0
C      1  0.4554130000000  0.5419290000000  0.4913330000000 1.0
C      1  0.4710610000000  0.4872090000000  0.4625340000000 1.0
C      1  0.4575610000000  0.4742960000000  0.4872780000000 1.0
C      1  0.4462490000000  0.4753880000000  0.5316890000000 1.0
C      1  0.4637310000000  0.5271990000000  0.5382240000000 1.0
C      1  0.4680180000000  0.4405140000000  0.5199030000000 1.0
C      1  0.4693140000000  0.4413360000000  0.4538280000000 1.0
C      1  0.4612620000000  0.5424380000000  0.4432270000000 1.0
C      1  0.4809600000000  0.5651070000000  0.5173660000000 1.0
C      1  0.4546830000000  0.5029950000000  0.5727720000000 1.0
C      1  0.5434420000000  0.5675370000000  0.5223570000000 1.0
C      1  0.5148590000000  0.5382600000000  0.4360340000000 1.0
C      1  0.5558470000000  0.4637180000000  0.4394420000000 1.0
C      1  0.5307840000000  0.4383910000000  0.5180560000000 1.0
C      1  0.5272110000000  0.4868290000000  0.5789040000000 1.0
C      1  0.4512740000000  0.4959320000000  0.4437190000000 1.0
C      1  0.4392430000000  0.5662430000000  0.4915110000000 1.0
C      1  0.4463890000000  0.5461210000000  0.5524270000000 1.0
C      1  0.4254440000000  0.4562830000000  0.5390870000000 1.0
C      1  0.4405230000000  0.4524810000000  0.4764170000000 1.0
C      1  0.5570700000000  0.5116930000000  0.4395880000000 1.0
C      1  0.5734930000000  0.4413450000000  0.4943320000000 1.0
C      1  0.5641480000000  0.4759080000000  0.5469790000000 1.0
C      1  0.5493800000000  0.5299280000000  0.5520050000000 1.0
C      1  0.5491790000000  0.5495840000000  0.4620500000000 1.0
C      1  0.4640080000000  0.4860000000000  0.5531030000000 1.0
C      1  0.4783380000000  0.4612930000000  0.5043990000000 1.0
C      1  0.4861040000000  0.4643410000000  0.4509540000000 1.0
C      1  0.4725430000000  0.5360080000000  0.4679840000000 1.0
C      1  0.4888250000000  0.5419950000000  0.5305980000000 1.0
C      1  0.5119740000000  0.5012180000000  0.5602430000000 1.0
C      1  0.5309280000000  0.5486560000000  0.5059940000000 1.0
C      1  0.5094530000000  0.5129900000000  0.4464040000000 1.0
C      1  0.5399610000000  0.4563150000000  0.4605950000000 1.0
C      1  0.5244790000000  0.4652970000000  0.5218860000000 1.0
C      1  0.4487990000000  0.5206400000000  0.4336670000000 1.0
C      1  0.4605870000000  0.5781970000000  0.5043790000000 1.0
C      1  0.4485460000000  0.5295740000000  0.5741760000000 1.0
C      1  0.4434610000000  0.4364650000000  0.5319290000000 1.0
C      1  0.4418690000000  0.4424450000000  0.4506540000000 1.0
C      1  0.5611380000000  0.4875000000000  0.4275280000000 1.0
C      1  0.5545970000000  0.4276370000000  0.5092960000000 1.0
C      1  0.5513280000000  0.4777430000000  0.5708370000000 1.0
C      1  0.5528080000000  0.5552910000000  0.5442570000000 1.0
C      1  0.5342570000000  0.5565790000000  0.4405210000000 1.0
C      1  0.4992330000000  0.4793950000000  0.5162850000000 1.0
C      1  0.5132070000000  0.5282430000000  0.5187510000000 1.0
C      1  0.4895190000000  0.5112350000000  0.4689890000000 1.0
C      1  0.4914190000000  0.4872800000000  0.5446070000000 1.0
C      1  0.5130650000000  0.4620510000000  0.4572080000000 1.0
C      1  0.5550530000000  0.4882330000000  0.4991350000000 1.0
C      1  0.4426570000000  0.4925400000000  0.5066290000000 1.0
C      1  0.5371510000000  0.5068910000000  0.4842250000000 1.0
C      1  0.4506050000000  0.5205020000000  0.5120260000000 1.0
C      1  0.5071450000000  0.5060720000000  0.4971280000000 1.0
END
