TITL C-8691-6797-296 -4.61632223054667e-07 125000 -357.254792641674 0 0 60 (C1) n - 1
REM
REM in /home/bkarasulu/CARBON/AIRSS/Generating-Clusters/EDIP-Nigel-Params/Higher-Symm/Box-15A/Only-C60/SD-CG/HFTN-CG
REM
REM
REM
REM
REM
REM ./C.cell (414f73aa93bd7a1190c7fd0f31ff2f98)
REM
REM compiler GCC version 9.2.1 20190827 (Red Hat 9.2.1-1)
REM options -cpp -mtune=generic -march=x86-64 -g -O0 -fpre-include=/usr/include/finclude/math-vector-fortran.h
REM seed -1708535344 -1750685946 1799437456 901604305 -923125056 -1140025591 1768824846 1059866159 1456448024 -2056825789 -700406347 -681810610 -1662146901 -19701105 13186842 -762931650 -1537428901 -70959971 1782047860 1199958804 -454034906 -1502531120 493463391 -2105264689 675049513 1002459300 1488957974 -172365669 208796010 1438192843 -883110236 455748049 1388179976
REM
CELL 1.54180   50.00000   50.00000   50.00000   90.00000   90.00000   90.00000
LATT -1
SFAC C  
C      1  0.5198120000000  0.4487920000000  0.4458190000000 1.0
C      1  0.4632180000000  0.4485680000000  0.4554840000000 1.0
C      1  0.4435680000000  0.4491950000000  0.5089210000000 1.0
C      1  0.4800790000000  0.4486580000000  0.5531330000000 1.0
C      1  0.5359040000000  0.4510030000000  0.5435520000000 1.0
C      1  0.5565630000000  0.4465980000000  0.4902330000000 1.0
C      1  0.5188990000000  0.5493430000000  0.4472790000000 1.0
C      1  0.4625240000000  0.5518990000000  0.4568110000000 1.0
C      1  0.4431710000000  0.5498960000000  0.5101500000000 1.0
C      1  0.4797930000000  0.5519920000000  0.5549060000000 1.0
C      1  0.5358060000000  0.5518300000000  0.5450220000000 1.0
C      1  0.5556530000000  0.5555540000000  0.4922070000000 1.0
C      1  0.4676620000000  0.4719680000000  0.5471950000000 1.0
C      1  0.5251350000000  0.4745250000000  0.5525180000000 1.0
C      1  0.5575340000000  0.4693310000000  0.5054150000000 1.0
C      1  0.5324610000000  0.4722370000000  0.4514780000000 1.0
C      1  0.4752260000000  0.4716860000000  0.4478680000000 1.0
C      1  0.4425410000000  0.4728520000000  0.4954590000000 1.0
C      1  0.4678370000000  0.5286310000000  0.5476030000000 1.0
C      1  0.5254410000000  0.5276570000000  0.5513820000000 1.0
C      1  0.5584100000000  0.5291640000000  0.5010650000000 1.0
C      1  0.5327030000000  0.5260520000000  0.4511950000000 1.0
C      1  0.4750160000000  0.5292410000000  0.4483250000000 1.0
C      1  0.4420320000000  0.5267090000000  0.4956180000000 1.0
C      1  0.4528160000000  0.4862410000000  0.4428590000000 1.0
C      1  0.4251380000000  0.4854360000000  0.5121750000000 1.0
C      1  0.4744800000000  0.4859020000000  0.5694750000000 1.0
C      1  0.5486460000000  0.4870260000000  0.5580990000000 1.0
C      1  0.5748690000000  0.4828850000000  0.4894070000000 1.0
C      1  0.5256870000000  0.4854180000000  0.4285570000000 1.0
C      1  0.4527140000000  0.5144270000000  0.4432180000000 1.0
C      1  0.4249590000000  0.5136210000000  0.5124530000000 1.0
C      1  0.4748470000000  0.5140850000000  0.5695390000000 1.0
C      1  0.5486650000000  0.5153270000000  0.5579340000000 1.0
C      1  0.5762490000000  0.5103750000000  0.4906160000000 1.0
C      1  0.5250820000000  0.5137290000000  0.4282860000000 1.0
C      1  0.4882400000000  0.4810520000000  0.4725210000000 1.0
C      1  0.4693480000000  0.4852310000000  0.4964840000000 1.0
C      1  0.4826430000000  0.4818430000000  0.5239680000000 1.0
C      1  0.5126700000000  0.4863920000000  0.5284180000000 1.0
C      1  0.5299500000000  0.4799810000000  0.5035810000000 1.0
C      1  0.5187620000000  0.4842320000000  0.4747360000000 1.0
C      1  0.4885150000000  0.5196000000000  0.4726980000000 1.0
C      1  0.4691590000000  0.5147220000000  0.4962850000000 1.0
C      1  0.4827040000000  0.5203500000000  0.5233990000000 1.0
C      1  0.5132350000000  0.5158810000000  0.5274010000000 1.0
C      1  0.5311320000000  0.5183000000000  0.5018280000000 1.0
C      1  0.5190100000000  0.5137280000000  0.4743070000000 1.0
C      1  0.4897490000000  0.4386080000000  0.5275250000000 1.0
C      1  0.5188080000000  0.4410360000000  0.5219360000000 1.0
C      1  0.5291670000000  0.4370690000000  0.4942680000000 1.0
C      1  0.5099290000000  0.4392560000000  0.4714920000000 1.0
C      1  0.4805100000000  0.4380140000000  0.4765180000000 1.0
C      1  0.4706130000000  0.4394540000000  0.5046100000000 1.0
C      1  0.4889830000000  0.5632150000000  0.5294110000000 1.0
C      1  0.5183200000000  0.5619840000000  0.5239490000000 1.0
C      1  0.5281380000000  0.5616410000000  0.4959580000000 1.0
C      1  0.5090110000000  0.5590030000000  0.4732370000000 1.0
C      1  0.4798420000000  0.5621940000000  0.4780260000000 1.0
C      1  0.4704220000000  0.5593600000000  0.5061880000000 1.0
END
