TITL C-8697-8172-92 9.19059549423435e-07 125000 -345.082816493585 0 0 60 (C1) n - 1
REM
REM in /home/bkarasulu/CARBON/AIRSS/Generating-Clusters/EDIP-Nigel-Params/Higher-Symm/Box-15A/Only-C60/SD-CG/HFTN-CG
REM
REM
REM
REM
REM
REM ./C.cell (414f73aa93bd7a1190c7fd0f31ff2f98)
REM
REM compiler GCC version 9.2.1 20190827 (Red Hat 9.2.1-1)
REM options -cpp -mtune=generic -march=x86-64 -g -O0 -fpre-include=/usr/include/finclude/math-vector-fortran.h
REM seed 1484711955 -1026459775 1225347800 -1842873096 1283391632 1156662804 -1883323901 -737001910 -990236253 2049602346 19408684 742672899 319559938 -1792116900 -2104638824 -709635982 -1621805105 -940120673 -719700561 -242516582 675669036 223164838 -2112223988 -319972981 1342402641 640679506 -1757215333 1467645420 -1012570334 405035922 -2106495350 1243855922 -1948702054
REM
CELL 1.54180   50.00000   50.00000   50.00000   90.00000   90.00000   90.00000
LATT -1
SFAC C  
C      1  0.4711120000000  0.5078610000000  0.5589890000000 1.0
C      1  0.5074650000000  0.5596380000000  0.4717020000000 1.0
C      1  0.5607260000000  0.4730390000000  0.5061320000000 1.0
C      1  0.5265320000000  0.4945050000000  0.5607320000000 1.0
C      1  0.4719500000000  0.4930370000000  0.4409000000000 1.0
C      1  0.5279390000000  0.5069160000000  0.4403240000000 1.0
C      1  0.4926650000000  0.4397330000000  0.4713130000000 1.0
C      1  0.5058370000000  0.4391900000000  0.5270530000000 1.0
C      1  0.4936400000000  0.5601250000000  0.5272790000000 1.0
C      1  0.4389690000000  0.5269920000000  0.5061170000000 1.0
C      1  0.5600730000000  0.5279840000000  0.4918120000000 1.0
C      1  0.4403260000000  0.4710490000000  0.4931580000000 1.0
C      1  0.5055710000000  0.4735110000000  0.5608340000000 1.0
C      1  0.5601270000000  0.5067600000000  0.4709750000000 1.0
C      1  0.4728230000000  0.5609200000000  0.5061200000000 1.0
C      1  0.4921660000000  0.5289200000000  0.5588880000000 1.0
C      1  0.4929680000000  0.4720060000000  0.4407050000000 1.0
C      1  0.5068770000000  0.5279740000000  0.4405210000000 1.0
C      1  0.4402190000000  0.4919620000000  0.4720470000000 1.0
C      1  0.4398340000000  0.5063480000000  0.5274510000000 1.0
C      1  0.5607560000000  0.4941870000000  0.5268890000000 1.0
C      1  0.5268030000000  0.4391620000000  0.5061070000000 1.0
C      1  0.5285700000000  0.5593080000000  0.4926360000000 1.0
C      1  0.4716460000000  0.4395430000000  0.4923370000000 1.0
C      1  0.5102760000000  0.5829980000000  0.5302090000000 1.0
C      1  0.5825840000000  0.5283040000000  0.5089320000000 1.0
C      1  0.5288380000000  0.5110500000000  0.5836880000000 1.0
C      1  0.4897310000000  0.4159720000000  0.5297300000000 1.0
C      1  0.5099990000000  0.4173940000000  0.4713720000000 1.0
C      1  0.4906840000000  0.5823880000000  0.4717380000000 1.0
C      1  0.4183040000000  0.4713760000000  0.5108570000000 1.0
C      1  0.5839530000000  0.4700390000000  0.4900820000000 1.0
C      1  0.4155590000000  0.5287830000000  0.4901350000000 1.0
C      1  0.4707780000000  0.4911760000000  0.5818240000000 1.0
C      1  0.5302670000000  0.4910080000000  0.4168520000000 1.0
C      1  0.4722970000000  0.5107370000000  0.4188870000000 1.0
C      1  0.5839080000000  0.5104330000000  0.5292930000000 1.0
C      1  0.5286170000000  0.5813520000000  0.5103110000000 1.0
C      1  0.5089460000000  0.5293790000000  0.5816520000000 1.0
C      1  0.4169000000000  0.4898470000000  0.5306500000000 1.0
C      1  0.4175290000000  0.5088220000000  0.4718800000000 1.0
C      1  0.5825360000000  0.4895170000000  0.4712670000000 1.0
C      1  0.4717210000000  0.4170490000000  0.5094810000000 1.0
C      1  0.4708810000000  0.5843340000000  0.4901630000000 1.0
C      1  0.5296510000000  0.4159490000000  0.4900080000000 1.0
C      1  0.4891260000000  0.4713020000000  0.5838700000000 1.0
C      1  0.4907330000000  0.5305560000000  0.4172390000000 1.0
C      1  0.5104450000000  0.4725720000000  0.4185180000000 1.0
C      1  0.5344360000000  0.4654360000000  0.4936770000000 1.0
C      1  0.4649940000000  0.5348660000000  0.4933080000000 1.0
C      1  0.5339230000000  0.4932830000000  0.4662880000000 1.0
C      1  0.4933450000000  0.4654850000000  0.5345670000000 1.0
C      1  0.4667230000000  0.4656860000000  0.5059520000000 1.0
C      1  0.5338820000000  0.5328640000000  0.5054110000000 1.0
C      1  0.4662320000000  0.5057990000000  0.4672160000000 1.0
C      1  0.4663680000000  0.4937020000000  0.5331140000000 1.0
C      1  0.5062140000000  0.5335740000000  0.5329230000000 1.0
C      1  0.4935410000000  0.5336770000000  0.4666850000000 1.0
C      1  0.5060320000000  0.4659990000000  0.4668270000000 1.0
C      1  0.5344490000000  0.5066230000000  0.5343710000000 1.0
END
