TITL C-8699-7882-304 0.000443376001966249 125000 -358.961296565674 0 0 60 (C1) n - 1
REM
REM in /home/bkarasulu/CARBON/AIRSS/Generating-Clusters/EDIP-Nigel-Params/Higher-Symm/Box-15A/Only-C60/SD-CG/HFTN-CG
REM
REM
REM
REM
REM
REM ./C.cell (414f73aa93bd7a1190c7fd0f31ff2f98)
REM
REM compiler GCC version 9.2.1 20190827 (Red Hat 9.2.1-1)
REM options -cpp -mtune=generic -march=x86-64 -g -O0 -fpre-include=/usr/include/finclude/math-vector-fortran.h
REM seed -388221542 -1999411067 -1107615308 968555252 2005106734 2019117704 979327348 -296862664 -1285611690 1322956539 1816825313 246301389 838779296 1595276165 1821279064 -2109498826 472870935 247179352 984124649 -816812632 1051609556 -286560137 238162110 -463849132 1717794523 254266141 -62817025 -676675282 183020114 -1934349138 -353236172 250402752 1801294036
REM
CELL 1.54180   50.00000   50.00000   50.00000   90.00000   90.00000   90.00000
LATT -1
SFAC C  
C      1  0.4744890000000  0.5132130000000  0.4480320000000 1.0
C      1  0.5145560000000  0.5718690000000  0.4923570000000 1.0
C      1  0.5591190000000  0.5548660000000  0.4736640000000 1.0
C      1  0.4962910000000  0.4996240000000  0.5703950000000 1.0
C      1  0.4646780000000  0.5688710000000  0.4812910000000 1.0
C      1  0.4670460000000  0.4396000000000  0.5026110000000 1.0
C      1  0.5382760000000  0.4415780000000  0.5507180000000 1.0
C      1  0.4589120000000  0.5549100000000  0.5261950000000 1.0
C      1  0.5568320000000  0.4377140000000  0.4884160000000 1.0
C      1  0.5184420000000  0.4755970000000  0.5260100000000 1.0
C      1  0.4673160000000  0.4240920000000  0.4784800000000 1.0
C      1  0.4844930000000  0.5120240000000  0.4752810000000 1.0
C      1  0.5270480000000  0.5205500000000  0.5390080000000 1.0
C      1  0.4871810000000  0.5438890000000  0.5296620000000 1.0
C      1  0.5275560000000  0.4257150000000  0.5291980000000 1.0
C      1  0.4560180000000  0.5347190000000  0.4455120000000 1.0
C      1  0.5532480000000  0.5479260000000  0.5457940000000 1.0
C      1  0.5112300000000  0.5012830000000  0.4834000000000 1.0
C      1  0.4982070000000  0.5138220000000  0.4297170000000 1.0
C      1  0.4850340000000  0.4670410000000  0.4211420000000 1.0
C      1  0.5532940000000  0.4917470000000  0.5594310000000 1.0
C      1  0.5568770000000  0.5171640000000  0.5445820000000 1.0
C      1  0.5569520000000  0.4587440000000  0.4701820000000 1.0
C      1  0.5195910000000  0.5274810000000  0.4428910000000 1.0
C      1  0.4712160000000  0.4704030000000  0.5340390000000 1.0
C      1  0.4701440000000  0.4309630000000  0.4523960000000 1.0
C      1  0.5282680000000  0.5633450000000  0.5409040000000 1.0
C      1  0.5735700000000  0.5081450000000  0.4848810000000 1.0
C      1  0.5057840000000  0.4862430000000  0.4204520000000 1.0
C      1  0.4396550000000  0.5323460000000  0.5201040000000 1.0
C      1  0.5306420000000  0.5166460000000  0.4663750000000 1.0
C      1  0.5125080000000  0.5562600000000  0.5169030000000 1.0
C      1  0.5446920000000  0.4234710000000  0.5074540000000 1.0
C      1  0.4714980000000  0.4983660000000  0.5432940000000 1.0
C      1  0.4917180000000  0.5732870000000  0.4765170000000 1.0
C      1  0.5548250000000  0.5274830000000  0.4777450000000 1.0
C      1  0.4289780000000  0.4797420000000  0.5243440000000 1.0
C      1  0.5189130000000  0.4809480000000  0.5733670000000 1.0
C      1  0.4274520000000  0.5040010000000  0.4830960000000 1.0
C      1  0.4462060000000  0.4562650000000  0.5308810000000 1.0
C      1  0.4533710000000  0.5435600000000  0.4724120000000 1.0
C      1  0.5128740000000  0.5033800000000  0.5161220000000 1.0
C      1  0.4994270000000  0.4306640000000  0.5218390000000 1.0
C      1  0.4859980000000  0.5142610000000  0.5230270000000 1.0
C      1  0.4727900000000  0.4575580000000  0.4443430000000 1.0
C      1  0.4416510000000  0.5057780000000  0.5373490000000 1.0
C      1  0.5700810000000  0.4823100000000  0.4780410000000 1.0
C      1  0.5297500000000  0.4772960000000  0.4323080000000 1.0
C      1  0.5114000000000  0.5238600000000  0.5649130000000 1.0
C      1  0.4344580000000  0.4797500000000  0.4950470000000 1.0
C      1  0.4789230000000  0.4749490000000  0.4676110000000 1.0
C      1  0.5341600000000  0.4706100000000  0.5504370000000 1.0
C      1  0.4567090000000  0.5754600000000  0.5072320000000 1.0
C      1  0.4961810000000  0.4574690000000  0.5306060000000 1.0
C      1  0.4352240000000  0.5295030000000  0.4906470000000 1.0
C      1  0.5093220000000  0.4715110000000  0.4761750000000 1.0
C      1  0.5303840000000  0.4623040000000  0.4565790000000 1.0
C      1  0.4975870000000  0.5481280000000  0.5576230000000 1.0
C      1  0.5395630000000  0.5723840000000  0.4801110000000 1.0
C      1  0.4613880000000  0.4673130000000  0.4908570000000 1.0
END
