TITL C-8695-8180-210 -1.24848872392545e-06 125000 -351.156744486374 0 0 60 (C1) n - 1
REM
REM in /home/bkarasulu/CARBON/AIRSS/Generating-Clusters/EDIP-Nigel-Params/Higher-Symm/Box-15A/Only-C60/SD-CG/HFTN-CG
REM
REM
REM
REM
REM
REM ./C.cell (414f73aa93bd7a1190c7fd0f31ff2f98)
REM
REM compiler GCC version 9.2.1 20190827 (Red Hat 9.2.1-1)
REM options -cpp -mtune=generic -march=x86-64 -g -O0 -fpre-include=/usr/include/finclude/math-vector-fortran.h
REM seed -1821645123 1992308733 475363382 -151791357 2056659747 -345880616 1749638981 -2089478088 919964429 882950813 2083435899 1028120861 1285933751 -1938399873 731511299 -802453160 -1761362187 25548489 -844108393 -761227716 1998224859 532592520 -1139160464 212289535 1444508401 -1460080900 -1301033176 -1886009046 -43934136 -1537020074 -1429059025 -1294049242 -1146044307
REM
CELL 1.54180   50.00000   50.00000   50.00000   90.00000   90.00000   90.00000
LATT -1
SFAC C  
C      1  0.4562380000000  0.5031510000000  0.4779650000000 1.0
C      1  0.4809600000000  0.4546840000000  0.5054420000000 1.0
C      1  0.5235230000000  0.4668270000000  0.4487780000000 1.0
C      1  0.4687900000000  0.4998050000000  0.5201800000000 1.0
C      1  0.5380830000000  0.4713650000000  0.4743490000000 1.0
C      1  0.5302380000000  0.5277470000000  0.5303640000000 1.0
C      1  0.4735010000000  0.5469900000000  0.4814950000000 1.0
C      1  0.5159220000000  0.5478030000000  0.5086200000000 1.0
C      1  0.5266780000000  0.4502250000000  0.4932240000000 1.0
C      1  0.5159180000000  0.5298540000000  0.5570190000000 1.0
C      1  0.4784520000000  0.5213000000000  0.4665970000000 1.0
C      1  0.4857880000000  0.4755350000000  0.5277020000000 1.0
C      1  0.5338840000000  0.5014040000000  0.4801480000000 1.0
C      1  0.5283910000000  0.4506340000000  0.5225060000000 1.0
C      1  0.4948920000000  0.4710850000000  0.4527350000000 1.0
C      1  0.5343180000000  0.4979340000000  0.5239730000000 1.0
C      1  0.4514550000000  0.4747250000000  0.4715690000000 1.0
C      1  0.4721270000000  0.5281520000000  0.5304340000000 1.0
C      1  0.5237960000000  0.5447450000000  0.4794380000000 1.0
C      1  0.4847120000000  0.5486740000000  0.5098600000000 1.0
C      1  0.4761600000000  0.4576820000000  0.4736980000000 1.0
C      1  0.4868290000000  0.5270260000000  0.5567300000000 1.0
C      1  0.5143360000000  0.5197130000000  0.4659150000000 1.0
C      1  0.5176930000000  0.4757550000000  0.5349290000000 1.0
C      1  0.4415270000000  0.4913520000000  0.5228340000000 1.0
C      1  0.5179200000000  0.4262300000000  0.4814320000000 1.0
C      1  0.4719410000000  0.5243200000000  0.4387010000000 1.0
C      1  0.4344060000000  0.5174720000000  0.4892780000000 1.0
C      1  0.5577290000000  0.5380830000000  0.5313040000000 1.0
C      1  0.5672630000000  0.4674370000000  0.4738430000000 1.0
C      1  0.5242780000000  0.5744610000000  0.5165970000000 1.0
C      1  0.4768240000000  0.5700850000000  0.4661700000000 1.0
C      1  0.4794280000000  0.4285710000000  0.5157650000000 1.0
C      1  0.4738820000000  0.4666480000000  0.5526870000000 1.0
C      1  0.5339890000000  0.4801670000000  0.4266180000000 1.0
C      1  0.5290360000000  0.5211650000000  0.5802600000000 1.0
C      1  0.5608600000000  0.4886370000000  0.5187310000000 1.0
C      1  0.4718220000000  0.4302890000000  0.4641630000000 1.0
C      1  0.5225170000000  0.5211960000000  0.4383320000000 1.0
C      1  0.5575240000000  0.5166940000000  0.4857390000000 1.0
C      1  0.4448940000000  0.5379830000000  0.5342620000000 1.0
C      1  0.4279300000000  0.4642470000000  0.4829250000000 1.0
C      1  0.4783280000000  0.5751210000000  0.5199730000000 1.0
C      1  0.5208360000000  0.5679140000000  0.4640460000000 1.0
C      1  0.5192220000000  0.4269740000000  0.5343990000000 1.0
C      1  0.5218430000000  0.4749530000000  0.5634140000000 1.0
C      1  0.4821140000000  0.4817850000000  0.4303670000000 1.0
C      1  0.4755580000000  0.5098990000000  0.5757650000000 1.0
C      1  0.4956220000000  0.4137910000000  0.5318740000000 1.0
C      1  0.4990540000000  0.5820430000000  0.4564840000000 1.0
C      1  0.4699510000000  0.4836300000000  0.5734270000000 1.0
C      1  0.5750650000000  0.4767940000000  0.4984800000000 1.0
C      1  0.4306740000000  0.5328260000000  0.5115850000000 1.0
C      1  0.5340230000000  0.5060760000000  0.4190910000000 1.0
C      1  0.5018330000000  0.5878100000000  0.5228950000000 1.0
C      1  0.5285520000000  0.4943100000000  0.5808470000000 1.0
C      1  0.4953410000000  0.4175700000000  0.4693330000000 1.0
C      1  0.4719180000000  0.5045970000000  0.4202750000000 1.0
C      1  0.5678520000000  0.5309690000000  0.5068000000000 1.0
C      1  0.4257590000000  0.4750830000000  0.5076320000000 1.0
END
