TITL C-8693-7204-366 0.000163994156983918 125000 -364.492357342334 0 0 60 (C1) n - 1
REM
REM in /home/bkarasulu/CARBON/AIRSS/Generating-Clusters/EDIP-Nigel-Params/Higher-Symm/Box-15A/Only-C60/SD-CG/HFTN-CG
REM
REM
REM
REM
REM
REM ./C.cell (414f73aa93bd7a1190c7fd0f31ff2f98)
REM
REM compiler GCC version 9.2.1 20190827 (Red Hat 9.2.1-1)
REM options -cpp -mtune=generic -march=x86-64 -g -O0 -fpre-include=/usr/include/finclude/math-vector-fortran.h
REM seed 1384512143 1043447444 -338246963 -708659776 -1066529039 -928278975 407490543 878336748 1966352926 -348168971 913006869 1219058109 391902690 -1420871746 1775039166 -863215937 -686399393 554895290 240902357 -91410848 -1559868038 1167697422 -228967460 -1099699720 967789318 -1088332421 -290081432 -1195376910 1246943977 59622990 -1042189605 -1790473686 1891054919
REM
CELL 1.54180   50.00000   50.00000   50.00000   90.00000   90.00000   90.00000
LATT -1
SFAC C  
C      1  0.4766300000000  0.5150500000000  0.4408380000000 1.0
C      1  0.5260180000000  0.5121450000000  0.4390510000000 1.0
C      1  0.4980150000000  0.4725060000000  0.4392760000000 1.0
C      1  0.5367880000000  0.5037280000000  0.5553140000000 1.0
C      1  0.4808090000000  0.4650640000000  0.5547600000000 1.0
C      1  0.4816790000000  0.5276790000000  0.5569220000000 1.0
C      1  0.4830240000000  0.4229650000000  0.4993190000000 1.0
C      1  0.4414200000000  0.5514840000000  0.5049160000000 1.0
C      1  0.5776860000000  0.5257280000000  0.5021480000000 1.0
C      1  0.5794020000000  0.5280860000000  0.5307780000000 1.0
C      1  0.4841040000000  0.4191820000000  0.5278050000000 1.0
C      1  0.4388700000000  0.5511590000000  0.5334100000000 1.0
C      1  0.5408030000000  0.5550310000000  0.5196340000000 1.0
C      1  0.5266830000000  0.4390810000000  0.5166170000000 1.0
C      1  0.4329100000000  0.5055020000000  0.5195980000000 1.0
C      1  0.4966370000000  0.5651240000000  0.4558090000000 1.0
C      1  0.5577480000000  0.4704230000000  0.4544610000000 1.0
C      1  0.4448780000000  0.4654960000000  0.4497210000000 1.0
C      1  0.4604970000000  0.4370700000000  0.4883120000000 1.0
C      1  0.4640510000000  0.5651210000000  0.4941300000000 1.0
C      1  0.5758450000000  0.4988990000000  0.4921670000000 1.0
C      1  0.5602740000000  0.5473740000000  0.5398690000000 1.0
C      1  0.5108010000000  0.4251640000000  0.5366300000000 1.0
C      1  0.4310540000000  0.5248440000000  0.5411140000000 1.0
C      1  0.4698570000000  0.4692880000000  0.5064280000000 1.0
C      1  0.4895730000000  0.5398850000000  0.5080750000000 1.0
C      1  0.5410970000000  0.4899230000000  0.5063790000000 1.0
C      1  0.4732510000000  0.5539950000000  0.4695580000000 1.0
C      1  0.5617500000000  0.4962410000000  0.4676980000000 1.0
C      1  0.4639220000000  0.4453050000000  0.4606940000000 1.0
C      1  0.4887580000000  0.4558820000000  0.5282940000000 1.0
C      1  0.4681480000000  0.5277330000000  0.5306530000000 1.0
C      1  0.5451740000000  0.5132450000000  0.5289320000000 1.0
C      1  0.4578610000000  0.5321700000000  0.4549780000000 1.0
C      1  0.5498780000000  0.5202050000000  0.4537670000000 1.0
C      1  0.4929820000000  0.4454960000000  0.4488790000000 1.0
C      1  0.5038260000000  0.4708940000000  0.5693360000000 1.0
C      1  0.4682550000000  0.5284400000000  0.5798130000000 1.0
C      1  0.5266260000000  0.5242190000000  0.5718750000000 1.0
C      1  0.4759190000000  0.4871840000000  0.4528100000000 1.0
C      1  0.5024270000000  0.5273860000000  0.4500980000000 1.0
C      1  0.5220760000000  0.4853160000000  0.4521420000000 1.0
C      1  0.5305950000000  0.4676600000000  0.5250890000000 1.0
C      1  0.4540730000000  0.4863480000000  0.5263820000000 1.0
C      1  0.5139730000000  0.5436290000000  0.5267890000000 1.0
C      1  0.5160310000000  0.4928410000000  0.4832880000000 1.0
C      1  0.4836300000000  0.4878540000000  0.4839160000000 1.0
C      1  0.5016160000000  0.5223560000000  0.4824420000000 1.0
C      1  0.5082930000000  0.4363430000000  0.4934490000000 1.0
C      1  0.4395370000000  0.5232150000000  0.4972770000000 1.0
C      1  0.5536250000000  0.5419690000000  0.4961770000000 1.0
C      1  0.5166110000000  0.4380570000000  0.4660380000000 1.0
C      1  0.4392200000000  0.5147030000000  0.4698960000000 1.0
C      1  0.5436120000000  0.5444440000000  0.4693840000000 1.0
C      1  0.5082670000000  0.5377220000000  0.5551480000000 1.0
C      1  0.5261220000000  0.4769580000000  0.5531130000000 1.0
C      1  0.4573050000000  0.4801210000000  0.5537500000000 1.0
C      1  0.4336890000000  0.4879830000000  0.4621410000000 1.0
C      1  0.5234780000000  0.5630150000000  0.4626120000000 1.0
C      1  0.5423150000000  0.4480680000000  0.4601020000000 1.0
END
