TITL C-8691-6797-8 -2.21723504097806e-06 125000 -357.715676288779 0 0 60 (C1) n - 1
REM
REM in /home/bkarasulu/CARBON/AIRSS/Generating-Clusters/EDIP-Nigel-Params/Higher-Symm/Box-15A/Only-C60/SD-CG/HFTN-CG
REM
REM
REM
REM
REM
REM ./C.cell (414f73aa93bd7a1190c7fd0f31ff2f98)
REM
REM compiler GCC version 9.2.1 20190827 (Red Hat 9.2.1-1)
REM options -cpp -mtune=generic -march=x86-64 -g -O0 -fpre-include=/usr/include/finclude/math-vector-fortran.h
REM seed -2144068052 -676487481 -108130183 1966112396 516629078 -1455890703 1499301525 1183859124 -2072693245 620457984 -1863418412 1350443317 -1858094336 1124316774 -1613477826 -436888639 471624744 -351839179 -661645895 -982441411 97513983 300951792 -1290839936 -1980866314 -1800186547 1781174325 92466410 -349773900 -784275847 -192257914 1580218842 -1418511973 1053283661
REM
CELL 1.54180   50.00000   50.00000   50.00000   90.00000   90.00000   90.00000
LATT -1
SFAC C  
C      1  0.4648000000000  0.5035560000000  0.4321810000000 1.0
C      1  0.5344820000000  0.4939160000000  0.5676800000000 1.0
C      1  0.4779670000000  0.5348780000000  0.5507530000000 1.0
C      1  0.5223120000000  0.4654800000000  0.4481960000000 1.0
C      1  0.5126760000000  0.4817260000000  0.4249610000000 1.0
C      1  0.4865650000000  0.5168080000000  0.5729630000000 1.0
C      1  0.4678100000000  0.4814780000000  0.4737810000000 1.0
C      1  0.5342570000000  0.5187040000000  0.5279910000000 1.0
C      1  0.4435890000000  0.4740930000000  0.4919000000000 1.0
C      1  0.5584430000000  0.5248160000000  0.5101190000000 1.0
C      1  0.5464310000000  0.4520450000000  0.4942110000000 1.0
C      1  0.4522660000000  0.5482500000000  0.5039330000000 1.0
C      1  0.4881100000000  0.4461740000000  0.4914890000000 1.0
C      1  0.5073060000000  0.5543330000000  0.5092590000000 1.0
C      1  0.5091520000000  0.5389110000000  0.5500920000000 1.0
C      1  0.4914730000000  0.4612700000000  0.4507760000000 1.0
C      1  0.5047460000000  0.4305690000000  0.5112030000000 1.0
C      1  0.4933360000000  0.5698920000000  0.4869580000000 1.0
C      1  0.4616810000000  0.5258360000000  0.5240510000000 1.0
C      1  0.5389690000000  0.4751550000000  0.4740670000000 1.0
C      1  0.5178670000000  0.4971610000000  0.4801900000000 1.0
C      1  0.4843280000000  0.5041090000000  0.5172130000000 1.0
C      1  0.5450460000000  0.5176940000000  0.4422700000000 1.0
C      1  0.4567120000000  0.4859480000000  0.5612500000000 1.0
C      1  0.4966640000000  0.4627330000000  0.5443780000000 1.0
C      1  0.5025440000000  0.5372640000000  0.4552870000000 1.0
C      1  0.4788390000000  0.5299370000000  0.4693850000000 1.0
C      1  0.5195560000000  0.4705720000000  0.5289820000000 1.0
C      1  0.4221150000000  0.4643320000000  0.5346720000000 1.0
C      1  0.5798290000000  0.5365530000000  0.4684100000000 1.0
C      1  0.5289260000000  0.4462690000000  0.5171440000000 1.0
C      1  0.4692070000000  0.5542690000000  0.4807270000000 1.0
C      1  0.5671720000000  0.4821380000000  0.5292050000000 1.0
C      1  0.4323050000000  0.5154940000000  0.4707300000000 1.0
C      1  0.4598280000000  0.4377730000000  0.5239680000000 1.0
C      1  0.5394100000000  0.5599710000000  0.4791000000000 1.0
C      1  0.4786140000000  0.4852710000000  0.5428700000000 1.0
C      1  0.5197280000000  0.5139780000000  0.4543380000000 1.0
C      1  0.4342450000000  0.4879890000000  0.5444900000000 1.0
C      1  0.5687820000000  0.5134530000000  0.4564260000000 1.0
C      1  0.5142060000000  0.5627530000000  0.4665470000000 1.0
C      1  0.4861360000000  0.4360610000000  0.5342540000000 1.0
C      1  0.5105440000000  0.5216810000000  0.5097270000000 1.0
C      1  0.4912810000000  0.4849280000000  0.4924920000000 1.0
C      1  0.5661950000000  0.4909180000000  0.4751850000000 1.0
C      1  0.4357440000000  0.5092400000000  0.5245360000000 1.0
C      1  0.5750000000000  0.5002260000000  0.5042320000000 1.0
C      1  0.4262060000000  0.4983820000000  0.4966430000000 1.0
C      1  0.4848600000000  0.4334500000000  0.4552730000000 1.0
C      1  0.5154710000000  0.5667860000000  0.5450290000000 1.0
C      1  0.5287610000000  0.5708940000000  0.5212530000000 1.0
C      1  0.4691190000000  0.4288410000000  0.4774110000000 1.0
C      1  0.4605410000000  0.5083910000000  0.4603950000000 1.0
C      1  0.5390130000000  0.4904390000000  0.5393210000000 1.0
C      1  0.5118640000000  0.5053220000000  0.5776110000000 1.0
C      1  0.4872040000000  0.4929380000000  0.4210580000000 1.0
C      1  0.5606910000000  0.5439520000000  0.4877680000000 1.0
C      1  0.4400470000000  0.4553820000000  0.5148540000000 1.0
C      1  0.4292030000000  0.5369320000000  0.4904590000000 1.0
C      1  0.5698250000000  0.4616880000000  0.5083540000000 1.0
END
