TITL C-8691-6797-107 -3.21443077284743e-05 125000 -356.853132725597 0 0 60 (C1) n - 1
REM
REM in /home/bkarasulu/CARBON/AIRSS/Generating-Clusters/EDIP-Nigel-Params/Higher-Symm/Box-15A/Only-C60/SD-CG/HFTN-CG
REM
REM
REM
REM
REM
REM ./C.cell (414f73aa93bd7a1190c7fd0f31ff2f98)
REM
REM compiler GCC version 9.2.1 20190827 (Red Hat 9.2.1-1)
REM options -cpp -mtune=generic -march=x86-64 -g -O0 -fpre-include=/usr/include/finclude/math-vector-fortran.h
REM seed -234916658 -1469948737 1027750297 103681648 -1850921785 1101049888 -1067129076 -544864879 582313311 1105637141 -306018396 -1961738541 763183116 170351896 1826286916 2029042947 -399859987 56095703 -625706008 830936945 1016061357 1456317420 867605154 -1320719716 736696500 901475305 -1008724519 -1668179047 425617451 -1345460211 -1470827708 -1161361887 1223790371
REM
CELL 1.54180   50.00000   50.00000   50.00000   90.00000   90.00000   90.00000
LATT -1
SFAC C  
C      1  0.4718660000000  0.4979570000000  0.4510520000000 1.0
C      1  0.4721420000000  0.4561100000000  0.5290890000000 1.0
C      1  0.4744290000000  0.5474960000000  0.5196520000000 1.0
C      1  0.5350550000000  0.4777180000000  0.5274340000000 1.0
C      1  0.5363570000000  0.5349620000000  0.5143600000000 1.0
C      1  0.5377600000000  0.5040790000000  0.4630870000000 1.0
C      1  0.4675600000000  0.5143260000000  0.5764680000000 1.0
C      1  0.4784640000000  0.5534010000000  0.4436920000000 1.0
C      1  0.4715400000000  0.4239040000000  0.4753320000000 1.0
C      1  0.5354230000000  0.4489560000000  0.5206260000000 1.0
C      1  0.5245490000000  0.5513550000000  0.5389680000000 1.0
C      1  0.5323440000000  0.5108800000000  0.4333620000000 1.0
C      1  0.5261660000000  0.5665720000000  0.4812670000000 1.0
C      1  0.5182030000000  0.4325720000000  0.4478120000000 1.0
C      1  0.5258090000000  0.4853000000000  0.5747810000000 1.0
C      1  0.4598930000000  0.4499370000000  0.4790400000000 1.0
C      1  0.4575350000000  0.5005890000000  0.5542040000000 1.0
C      1  0.4632330000000  0.5453770000000  0.4657020000000 1.0
C      1  0.4321620000000  0.4767330000000  0.5108190000000 1.0
C      1  0.4346740000000  0.5040840000000  0.5097080000000 1.0
C      1  0.4350130000000  0.5129320000000  0.4838150000000 1.0
C      1  0.4496310000000  0.4553560000000  0.5075580000000 1.0
C      1  0.4529870000000  0.5165340000000  0.5290560000000 1.0
C      1  0.4512880000000  0.5189190000000  0.4623390000000 1.0
C      1  0.4697070000000  0.5592560000000  0.4914220000000 1.0
C      1  0.4629140000000  0.4678490000000  0.4534440000000 1.0
C      1  0.4675890000000  0.4725110000000  0.5544660000000 1.0
C      1  0.4913540000000  0.4969730000000  0.4725900000000 1.0
C      1  0.4878890000000  0.4766770000000  0.5152630000000 1.0
C      1  0.4895150000000  0.5207470000000  0.5163880000000 1.0
C      1  0.5472320000000  0.4884070000000  0.5522990000000 1.0
C      1  0.5496660000000  0.5508810000000  0.4926960000000 1.0
C      1  0.5299910000000  0.4581270000000  0.4384550000000 1.0
C      1  0.5118990000000  0.5284220000000  0.4989540000000 1.0
C      1  0.5031520000000  0.4705420000000  0.4703670000000 1.0
C      1  0.5064530000000  0.4852290000000  0.5366030000000 1.0
C      1  0.5109460000000  0.5181670000000  0.4716360000000 1.0
C      1  0.5003360000000  0.4566590000000  0.4961550000000 1.0
C      1  0.5063730000000  0.5157220000000  0.5412460000000 1.0
C      1  0.5333580000000  0.4723900000000  0.4654190000000 1.0
C      1  0.5481820000000  0.5172090000000  0.5470140000000 1.0
C      1  0.5594450000000  0.5343430000000  0.4705120000000 1.0
C      1  0.5177020000000  0.5142910000000  0.5836780000000 1.0
C      1  0.5251400000000  0.5600260000000  0.4514400000000 1.0
C      1  0.5220510000000  0.4244070000000  0.4757820000000 1.0
C      1  0.4862480000000  0.4533430000000  0.4398910000000 1.0
C      1  0.4903880000000  0.4693360000000  0.5724080000000 1.0
C      1  0.4900470000000  0.5791910000000  0.4870500000000 1.0
C      1  0.4984020000000  0.5653560000000  0.5310180000000 1.0
C      1  0.5036330000000  0.5004230000000  0.4301400000000 1.0
C      1  0.5084540000000  0.4430370000000  0.5347810000000 1.0
C      1  0.5034720000000  0.5406910000000  0.4480640000000 1.0
C      1  0.4952760000000  0.4260200000000  0.4903510000000 1.0
C      1  0.4930670000000  0.5230640000000  0.5685460000000 1.0
C      1  0.5059490000000  0.4714580000000  0.4253250000000 1.0
C      1  0.5105100000000  0.4517710000000  0.5631200000000 1.0
C      1  0.5061960000000  0.5831190000000  0.5095690000000 1.0
C      1  0.5475410000000  0.5420870000000  0.4444550000000 1.0
C      1  0.5393580000000  0.4442700000000  0.4909970000000 1.0
C      1  0.5364800000000  0.5319510000000  0.5692360000000 1.0
END
