TITL C-8699-7882-154 2.02930726057429e-06 125000 -369.564477728726 0 0 60 (C1) n - 1
REM
REM in /home/bkarasulu/CARBON/AIRSS/Generating-Clusters/EDIP-Nigel-Params/Higher-Symm/Box-15A/Only-C60/SD-CG/HFTN-CG
REM
REM
REM
REM
REM
REM ./C.cell (414f73aa93bd7a1190c7fd0f31ff2f98)
REM
REM compiler GCC version 9.2.1 20190827 (Red Hat 9.2.1-1)
REM options -cpp -mtune=generic -march=x86-64 -g -O0 -fpre-include=/usr/include/finclude/math-vector-fortran.h
REM seed 115850691 -1910691143 858318087 -1287655499 -378583318 -1678855223 -898752447 -1497562229 -53448109 1497388866 1993909227 1288332154 -2104880790 -591128460 573846170 3129225 203266491 1025151826 287796108 -1531515234 -828032262 1470068164 1145455656 276754611 697802639 -1377167152 -652684407 963577873 139882949 -984942312 -435476042 -1382930296 844572581
REM
CELL 1.54180   50.00000   50.00000   50.00000   90.00000   90.00000   90.00000
LATT -1
SFAC C  
C      1  0.4904420000000  0.4689660000000  0.5106720000000 1.0
C      1  0.5097860000000  0.5301560000000  0.5132170000000 1.0
C      1  0.4918950000000  0.5319970000000  0.4894860000000 1.0
C      1  0.5096830000000  0.4721790000000  0.4882600000000 1.0
C      1  0.4692350000000  0.4903850000000  0.5105730000000 1.0
C      1  0.5299400000000  0.5097170000000  0.5131240000000 1.0
C      1  0.5317350000000  0.4916400000000  0.4894820000000 1.0
C      1  0.4727450000000  0.5096440000000  0.4881450000000 1.0
C      1  0.4932830000000  0.5311920000000  0.5380820000000 1.0
C      1  0.5050380000000  0.4676270000000  0.5371130000000 1.0
C      1  0.4947350000000  0.4695610000000  0.4625620000000 1.0
C      1  0.5070090000000  0.5330610000000  0.4631780000000 1.0
C      1  0.5311870000000  0.4932590000000  0.5380090000000 1.0
C      1  0.4677450000000  0.5049770000000  0.5370270000000 1.0
C      1  0.4701040000000  0.4949120000000  0.4623880000000 1.0
C      1  0.5326180000000  0.5061830000000  0.4629340000000 1.0
C      1  0.5633630000000  0.5231260000000  0.4973620000000 1.0
C      1  0.4421780000000  0.4783230000000  0.5007500000000 1.0
C      1  0.5584720000000  0.4780140000000  0.4983940000000 1.0
C      1  0.4381680000000  0.5228970000000  0.5017120000000 1.0
C      1  0.5227680000000  0.5638690000000  0.4978230000000 1.0
C      1  0.4782890000000  0.4418730000000  0.5010300000000 1.0
C      1  0.4779490000000  0.5586380000000  0.4986690000000 1.0
C      1  0.5229360000000  0.4376760000000  0.5018850000000 1.0
C      1  0.4503180000000  0.4711660000000  0.4715750000000 1.0
C      1  0.5509190000000  0.5303530000000  0.4701860000000 1.0
C      1  0.4497330000000  0.5295570000000  0.5292080000000 1.0
C      1  0.5513410000000  0.4702400000000  0.5277550000000 1.0
C      1  0.4711520000000  0.4496930000000  0.4717950000000 1.0
C      1  0.5303210000000  0.5524250000000  0.4704110000000 1.0
C      1  0.5296740000000  0.4497000000000  0.5292240000000 1.0
C      1  0.4702240000000  0.5512770000000  0.5279640000000 1.0
C      1  0.4843550000000  0.5389240000000  0.4429330000000 1.0
C      1  0.5172040000000  0.4621380000000  0.4430970000000 1.0
C      1  0.4824770000000  0.4612440000000  0.5570570000000 1.0
C      1  0.5161380000000  0.5376980000000  0.5577600000000 1.0
C      1  0.5390800000000  0.4830220000000  0.4433430000000 1.0
C      1  0.4631500000000  0.5175710000000  0.4428460000000 1.0
C      1  0.4612200000000  0.4824830000000  0.5569530000000 1.0
C      1  0.5377820000000  0.5160910000000  0.5576550000000 1.0
C      1  0.5399340000000  0.5608270000000  0.5227990000000 1.0
C      1  0.4568170000000  0.4362180000000  0.5215890000000 1.0
C      1  0.5415300000000  0.4365140000000  0.4775790000000 1.0
C      1  0.4566330000000  0.5631500000000  0.4777890000000 1.0
C      1  0.5604920000000  0.5400560000000  0.5225660000000 1.0
C      1  0.4362250000000  0.4569440000000  0.5213820000000 1.0
C      1  0.4359830000000  0.5423460000000  0.4782900000000 1.0
C      1  0.5627220000000  0.4569940000000  0.4772500000000 1.0
C      1  0.4394080000000  0.5304580000000  0.4524730000000 1.0
C      1  0.5626970000000  0.4694080000000  0.4516490000000 1.0
C      1  0.4382550000000  0.4680310000000  0.5476960000000 1.0
C      1  0.5620170000000  0.5276200000000  0.5480530000000 1.0
C      1  0.5285190000000  0.4376480000000  0.4522500000000 1.0
C      1  0.4684820000000  0.5609890000000  0.4518680000000 1.0
C      1  0.4678760000000  0.4383300000000  0.5479150000000 1.0
C      1  0.5276400000000  0.5620260000000  0.5483680000000 1.0
C      1  0.4218270000000  0.4992410000000  0.5009750000000 1.0
C      1  0.4991470000000  0.4214830000000  0.5014650000000 1.0
C      1  0.5790210000000  0.4987530000000  0.4979390000000 1.0
C      1  0.4983850000000  0.5795080000000  0.4984700000000 1.0
END
