TITL C-8697-8172-255 3.65242620245987e-07 125000 -375.452779771169 0 0 60 (S10) n - 1
REM
REM in /home/bkarasulu/CARBON/AIRSS/Generating-Clusters/EDIP-Nigel-Params/Higher-Symm/Box-15A/Only-C60/SD-CG/HFTN-CG
REM
REM
REM
REM
REM
REM ./C.cell (414f73aa93bd7a1190c7fd0f31ff2f98)
REM
REM compiler GCC version 9.2.1 20190827 (Red Hat 9.2.1-1)
REM options -cpp -mtune=generic -march=x86-64 -g -O0 -fpre-include=/usr/include/finclude/math-vector-fortran.h
REM seed -2079271587 -1654471476 -529721956 -976029798 -681645561 -736154797 6737715 2142732406 -1611559829 1426343366 1076770880 -510166603 1510847749 1927714659 1045975561 -1336043948 -63332864 -1396122196 523240578 1298922074 -876983615 -2119530861 104291465 -735178097 787717482 -1338930798 -1134486977 -102867484 -1840389286 672644319 373085549 -620647860 -194121895
REM
CELL 1.54180   50.00000   50.00000   50.00000   90.00000   90.00000   90.00000
LATT -1
SFAC C  
C      1  0.4483160000000  0.4533540000000  0.4877500000000 1.0
C      1  0.4397550000000  0.5346720000000  0.4871340000000 1.0
C      1  0.5144500000000  0.5679430000000  0.4868800000000 1.0
C      1  0.5691750000000  0.5071870000000  0.4873400000000 1.0
C      1  0.5283020000000  0.4363670000000  0.4878770000000 1.0
C      1  0.4483470000000  0.5466800000000  0.5122520000000 1.0
C      1  0.4397330000000  0.4653670000000  0.5128680000000 1.0
C      1  0.5144060000000  0.4320480000000  0.5131190000000 1.0
C      1  0.5691710000000  0.4927680000000  0.5126580000000 1.0
C      1  0.5283440000000  0.5636150000000  0.5121220000000 1.0
C      1  0.4577820000000  0.5342430000000  0.5611420000000 1.0
C      1  0.5190800000000  0.5510550000000  0.5610140000000 1.0
C      1  0.5540120000000  0.4979540000000  0.5614160000000 1.0
C      1  0.5143030000000  0.4483240000000  0.5617930000000 1.0
C      1  0.4548300000000  0.4707510000000  0.5616240000000 1.0
C      1  0.4577570000000  0.4657850000000  0.4388590000000 1.0
C      1  0.5190440000000  0.4489330000000  0.4389860000000 1.0
C      1  0.5540110000000  0.5020100000000  0.4385820000000 1.0
C      1  0.5143350000000  0.5516670000000  0.4382070000000 1.0
C      1  0.4548470000000  0.5292780000000  0.4383780000000 1.0
C      1  0.4482490000000  0.4538690000000  0.5386030000000 1.0
C      1  0.4398580000000  0.5351630000000  0.5379870000000 1.0
C      1  0.5145830000000  0.5682630000000  0.5377350000000 1.0
C      1  0.5691550000000  0.5074270000000  0.5381950000000 1.0
C      1  0.5281590000000  0.4367280000000  0.5387320000000 1.0
C      1  0.4482780000000  0.5461650000000  0.4613990000000 1.0
C      1  0.4398340000000  0.4648770000000  0.4620150000000 1.0
C      1  0.5145370000000  0.4317270000000  0.4622650000000 1.0
C      1  0.5691490000000  0.4925280000000  0.4618030000000 1.0
C      1  0.5281990000000  0.5632540000000  0.4612670000000 1.0
C      1  0.5517510000000  0.5461310000000  0.4613970000000 1.0
C      1  0.5601420000000  0.4648370000000  0.4620130000000 1.0
C      1  0.4854170000000  0.4317370000000  0.4622650000000 1.0
C      1  0.4308450000000  0.4925730000000  0.4618050000000 1.0
C      1  0.4718410000000  0.5632720000000  0.4612680000000 1.0
C      1  0.5517220000000  0.4538350000000  0.5386010000000 1.0
C      1  0.5601660000000  0.5351230000000  0.5379850000000 1.0
C      1  0.4854630000000  0.5682730000000  0.5377350000000 1.0
C      1  0.4308510000000  0.5074720000000  0.5381970000000 1.0
C      1  0.4718010000000  0.4367460000000  0.5387330000000 1.0
C      1  0.5516530000000  0.4533200000000  0.4877480000000 1.0
C      1  0.4716560000000  0.4363850000000  0.4878780000000 1.0
C      1  0.4308290000000  0.5072320000000  0.4873420000000 1.0
C      1  0.4855940000000  0.5679520000000  0.4868810000000 1.0
C      1  0.5602670000000  0.5346330000000  0.4871320000000 1.0
C      1  0.5516840000000  0.5466460000000  0.5122500000000 1.0
C      1  0.4716980000000  0.5636330000000  0.5121230000000 1.0
C      1  0.4308250000000  0.4928130000000  0.5126600000000 1.0
C      1  0.4855500000000  0.4320570000000  0.5131200000000 1.0
C      1  0.5602450000000  0.4653280000000  0.5128660000000 1.0
C      1  0.4809560000000  0.5510670000000  0.5610140000000 1.0
C      1  0.5422430000000  0.5342150000000  0.5611410000000 1.0
C      1  0.5451530000000  0.4707220000000  0.5616220000000 1.0
C      1  0.4856650000000  0.4483330000000  0.5617930000000 1.0
C      1  0.4459890000000  0.4979900000000  0.5614180000000 1.0
C      1  0.4809200000000  0.4489450000000  0.4389860000000 1.0
C      1  0.5422180000000  0.4657570000000  0.4388580000000 1.0
C      1  0.5451700000000  0.5292490000000  0.4383760000000 1.0
C      1  0.4856970000000  0.5516760000000  0.4382070000000 1.0
C      1  0.4459880000000  0.5020460000000  0.4385840000000 1.0
END
