TITL C-8694-7203-198 -3.92629198631995e-07 125000 -358.561850842118 0 0 60 (C1) n - 1
REM
REM in /home/bkarasulu/CARBON/AIRSS/Generating-Clusters/EDIP-Nigel-Params/Higher-Symm/Box-15A/Only-C60/SD-CG/HFTN-CG
REM
REM
REM
REM
REM
REM ./C.cell (414f73aa93bd7a1190c7fd0f31ff2f98)
REM
REM compiler GCC version 9.2.1 20190827 (Red Hat 9.2.1-1)
REM options -cpp -mtune=generic -march=x86-64 -g -O0 -fpre-include=/usr/include/finclude/math-vector-fortran.h
REM seed -947445776 -1415017758 259147505 1312430198 2047609956 -1264519274 1130670987 -1567575234 -2026097918 175004223 344769410 1227291605 -1341014003 1657970923 -296146611 268684740 -1979937516 43251552 1597851690 -547868635 1866917651 1918508316 -999818272 1017985362 -582206991 -1914402256 -116102402 699123655 24241802 -1940683910 -1324528915 881875209 388562673
REM
CELL 1.54180   50.00000   50.00000   50.00000   90.00000   90.00000   90.00000
LATT -1
SFAC C  
C      1  0.5155620000000  0.4744380000000  0.4387770000000 1.0
C      1  0.4764460000000  0.5010320000000  0.4287800000000 1.0
C      1  0.5225170000000  0.5229170000000  0.4351890000000 1.0
C      1  0.5167860000000  0.5280310000000  0.5699200000000 1.0
C      1  0.4716960000000  0.5055850000000  0.5716090000000 1.0
C      1  0.5097060000000  0.4788940000000  0.5582950000000 1.0
C      1  0.4894930000000  0.5261640000000  0.5587800000000 1.0
C      1  0.5291380000000  0.4995480000000  0.5684200000000 1.0
C      1  0.4815860000000  0.4784740000000  0.5657410000000 1.0
C      1  0.4878710000000  0.4718660000000  0.4277640000000 1.0
C      1  0.5337700000000  0.4963200000000  0.4288220000000 1.0
C      1  0.4943230000000  0.5209140000000  0.4418770000000 1.0
C      1  0.4781760000000  0.5227670000000  0.4831750000000 1.0
C      1  0.5283020000000  0.5002170000000  0.4725480000000 1.0
C      1  0.4785120000000  0.4761680000000  0.4835730000000 1.0
C      1  0.4841820000000  0.4750930000000  0.5137150000000 1.0
C      1  0.5294180000000  0.4997170000000  0.5246920000000 1.0
C      1  0.4832250000000  0.5235660000000  0.5146980000000 1.0
C      1  0.5152860000000  0.4752650000000  0.5131340000000 1.0
C      1  0.4729250000000  0.4990970000000  0.5278180000000 1.0
C      1  0.5145110000000  0.5239050000000  0.5147290000000 1.0
C      1  0.5150610000000  0.5245960000000  0.4838560000000 1.0
C      1  0.4597590000000  0.4987040000000  0.4753030000000 1.0
C      1  0.5164070000000  0.4750810000000  0.4829360000000 1.0
C      1  0.5264530000000  0.5528080000000  0.4795550000000 1.0
C      1  0.5329960000000  0.4494350000000  0.4783250000000 1.0
C      1  0.4334160000000  0.4973250000000  0.4902650000000 1.0
C      1  0.5274340000000  0.4484560000000  0.5227400000000 1.0
C      1  0.5289720000000  0.5488740000000  0.5247770000000 1.0
C      1  0.4433910000000  0.5012560000000  0.5322800000000 1.0
C      1  0.4731200000000  0.4472200000000  0.5200970000000 1.0
C      1  0.4678560000000  0.5499720000000  0.5198680000000 1.0
C      1  0.5604860000000  0.5018590000000  0.5155960000000 1.0
C      1  0.4697040000000  0.5514710000000  0.4747480000000 1.0
C      1  0.4664300000000  0.4496040000000  0.4755490000000 1.0
C      1  0.5582840000000  0.4986310000000  0.4721480000000 1.0
C      1  0.4837730000000  0.4443100000000  0.5484680000000 1.0
C      1  0.4654340000000  0.5440510000000  0.5506790000000 1.0
C      1  0.5535460000000  0.5113570000000  0.5528070000000 1.0
C      1  0.4883020000000  0.5490150000000  0.4490390000000 1.0
C      1  0.4617480000000  0.4624640000000  0.4448250000000 1.0
C      1  0.5584030000000  0.4827840000000  0.4450910000000 1.0
C      1  0.5169570000000  0.5573990000000  0.4513540000000 1.0
C      1  0.5389840000000  0.4569600000000  0.4485400000000 1.0
C      1  0.4537790000000  0.4924640000000  0.4464240000000 1.0
C      1  0.5126430000000  0.4506150000000  0.5500890000000 1.0
C      1  0.5397660000000  0.5395070000000  0.5524010000000 1.0
C      1  0.4461560000000  0.5184050000000  0.5577400000000 1.0
C      1  0.4315750000000  0.4740700000000  0.5075840000000 1.0
C      1  0.5106230000000  0.5700620000000  0.4982590000000 1.0
C      1  0.5557600000000  0.4541530000000  0.4969910000000 1.0
C      1  0.4306230000000  0.5195900000000  0.5096760000000 1.0
C      1  0.5158470000000  0.4292540000000  0.5010290000000 1.0
C      1  0.5504870000000  0.5501620000000  0.5015000000000 1.0
C      1  0.5652990000000  0.5257670000000  0.4983230000000 1.0
C      1  0.4873650000000  0.4293850000000  0.5004470000000 1.0
C      1  0.4438800000000  0.5442390000000  0.5032100000000 1.0
C      1  0.5678460000000  0.4798930000000  0.4954940000000 1.0
C      1  0.4820340000000  0.5689950000000  0.4981360000000 1.0
C      1  0.4459720000000  0.4498290000000  0.5017980000000 1.0
END
