TITL C-8697-8172-321 -1.13191117626353e-06 125000 -364.428554837243 0 0 60 (Ci) n - 1
REM
REM in /home/bkarasulu/CARBON/AIRSS/Generating-Clusters/EDIP-Nigel-Params/Higher-Symm/Box-15A/Only-C60/SD-CG/HFTN-CG
REM
REM
REM
REM
REM
REM ./C.cell (414f73aa93bd7a1190c7fd0f31ff2f98)
REM
REM compiler GCC version 9.2.1 20190827 (Red Hat 9.2.1-1)
REM options -cpp -mtune=generic -march=x86-64 -g -O0 -fpre-include=/usr/include/finclude/math-vector-fortran.h
REM seed 1025278553 1957701120 -1545779943 341263269 -853224333 -1695431942 1837658979 116768773 -1008849250 894803667 -1749123485 1023230351 -1084549852 -1280203558 -601764652 99207884 93428522 1500178727 1443609403 -1216226430 1950818772 828985395 1169458317 689892955 948456267 1166868757 399504026 -1546619607 1496867151 698621705 1009038462 1768777496 -669334302
REM
CELL 1.54180   50.00000   50.00000   50.00000   90.00000   90.00000   90.00000
LATT -1
SFAC C  
C      1  0.5513620000000  0.4594420000000  0.4774940000000 1.0
C      1  0.4922880000000  0.4343830000000  0.5231550000000 1.0
C      1  0.4403900000000  0.4768550000000  0.4761120000000 1.0
C      1  0.4486380000000  0.5405580000000  0.5225060000000 1.0
C      1  0.5077120000000  0.5656170000000  0.4768450000000 1.0
C      1  0.5596100000000  0.5231450000000  0.5238880000000 1.0
C      1  0.5541140000000  0.4710990000000  0.5321710000000 1.0
C      1  0.5014980000000  0.4387710000000  0.4662740000000 1.0
C      1  0.4466180000000  0.4669490000000  0.5332280000000 1.0
C      1  0.4458860000000  0.5289010000000  0.4678290000000 1.0
C      1  0.4985020000000  0.5612290000000  0.5337260000000 1.0
C      1  0.5533820000000  0.5330510000000  0.4667720000000 1.0
C      1  0.5111010000000  0.4736300000000  0.5075160000000 1.0
C      1  0.4837670000000  0.4783970000000  0.5011520000000 1.0
C      1  0.4731420000000  0.5047420000000  0.5054900000000 1.0
C      1  0.4888990000000  0.5263700000000  0.4924840000000 1.0
C      1  0.5162330000000  0.5216030000000  0.4988480000000 1.0
C      1  0.5268580000000  0.4952580000000  0.4945100000000 1.0
C      1  0.5271350000000  0.4903440000000  0.5612620000000 1.0
C      1  0.5058710000000  0.4738270000000  0.4401220000000 1.0
C      1  0.4799030000000  0.4820960000000  0.5578950000000 1.0
C      1  0.4728650000000  0.5096560000000  0.4387380000000 1.0
C      1  0.4941290000000  0.5261730000000  0.5598780000000 1.0
C      1  0.5200970000000  0.5179040000000  0.4421050000000 1.0
C      1  0.5411500000000  0.5364790000000  0.4417700000000 1.0
C      1  0.5535540000000  0.4813240000000  0.5584010000000 1.0
C      1  0.5109500000000  0.4461620000000  0.4407920000000 1.0
C      1  0.4588500000000  0.4635210000000  0.5582300000000 1.0
C      1  0.4464460000000  0.5186760000000  0.4415990000000 1.0
C      1  0.4890500000000  0.5538380000000  0.5592080000000 1.0
C      1  0.4309610000000  0.4938130000000  0.5333650000000 1.0
C      1  0.4622690000000  0.5536600000000  0.4699370000000 1.0
C      1  0.5290140000000  0.5624640000000  0.5342920000000 1.0
C      1  0.5690390000000  0.5061870000000  0.4666350000000 1.0
C      1  0.5377310000000  0.4463400000000  0.5300630000000 1.0
C      1  0.4709860000000  0.4375360000000  0.4657080000000 1.0
C      1  0.5240480000000  0.4918030000000  0.4555310000000 1.0
C      1  0.5063170000000  0.4756510000000  0.5463560000000 1.0
C      1  0.4777550000000  0.4814930000000  0.4410820000000 1.0
C      1  0.4759520000000  0.5081970000000  0.5444690000000 1.0
C      1  0.4936830000000  0.5243490000000  0.4536440000000 1.0
C      1  0.5222450000000  0.5185070000000  0.5589180000000 1.0
C      1  0.4832100000000  0.5738590000000  0.4942190000000 1.0
C      1  0.5480290000000  0.5508450000000  0.5120860000000 1.0
C      1  0.5697500000000  0.4841660000000  0.4896880000000 1.0
C      1  0.5167900000000  0.4261410000000  0.5057810000000 1.0
C      1  0.4519710000000  0.4491550000000  0.4879140000000 1.0
C      1  0.4302500000000  0.5158340000000  0.5103120000000 1.0
C      1  0.5526550000000  0.4943750000000  0.5116320000000 1.0
C      1  0.5216140000000  0.4501040000000  0.4887350000000 1.0
C      1  0.4682790000000  0.4564930000000  0.5120920000000 1.0
C      1  0.4473450000000  0.5056250000000  0.4883680000000 1.0
C      1  0.4783860000000  0.5498960000000  0.5112650000000 1.0
C      1  0.5317210000000  0.5435070000000  0.4879080000000 1.0
C      1  0.5113930000000  0.4471630000000  0.5432340000000 1.0
C      1  0.4562710000000  0.4632090000000  0.4515850000000 1.0
C      1  0.4480850000000  0.5185610000000  0.5452050000000 1.0
C      1  0.4886070000000  0.5528370000000  0.4567660000000 1.0
C      1  0.5437290000000  0.5367910000000  0.5484150000000 1.0
C      1  0.5519150000000  0.4814390000000  0.4547950000000 1.0
END
