TITL C-8695-8180-298 8.25424135792388e-05 125000 -361.436432560217 0 0 60 (C1) n - 1
REM
REM in /home/bkarasulu/CARBON/AIRSS/Generating-Clusters/EDIP-Nigel-Params/Higher-Symm/Box-15A/Only-C60/SD-CG/HFTN-CG
REM
REM
REM
REM
REM
REM ./C.cell (414f73aa93bd7a1190c7fd0f31ff2f98)
REM
REM compiler GCC version 9.2.1 20190827 (Red Hat 9.2.1-1)
REM options -cpp -mtune=generic -march=x86-64 -g -O0 -fpre-include=/usr/include/finclude/math-vector-fortran.h
REM seed -1552026151 -1307176406 -678284222 550195372 552286043 -1351173323 142036952 1258060490 -1457525807 1736415223 760778802 -882787911 -1297941635 504317614 -663722786 1023555112 -597235673 1550509276 -1321960314 1909217431 543574135 -1865609491 2050214058 1265696748 1272385203 1724973503 -2139411667 1849083445 -1413194850 -1475678236 115792784 775172977 1561216243
REM
CELL 1.54180   50.00000   50.00000   50.00000   90.00000   90.00000   90.00000
LATT -1
SFAC C  
C      1  0.4327020000000  0.5496870000000  0.4965020000000 1.0
C      1  0.4541440000000  0.4787010000000  0.4620300000000 1.0
C      1  0.4429540000000  0.4999300000000  0.5317750000000 1.0
C      1  0.5155980000000  0.5376470000000  0.4220800000000 1.0
C      1  0.4270350000000  0.5696700000000  0.4765950000000 1.0
C      1  0.4672870000000  0.5297550000000  0.4417300000000 1.0
C      1  0.4360770000000  0.5003470000000  0.5019260000000 1.0
C      1  0.4753730000000  0.5275900000000  0.4684180000000 1.0
C      1  0.4692410000000  0.4292880000000  0.5010510000000 1.0
C      1  0.5222860000000  0.4546740000000  0.4370700000000 1.0
C      1  0.4984990000000  0.4641270000000  0.4496590000000 1.0
C      1  0.5042900000000  0.5119490000000  0.4166030000000 1.0
C      1  0.5669650000000  0.4807940000000  0.4875870000000 1.0
C      1  0.5398120000000  0.4605580000000  0.5537160000000 1.0
C      1  0.4750750000000  0.4804670000000  0.4435730000000 1.0
C      1  0.4073490000000  0.5898430000000  0.4798640000000 1.0
C      1  0.4861870000000  0.4923820000000  0.5175420000000 1.0
C      1  0.5609830000000  0.5391450000000  0.5030940000000 1.0
C      1  0.5271920000000  0.5145610000000  0.4583250000000 1.0
C      1  0.5146700000000  0.5135140000000  0.5536050000000 1.0
C      1  0.4849070000000  0.4858640000000  0.5740210000000 1.0
C      1  0.4941010000000  0.4370020000000  0.4904540000000 1.0
C      1  0.5151140000000  0.4964090000000  0.5265590000000 1.0
C      1  0.5378020000000  0.5616180000000  0.4625480000000 1.0
C      1  0.4501080000000  0.5566780000000  0.5166860000000 1.0
C      1  0.4029020000000  0.5704360000000  0.4616890000000 1.0
C      1  0.4856460000000  0.4409430000000  0.5468700000000 1.0
C      1  0.5474660000000  0.5585850000000  0.4876650000000 1.0
C      1  0.4477140000000  0.4766240000000  0.4892500000000 1.0
C      1  0.4970080000000  0.4388810000000  0.4622680000000 1.0
C      1  0.5615530000000  0.4777650000000  0.5172960000000 1.0
C      1  0.4750030000000  0.4677570000000  0.5526970000000 1.0
C      1  0.5559120000000  0.4549740000000  0.4763230000000 1.0
C      1  0.5485800000000  0.5253930000000  0.5264700000000 1.0
C      1  0.5026290000000  0.5188280000000  0.4764990000000 1.0
C      1  0.4779840000000  0.5067160000000  0.4293040000000 1.0
C      1  0.5158020000000  0.5605970000000  0.5352130000000 1.0
C      1  0.5171490000000  0.4335870000000  0.5071460000000 1.0
C      1  0.4705420000000  0.5127910000000  0.5342930000000 1.0
C      1  0.5517250000000  0.5033680000000  0.4725980000000 1.0
C      1  0.5514210000000  0.4863150000000  0.5623700000000 1.0
C      1  0.5465200000000  0.4546010000000  0.4501650000000 1.0
C      1  0.4845010000000  0.5129380000000  0.5615910000000 1.0
C      1  0.4482970000000  0.4725370000000  0.5413020000000 1.0
C      1  0.4987380000000  0.5490750000000  0.5159880000000 1.0
C      1  0.4674390000000  0.4300110000000  0.5284910000000 1.0
C      1  0.4721170000000  0.5422750000000  0.5261510000000 1.0
C      1  0.5414220000000  0.4400590000000  0.4950150000000 1.0
C      1  0.5303510000000  0.5388950000000  0.5455570000000 1.0
C      1  0.5216730000000  0.4987560000000  0.4342110000000 1.0
C      1  0.5330690000000  0.4697650000000  0.5256230000000 1.0
C      1  0.5718680000000  0.5191040000000  0.4855280000000 1.0
C      1  0.5626330000000  0.5008630000000  0.5367980000000 1.0
C      1  0.4423940000000  0.5246140000000  0.4865190000000 1.0
C      1  0.5110390000000  0.5256200000000  0.5032680000000 1.0
C      1  0.4680560000000  0.4671040000000  0.5090920000000 1.0
C      1  0.5327830000000  0.5404670000000  0.4451270000000 1.0
C      1  0.5138610000000  0.4376490000000  0.5367560000000 1.0
C      1  0.5284460000000  0.4991480000000  0.5753060000000 1.0
C      1  0.5100080000000  0.4807610000000  0.5865500000000 1.0
END
