TITL C-8694-7203-305 -5.99050692982717e-07 125000 -365.757395471276 0 0 60 (C1) n - 1
REM
REM in /home/bkarasulu/CARBON/AIRSS/Generating-Clusters/EDIP-Nigel-Params/Higher-Symm/Box-15A/Only-C60/SD-CG/HFTN-CG
REM
REM
REM
REM
REM
REM ./C.cell (414f73aa93bd7a1190c7fd0f31ff2f98)
REM
REM compiler GCC version 9.2.1 20190827 (Red Hat 9.2.1-1)
REM options -cpp -mtune=generic -march=x86-64 -g -O0 -fpre-include=/usr/include/finclude/math-vector-fortran.h
REM seed 520791416 -836452950 602457324 -1703172016 -1106985866 2115367765 829273772 -481666802 -689103744 1253142248 42233788 -1079353452 201642032 -1709912163 -1347330515 1075598121 -548729758 289237314 2031041357 593716855 -247809747 1404638609 -933013790 2125387437 -1412401492 117441224 -538844674 -760721347 941488513 938735554 -374384102 917666935 -1645744707
REM
CELL 1.54180   50.00000   50.00000   50.00000   90.00000   90.00000   90.00000
LATT -1
SFAC C  
C      1  0.5448910000000  0.5246710000000  0.4716320000000 1.0
C      1  0.4755610000000  0.5498500000000  0.5276430000000 1.0
C      1  0.5230050000000  0.4802100000000  0.5337760000000 1.0
C      1  0.4337350000000  0.5306270000000  0.5280580000000 1.0
C      1  0.5637470000000  0.4708650000000  0.5202480000000 1.0
C      1  0.4497920000000  0.4741040000000  0.4825560000000 1.0
C      1  0.5217950000000  0.5636280000000  0.4707930000000 1.0
C      1  0.4804640000000  0.4361810000000  0.4706680000000 1.0
C      1  0.5277310000000  0.4361840000000  0.5299840000000 1.0
C      1  0.4780080000000  0.4820450000000  0.4456600000000 1.0
C      1  0.5309660000000  0.5292170000000  0.4442860000000 1.0
C      1  0.4710450000000  0.5247460000000  0.5570820000000 1.0
C      1  0.5668430000000  0.4631730000000  0.4770290000000 1.0
C      1  0.4824740000000  0.4412090000000  0.5263570000000 1.0
C      1  0.5223950000000  0.5217060000000  0.5548300000000 1.0
C      1  0.4416840000000  0.4683790000000  0.5282060000000 1.0
C      1  0.5463370000000  0.5240650000000  0.5177450000000 1.0
C      1  0.4566580000000  0.5257070000000  0.4841750000000 1.0
C      1  0.5288790000000  0.4337090000000  0.4712220000000 1.0
C      1  0.4739510000000  0.5648430000000  0.4727670000000 1.0
C      1  0.5223550000000  0.5536860000000  0.5245710000000 1.0
C      1  0.4704270000000  0.5261460000000  0.4384920000000 1.0
C      1  0.5308140000000  0.4826250000000  0.4568710000000 1.0
C      1  0.4658090000000  0.4803420000000  0.5465180000000 1.0
C      1  0.5518100000000  0.4848830000000  0.5438070000000 1.0
C      1  0.5485180000000  0.5535890000000  0.4804750000000 1.0
C      1  0.4854930000000  0.5534460000000  0.5569730000000 1.0
C      1  0.4518780000000  0.4866120000000  0.4565720000000 1.0
C      1  0.5696090000000  0.5100210000000  0.4660600000000 1.0
C      1  0.4407760000000  0.5212860000000  0.5562220000000 1.0
C      1  0.4476160000000  0.5558650000000  0.5171040000000 1.0
C      1  0.5555100000000  0.4416500000000  0.5178650000000 1.0
C      1  0.4561140000000  0.4461930000000  0.4861560000000 1.0
C      1  0.5145270000000  0.5555490000000  0.4417110000000 1.0
C      1  0.4908530000000  0.4563790000000  0.4509750000000 1.0
C      1  0.5151110000000  0.4566420000000  0.5517370000000 1.0
C      1  0.5503700000000  0.5143490000000  0.5464200000000 1.0
C      1  0.5551320000000  0.4392660000000  0.4869060000000 1.0
C      1  0.4850360000000  0.4552720000000  0.5520610000000 1.0
C      1  0.4481350000000  0.5159810000000  0.4572660000000 1.0
C      1  0.5593460000000  0.4842560000000  0.4604930000000 1.0
C      1  0.4399890000000  0.4914730000000  0.5589630000000 1.0
C      1  0.4553050000000  0.4434070000000  0.5156560000000 1.0
C      1  0.5507270000000  0.5537150000000  0.5100220000000 1.0
C      1  0.4498410000000  0.5538590000000  0.4867980000000 1.0
C      1  0.5199840000000  0.4561020000000  0.4529630000000 1.0
C      1  0.4802900000000  0.5546800000000  0.4421190000000 1.0
C      1  0.5157540000000  0.5506690000000  0.5546680000000 1.0
C      1  0.5087290000000  0.5072380000000  0.5318400000000 1.0
C      1  0.5290820000000  0.5070010000000  0.4971340000000 1.0
C      1  0.4986400000000  0.5445750000000  0.5102040000000 1.0
C      1  0.4916900000000  0.5156780000000  0.4589240000000 1.0
C      1  0.5158880000000  0.5047440000000  0.4443560000000 1.0
C      1  0.4778300000000  0.5059640000000  0.5333360000000 1.0
C      1  0.4506240000000  0.5119910000000  0.5104980000000 1.0
C      1  0.5330530000000  0.4746590000000  0.5002200000000 1.0
C      1  0.4372190000000  0.4863950000000  0.5052170000000 1.0
C      1  0.4976670000000  0.5461470000000  0.4810750000000 1.0
C      1  0.5046100000000  0.4266440000000  0.4867840000000 1.0
C      1  0.5078770000000  0.4459010000000  0.5092550000000 1.0
END
