TITL C-8699-7882-68 2.79803125743033e-06 125000 -379.24656432115 0 0 60 (C1) n - 1
REM
REM in /home/bkarasulu/CARBON/AIRSS/Generating-Clusters/EDIP-Nigel-Params/Higher-Symm/Box-15A/Only-C60/SD-CG/HFTN-CG
REM
REM
REM
REM
REM
REM ./C.cell (414f73aa93bd7a1190c7fd0f31ff2f98)
REM
REM compiler GCC version 9.2.1 20190827 (Red Hat 9.2.1-1)
REM options -cpp -mtune=generic -march=x86-64 -g -O0 -fpre-include=/usr/include/finclude/math-vector-fortran.h
REM seed -1598270941 -231766769 1068355986 53137972 -19653959 1312389583 1478907267 -160301304 -131243383 1414090167 897454927 535528937 -2072975706 1976772113 -1957706173 1605403537 -1390826160 1027480734 -735100789 -356962035 378376025 738612994 1182191713 328340829 -138236413 1606565494 -1155505175 -1093857616 965270086 685428432 -1846633428 1791988752 -860738865
REM
CELL 1.54180   50.00000   50.00000   50.00000   90.00000   90.00000   90.00000
LATT -1
SFAC C  
C      1  0.4497640000000  0.4537030000000  0.5015360000000 1.0
C      1  0.4831070000000  0.4526970000000  0.4522960000000 1.0
C      1  0.5391180000000  0.4518610000000  0.4701280000000 1.0
C      1  0.5324810000000  0.4604040000000  0.5245160000000 1.0
C      1  0.4868220000000  0.4522190000000  0.5458260000000 1.0
C      1  0.5235360000000  0.4998270000000  0.4939740000000 1.0
C      1  0.5157480000000  0.4911620000000  0.5211500000000 1.0
C      1  0.4863290000000  0.4987390000000  0.5196700000000 1.0
C      1  0.4788080000000  0.5082700000000  0.4930380000000 1.0
C      1  0.5016370000000  0.5048820000000  0.4768940000000 1.0
C      1  0.4429070000000  0.5426170000000  0.4853250000000 1.0
C      1  0.4908860000000  0.5413000000000  0.4478180000000 1.0
C      1  0.5396010000000  0.5423590000000  0.4730530000000 1.0
C      1  0.5460460000000  0.5388810000000  0.5264320000000 1.0
C      1  0.4926250000000  0.5312320000000  0.5565050000000 1.0
C      1  0.5141960000000  0.5567760000000  0.4602470000000 1.0
C      1  0.5411360000000  0.5558380000000  0.5014520000000 1.0
C      1  0.5112230000000  0.5470040000000  0.5412880000000 1.0
C      1  0.4497440000000  0.5469300000000  0.5139510000000 1.0
C      1  0.4606560000000  0.5576480000000  0.4656190000000 1.0
C      1  0.5680490000000  0.4907200000000  0.5295170000000 1.0
C      1  0.4956840000000  0.4874900000000  0.5767300000000 1.0
C      1  0.4310730000000  0.4962550000000  0.5183130000000 1.0
C      1  0.4633670000000  0.4942080000000  0.4368270000000 1.0
C      1  0.5490230000000  0.4923530000000  0.4448880000000 1.0
C      1  0.4923510000000  0.4937580000000  0.4288410000000 1.0
C      1  0.5655660000000  0.4922670000000  0.4701530000000 1.0
C      1  0.5508400000000  0.4893940000000  0.5546060000000 1.0
C      1  0.4674440000000  0.4903560000000  0.5647640000000 1.0
C      1  0.4307870000000  0.4955920000000  0.4874410000000 1.0
C      1  0.5496010000000  0.5117010000000  0.4874910000000 1.0
C      1  0.5295470000000  0.5082330000000  0.5437930000000 1.0
C      1  0.4727260000000  0.5114920000000  0.5433180000000 1.0
C      1  0.4522850000000  0.5152590000000  0.4795600000000 1.0
C      1  0.5050080000000  0.5138280000000  0.4485720000000 1.0
C      1  0.5194330000000  0.4343270000000  0.4841800000000 1.0
C      1  0.5198860000000  0.4344700000000  0.5141520000000 1.0
C      1  0.4916400000000  0.4334600000000  0.5236830000000 1.0
C      1  0.4739380000000  0.4362800000000  0.4998580000000 1.0
C      1  0.4910140000000  0.4363160000000  0.4757040000000 1.0
C      1  0.5000550000000  0.5673270000000  0.5247260000000 1.0
C      1  0.4756370000000  0.5611850000000  0.5098340000000 1.0
C      1  0.4761350000000  0.5744590000000  0.4841620000000 1.0
C      1  0.5049710000000  0.5786940000000  0.4778820000000 1.0
C      1  0.5199050000000  0.5764620000000  0.5043280000000 1.0
C      1  0.5074220000000  0.4620450000000  0.5648400000000 1.0
C      1  0.4431680000000  0.4690920000000  0.5260150000000 1.0
C      1  0.4597280000000  0.4702910000000  0.4545150000000 1.0
C      1  0.5314690000000  0.4678290000000  0.4468240000000 1.0
C      1  0.5603780000000  0.4655140000000  0.5136900000000 1.0
C      1  0.5110780000000  0.5121550000000  0.5685750000000 1.0
C      1  0.4461840000000  0.5215400000000  0.5313360000000 1.0
C      1  0.4584280000000  0.5200770000000  0.4503950000000 1.0
C      1  0.5341060000000  0.5173360000000  0.4440870000000 1.0
C      1  0.5621610000000  0.5161920000000  0.5143500000000 1.0
C      1  0.4607020000000  0.4650700000000  0.5503410000000 1.0
C      1  0.4405340000000  0.4688200000000  0.4776830000000 1.0
C      1  0.5036440000000  0.4665390000000  0.4353940000000 1.0
C      1  0.5626760000000  0.4648830000000  0.4833380000000 1.0
C      1  0.5359850000000  0.4623830000000  0.5545750000000 1.0
END
