TITL C-8698-8182-241 9.34530035406412e-06 125000 -362.38113593285 0 0 60 (C1) n - 1
REM
REM in /home/bkarasulu/CARBON/AIRSS/Generating-Clusters/EDIP-Nigel-Params/Higher-Symm/Box-15A/Only-C60/SD-CG/HFTN-CG
REM
REM
REM
REM
REM
REM ./C.cell (414f73aa93bd7a1190c7fd0f31ff2f98)
REM
REM compiler GCC version 9.2.1 20190827 (Red Hat 9.2.1-1)
REM options -cpp -mtune=generic -march=x86-64 -g -O0 -fpre-include=/usr/include/finclude/math-vector-fortran.h
REM seed 672699513 -1346412969 -1267384054 363225703 -499404444 319857912 -255715088 -487077885 532407260 -125471929 676555701 425529590 -1288140950 1169396690 306876734 1972760660 -1523974844 1002015117 -1003509533 -611624294 1553985093 -1082988883 2104888355 -2081312753 829405443 979347468 -55342289 98489207 1424015933 175007750 1705571599 -6737068 -1898892430
REM
CELL 1.54180   50.00000   50.00000   50.00000   90.00000   90.00000   90.00000
LATT -1
SFAC C  
C      1  0.4770020000000  0.4673200000000  0.5370050000000 1.0
C      1  0.4742730000000  0.5292980000000  0.5371240000000 1.0
C      1  0.4487000000000  0.5134710000000  0.5406490000000 1.0
C      1  0.4500630000000  0.4810640000000  0.5406440000000 1.0
C      1  0.5058130000000  0.4702060000000  0.4932930000000 1.0
C      1  0.5044160000000  0.5292650000000  0.4959460000000 1.0
C      1  0.4664640000000  0.4209800000000  0.5266980000000 1.0
C      1  0.4596850000000  0.5743510000000  0.5277580000000 1.0
C      1  0.4804540000000  0.4306780000000  0.5031540000000 1.0
C      1  0.4754920000000  0.5660190000000  0.5048330000000 1.0
C      1  0.5370530000000  0.4512690000000  0.4615030000000 1.0
C      1  0.5324780000000  0.5559130000000  0.4654050000000 1.0
C      1  0.5630980000000  0.5294680000000  0.4897890000000 1.0
C      1  0.5637760000000  0.4797550000000  0.4885690000000 1.0
C      1  0.5027130000000  0.4237160000000  0.5404120000000 1.0
C      1  0.4953930000000  0.5747490000000  0.5431330000000 1.0
C      1  0.4984350000000  0.4847430000000  0.5506880000000 1.0
C      1  0.4980300000000  0.5142730000000  0.5490320000000 1.0
C      1  0.5241960000000  0.4707070000000  0.5567950000000 1.0
C      1  0.5202190000000  0.5306610000000  0.5609310000000 1.0
C      1  0.4524580000000  0.5215700000000  0.4904770000000 1.0
C      1  0.4542260000000  0.4725310000000  0.4915240000000 1.0
C      1  0.4729000000000  0.4653980000000  0.4320790000000 1.0
C      1  0.4551340000000  0.4852910000000  0.4262610000000 1.0
C      1  0.4972150000000  0.4757920000000  0.4437450000000 1.0
C      1  0.5006950000000  0.5230660000000  0.4482970000000 1.0
C      1  0.5091680000000  0.4254560000000  0.5112900000000 1.0
C      1  0.5032860000000  0.5734810000000  0.5146090000000 1.0
C      1  0.5232370000000  0.5502620000000  0.5109880000000 1.0
C      1  0.5262760000000  0.4507740000000  0.5072650000000 1.0
C      1  0.5104610000000  0.4596510000000  0.4647860000000 1.0
C      1  0.5082490000000  0.5415340000000  0.4685310000000 1.0
C      1  0.4360410000000  0.4815040000000  0.5134510000000 1.0
C      1  0.4347850000000  0.5115870000000  0.5129010000000 1.0
C      1  0.5489960000000  0.4554780000000  0.4865640000000 1.0
C      1  0.5455740000000  0.5515810000000  0.4900120000000 1.0
C      1  0.4355110000000  0.5354510000000  0.4711380000000 1.0
C      1  0.4366680000000  0.4564480000000  0.4743140000000 1.0
C      1  0.5206370000000  0.5202130000000  0.4272980000000 1.0
C      1  0.5159390000000  0.4827520000000  0.4218960000000 1.0
C      1  0.4260030000000  0.5157940000000  0.4536500000000 1.0
C      1  0.4235430000000  0.4764580000000  0.4595100000000 1.0
C      1  0.5338200000000  0.4560970000000  0.5345790000000 1.0
C      1  0.5344510000000  0.5470840000000  0.5388060000000 1.0
C      1  0.5484880000000  0.4850240000000  0.5675390000000 1.0
C      1  0.5446300000000  0.5141870000000  0.5737390000000 1.0
C      1  0.4764060000000  0.5358410000000  0.5060490000000 1.0
C      1  0.4792900000000  0.4607550000000  0.5054040000000 1.0
C      1  0.4776350000000  0.4385530000000  0.5475520000000 1.0
C      1  0.4718210000000  0.5574700000000  0.5486280000000 1.0
C      1  0.5565760000000  0.5278140000000  0.5464120000000 1.0
C      1  0.5677800000000  0.4823890000000  0.5457560000000 1.0
C      1  0.5699360000000  0.5046200000000  0.5010680000000 1.0
C      1  0.5567970000000  0.5033470000000  0.5278690000000 1.0
C      1  0.4433800000000  0.4941470000000  0.4513420000000 1.0
C      1  0.5131540000000  0.4998050000000  0.4988080000000 1.0
C      1  0.5380980000000  0.4988380000000  0.4248930000000 1.0
C      1  0.5290650000000  0.4981380000000  0.5215850000000 1.0
C      1  0.4903090000000  0.4988930000000  0.4608310000000 1.0
C      1  0.4626450000000  0.4971180000000  0.4743580000000 1.0
END
