TITL C-8697-8172-94 -8.55211889138178e-05 125000 -363.699747029304 0 0 60 (C1) n - 1
REM
REM in /home/bkarasulu/CARBON/AIRSS/Generating-Clusters/EDIP-Nigel-Params/Higher-Symm/Box-15A/Only-C60/SD-CG/HFTN-CG
REM
REM
REM
REM
REM
REM ./C.cell (414f73aa93bd7a1190c7fd0f31ff2f98)
REM
REM compiler GCC version 9.2.1 20190827 (Red Hat 9.2.1-1)
REM options -cpp -mtune=generic -march=x86-64 -g -O0 -fpre-include=/usr/include/finclude/math-vector-fortran.h
REM seed -93325398 -1964063694 1813168284 264975428 1349391774 483490231 1981654544 917620604 -235916158 -415702679 -969527297 -125201992 -1388891788 -934677667 1510740391 1052761080 -1535046380 -2131788431 928335392 1347731082 1678421819 1293860067 222596473 1644892106 1903418041 -1660913380 -575420793 -1092735061 -784288484 -90264074 772648307 -253124882 -1981755237
REM
CELL 1.54180   50.00000   50.00000   50.00000   90.00000   90.00000   90.00000
LATT -1
SFAC C  
C      1  0.5268850000000  0.4463860000000  0.4508880000000 1.0
C      1  0.4716470000000  0.4476020000000  0.5494030000000 1.0
C      1  0.4738650000000  0.5517750000000  0.4509960000000 1.0
C      1  0.5263980000000  0.5532970000000  0.5487940000000 1.0
C      1  0.4499620000000  0.4476380000000  0.5267200000000 1.0
C      1  0.5489590000000  0.4471050000000  0.4727160000000 1.0
C      1  0.4511930000000  0.5525880000000  0.4732040000000 1.0
C      1  0.5479290000000  0.5525210000000  0.5267280000000 1.0
C      1  0.5575650000000  0.5025830000000  0.5364200000000 1.0
C      1  0.4412900000000  0.5000520000000  0.4673870000000 1.0
C      1  0.4409920000000  0.5000340000000  0.5327380000000 1.0
C      1  0.5570700000000  0.4972660000000  0.4627750000000 1.0
C      1  0.5300860000000  0.5011410000000  0.5520970000000 1.0
C      1  0.4663840000000  0.4996930000000  0.4462290000000 1.0
C      1  0.5305550000000  0.4989430000000  0.4464150000000 1.0
C      1  0.4658760000000  0.5001580000000  0.5538760000000 1.0
C      1  0.5006040000000  0.5665390000000  0.4590880000000 1.0
C      1  0.5017140000000  0.5607910000000  0.5361630000000 1.0
C      1  0.5020700000000  0.4394530000000  0.4644640000000 1.0
C      1  0.4987140000000  0.4358340000000  0.5375550000000 1.0
C      1  0.4587300000000  0.5650500000000  0.4978190000000 1.0
C      1  0.5393790000000  0.5653790000000  0.5013190000000 1.0
C      1  0.4576340000000  0.4343400000000  0.5024290000000 1.0
C      1  0.5398500000000  0.4349170000000  0.4984840000000 1.0
C      1  0.4387170000000  0.5249090000000  0.5151940000000 1.0
C      1  0.5592070000000  0.5255830000000  0.4872110000000 1.0
C      1  0.5600120000000  0.4748150000000  0.5129450000000 1.0
C      1  0.4388590000000  0.4752780000000  0.4850240000000 1.0
C      1  0.5135520000000  0.5228530000000  0.4500590000000 1.0
C      1  0.4823400000000  0.5258720000000  0.5604780000000 1.0
C      1  0.5134840000000  0.4752300000000  0.5522730000000 1.0
C      1  0.4822260000000  0.4737450000000  0.4393510000000 1.0
C      1  0.4767760000000  0.5485830000000  0.5422210000000 1.0
C      1  0.5256610000000  0.5496320000000  0.4554040000000 1.0
C      1  0.5272940000000  0.4476150000000  0.5459970000000 1.0
C      1  0.4765460000000  0.4508980000000  0.4577810000000 1.0
C      1  0.5492440000000  0.5528980000000  0.4759080000000 1.0
C      1  0.4563380000000  0.5479860000000  0.5205040000000 1.0
C      1  0.5499390000000  0.4469970000000  0.5241100000000 1.0
C      1  0.4561590000000  0.4518520000000  0.4799100000000 1.0
C      1  0.5152770000000  0.5267110000000  0.5623690000000 1.0
C      1  0.4843340000000  0.5240680000000  0.4445630000000 1.0
C      1  0.4826360000000  0.4748750000000  0.5575440000000 1.0
C      1  0.5154460000000  0.4732860000000  0.4374440000000 1.0
C      1  0.5619180000000  0.5273080000000  0.5191100000000 1.0
C      1  0.4368280000000  0.5263970000000  0.4832190000000 1.0
C      1  0.5618130000000  0.4729430000000  0.4804840000000 1.0
C      1  0.4367210000000  0.4741230000000  0.5167560000000 1.0
C      1  0.5186230000000  0.4653510000000  0.4991690000000 1.0
C      1  0.4742450000000  0.4804560000000  0.5108290000000 1.0
C      1  0.4741080000000  0.5190890000000  0.4896140000000 1.0
C      1  0.5170250000000  0.5355250000000  0.5000270000000 1.0
C      1  0.4973960000000  0.4625340000000  0.5178190000000 1.0
C      1  0.5074750000000  0.4770460000000  0.4749460000000 1.0
C      1  0.4929400000000  0.5424270000000  0.4839710000000 1.0
C      1  0.5074450000000  0.5222680000000  0.5246510000000 1.0
C      1  0.4803950000000  0.5110370000000  0.5190220000000 1.0
C      1  0.5311320000000  0.5110190000000  0.4885620000000 1.0
C      1  0.5318360000000  0.4892870000000  0.5099170000000 1.0
C      1  0.4807020000000  0.4884170000000  0.4809090000000 1.0
END
