TITL C-8695-8180-277 -1.19756804394911e-06 125000 -365.502670274537 0 0 60 (C1) n - 1
REM
REM in /home/bkarasulu/CARBON/AIRSS/Generating-Clusters/EDIP-Nigel-Params/Higher-Symm/Box-15A/Only-C60/SD-CG/HFTN-CG
REM
REM
REM
REM
REM
REM ./C.cell (414f73aa93bd7a1190c7fd0f31ff2f98)
REM
REM compiler GCC version 9.2.1 20190827 (Red Hat 9.2.1-1)
REM options -cpp -mtune=generic -march=x86-64 -g -O0 -fpre-include=/usr/include/finclude/math-vector-fortran.h
REM seed 379066207 -477312270 2023093586 -387429735 1111585791 -289781009 -68901281 -548123230 -437747367 -999680062 -1839661809 -422267095 -156448350 -558325769 2046481751 -151000926 -171054712 714290167 -1367835609 -341357978 -94965487 -1329443605 -119835594 -1447772171 17141968 1437911339 274261431 -82168597 700710640 -123036970 -2132958153 1543192049 2126944613
REM
CELL 1.54180   50.00000   50.00000   50.00000   90.00000   90.00000   90.00000
LATT -1
SFAC C  
C      1  0.5591090000000  0.4645110000000  0.5301430000000 1.0
C      1  0.5065750000000  0.5228110000000  0.4908900000000 1.0
C      1  0.5645820000000  0.4844680000000  0.4841900000000 1.0
C      1  0.5217190000000  0.4791930000000  0.5852900000000 1.0
C      1  0.5342410000000  0.5088060000000  0.5491890000000 1.0
C      1  0.4751340000000  0.5426190000000  0.4452860000000 1.0
C      1  0.5072020000000  0.4481440000000  0.5055940000000 1.0
C      1  0.4888610000000  0.5163110000000  0.5654040000000 1.0
C      1  0.5562700000000  0.5034050000000  0.5291010000000 1.0
C      1  0.5375810000000  0.4614930000000  0.4421530000000 1.0
C      1  0.4959420000000  0.5679590000000  0.5159280000000 1.0
C      1  0.5396190000000  0.4512270000000  0.5470140000000 1.0
C      1  0.5128010000000  0.4509460000000  0.5344400000000 1.0
C      1  0.4464900000000  0.4648280000000  0.4750290000000 1.0
C      1  0.4155890000000  0.4922570000000  0.5165640000000 1.0
C      1  0.4852000000000  0.4665520000000  0.4967730000000 1.0
C      1  0.4577380000000  0.4808580000000  0.5725210000000 1.0
C      1  0.5472370000000  0.4314110000000  0.4789460000000 1.0
C      1  0.4886270000000  0.5616560000000  0.4639410000000 1.0
C      1  0.5608710000000  0.5307500000000  0.5142890000000 1.0
C      1  0.5569880000000  0.5072890000000  0.4683450000000 1.0
C      1  0.4543770000000  0.4436200000000  0.4588740000000 1.0
C      1  0.5182340000000  0.5594720000000  0.4601110000000 1.0
C      1  0.4779090000000  0.5633060000000  0.4926640000000 1.0
C      1  0.5375700000000  0.4600630000000  0.5738180000000 1.0
C      1  0.4431020000000  0.5280000000000  0.4977820000000 1.0
C      1  0.5245940000000  0.5643370000000  0.5086350000000 1.0
C      1  0.5399810000000  0.4993680000000  0.4440350000000 1.0
C      1  0.4383820000000  0.4770050000000  0.5234640000000 1.0
C      1  0.4987440000000  0.5405440000000  0.5507660000000 1.0
C      1  0.5108700000000  0.4938130000000  0.5623730000000 1.0
C      1  0.4882890000000  0.4674240000000  0.4432010000000 1.0
C      1  0.4854950000000  0.4877970000000  0.5202370000000 1.0
C      1  0.4878230000000  0.5654650000000  0.5432300000000 1.0
C      1  0.5042580000000  0.5083210000000  0.5141670000000 1.0
C      1  0.5262340000000  0.5461850000000  0.4365700000000 1.0
C      1  0.4516430000000  0.5547560000000  0.4978940000000 1.0
C      1  0.4487270000000  0.5372000000000  0.4526310000000 1.0
C      1  0.5275580000000  0.5369550000000  0.5491200000000 1.0
C      1  0.5507700000000  0.4814810000000  0.5086350000000 1.0
C      1  0.4987500000000  0.5065920000000  0.4692080000000 1.0
C      1  0.5398500000000  0.4345830000000  0.4522250000000 1.0
C      1  0.5533990000000  0.5323290000000  0.4850070000000 1.0
C      1  0.4957900000000  0.4729250000000  0.5450520000000 1.0
C      1  0.4483330000000  0.4591010000000  0.5029710000000 1.0
C      1  0.5206730000000  0.4319300000000  0.4860640000000 1.0
C      1  0.5432240000000  0.5514620000000  0.5285430000000 1.0
C      1  0.4706480000000  0.4910440000000  0.4388080000000 1.0
C      1  0.4738890000000  0.4625610000000  0.5607190000000 1.0
C      1  0.4997960000000  0.4771940000000  0.4706030000000 1.0
C      1  0.4618350000000  0.5051420000000  0.5586900000000 1.0
C      1  0.4540810000000  0.4912520000000  0.4642090000000 1.0
C      1  0.4252930000000  0.5185640000000  0.5175810000000 1.0
C      1  0.5260430000000  0.5454740000000  0.4853910000000 1.0
C      1  0.4577760000000  0.5002320000000  0.5286160000000 1.0
C      1  0.5310390000000  0.4717460000000  0.4700440000000 1.0
C      1  0.5195960000000  0.5192610000000  0.4321420000000 1.0
C      1  0.4905500000000  0.5163500000000  0.4422080000000 1.0
C      1  0.4751820000000  0.4425210000000  0.4418730000000 1.0
C      1  0.4413130000000  0.5171310000000  0.4708090000000 1.0
END
