TITL C-8697-8172-170 1.015174962201e-07 125000 -368.635014524376 0 0 60 (C1) n - 1
REM
REM in /home/bkarasulu/CARBON/AIRSS/Generating-Clusters/EDIP-Nigel-Params/Higher-Symm/Box-15A/Only-C60/SD-CG/HFTN-CG
REM
REM
REM
REM
REM
REM ./C.cell (414f73aa93bd7a1190c7fd0f31ff2f98)
REM
REM compiler GCC version 9.2.1 20190827 (Red Hat 9.2.1-1)
REM options -cpp -mtune=generic -march=x86-64 -g -O0 -fpre-include=/usr/include/finclude/math-vector-fortran.h
REM seed 893516352 1090378815 866582500 -1101711815 33910677 -671382368 1673713749 -79976732 1804782593 -42438973 -370781796 1891018508 502348470 -1192970089 -1894890263 473066744 2137347251 1758291485 -607968517 -505616575 1261909470 1440510010 -1380281721 2136177465 1230232750 -296485882 2001681794 1843304761 -463837490 -1488985665 1494439277 -1668944042 -1479322217
REM
CELL 1.54180   50.00000   50.00000   50.00000   90.00000   90.00000   90.00000
LATT -1
SFAC C  
C      1  0.5335300000000  0.4894100000000  0.4724170000000 1.0
C      1  0.4421980000000  0.5441600000000  0.5095930000000 1.0
C      1  0.5715790000000  0.5427180000000  0.5115190000000 1.0
C      1  0.5486750000000  0.4772460000000  0.5120570000000 1.0
C      1  0.4615500000000  0.5527110000000  0.4912550000000 1.0
C      1  0.4826580000000  0.5418090000000  0.4433150000000 1.0
C      1  0.4484830000000  0.4438480000000  0.5000980000000 1.0
C      1  0.5466660000000  0.4526790000000  0.4926120000000 1.0
C      1  0.4439140000000  0.5149680000000  0.4627120000000 1.0
C      1  0.4603550000000  0.4311440000000  0.5222010000000 1.0
C      1  0.5232370000000  0.5067010000000  0.5619320000000 1.0
C      1  0.5077130000000  0.5552300000000  0.4514060000000 1.0
C      1  0.5273610000000  0.4362970000000  0.5074250000000 1.0
C      1  0.4719070000000  0.5260830000000  0.5434690000000 1.0
C      1  0.4617670000000  0.4421010000000  0.4739440000000 1.0
C      1  0.5751580000000  0.5191510000000  0.5261850000000 1.0
C      1  0.5076470000000  0.4525300000000  0.4546820000000 1.0
C      1  0.5223740000000  0.5324010000000  0.4642830000000 1.0
C      1  0.5284210000000  0.5689210000000  0.5157840000000 1.0
C      1  0.5239830000000  0.5367090000000  0.4944400000000 1.0
C      1  0.4283790000000  0.4932700000000  0.5080250000000 1.0
C      1  0.5303650000000  0.5229790000000  0.5394090000000 1.0
C      1  0.5019480000000  0.4628730000000  0.5683950000000 1.0
C      1  0.5785690000000  0.5018690000000  0.4820480000000 1.0
C      1  0.4920560000000  0.4711130000000  0.4364150000000 1.0
C      1  0.4695670000000  0.5015160000000  0.5609590000000 1.0
C      1  0.5064830000000  0.5771450000000  0.4690900000000 1.0
C      1  0.5019180000000  0.4958520000000  0.4248360000000 1.0
C      1  0.5733660000000  0.4949110000000  0.5088470000000 1.0
C      1  0.4652440000000  0.4649630000000  0.4314210000000 1.0
C      1  0.5022650000000  0.4394260000000  0.5495730000000 1.0
C      1  0.5495280000000  0.5542810000000  0.4992320000000 1.0
C      1  0.4448790000000  0.5301720000000  0.5336600000000 1.0
C      1  0.4566790000000  0.4888470000000  0.4753980000000 1.0
C      1  0.4259620000000  0.5110390000000  0.4854090000000 1.0
C      1  0.4531460000000  0.4646650000000  0.4567610000000 1.0
C      1  0.5182310000000  0.5509160000000  0.5394890000000 1.0
C      1  0.4842810000000  0.4449330000000  0.5263400000000 1.0
C      1  0.4915280000000  0.4404750000000  0.4767140000000 1.0
C      1  0.5080940000000  0.5040250000000  0.4613540000000 1.0
C      1  0.4432620000000  0.4896300000000  0.5568770000000 1.0
C      1  0.5497370000000  0.5298260000000  0.4543420000000 1.0
C      1  0.4637080000000  0.5368940000000  0.4659200000000 1.0
C      1  0.5305900000000  0.4393390000000  0.5369820000000 1.0
C      1  0.5576420000000  0.5196360000000  0.5488600000000 1.0
C      1  0.5050440000000  0.5762500000000  0.4971150000000 1.0
C      1  0.4892570000000  0.5483890000000  0.5338840000000 1.0
C      1  0.5355400000000  0.4609390000000  0.4646160000000 1.0
C      1  0.4322780000000  0.4663500000000  0.5026930000000 1.0
C      1  0.5065930000000  0.4848260000000  0.5008640000000 1.0
C      1  0.5201470000000  0.4800440000000  0.5540300000000 1.0
C      1  0.4861360000000  0.4974550000000  0.4822920000000 1.0
C      1  0.4308940000000  0.5046230000000  0.5351860000000 1.0
C      1  0.4876080000000  0.5198450000000  0.4261700000000 1.0
C      1  0.4758510000000  0.4748500000000  0.5720200000000 1.0
C      1  0.5415710000000  0.4668660000000  0.5396760000000 1.0
C      1  0.5265410000000  0.5096490000000  0.5109060000000 1.0
C      1  0.5575030000000  0.5047240000000  0.4640580000000 1.0
C      1  0.4865930000000  0.5565230000000  0.5058500000000 1.0
C      1  0.5018430000000  0.4512530000000  0.5029530000000 1.0
END
