TITL C-8699-7882-183 -1.2662655373929e-07 125000 -365.603506350823 0 0 60 (C1) n - 1
REM
REM in /home/bkarasulu/CARBON/AIRSS/Generating-Clusters/EDIP-Nigel-Params/Higher-Symm/Box-15A/Only-C60/SD-CG/HFTN-CG
REM
REM
REM
REM
REM
REM ./C.cell (414f73aa93bd7a1190c7fd0f31ff2f98)
REM
REM compiler GCC version 9.2.1 20190827 (Red Hat 9.2.1-1)
REM options -cpp -mtune=generic -march=x86-64 -g -O0 -fpre-include=/usr/include/finclude/math-vector-fortran.h
REM seed -408590470 -200981951 595263890 481079683 -1382105399 -694924683 -1501855566 -990375741 -466192203 -271378566 1329913361 304463320 -949905176 -1151522478 1552049627 -241520240 1538138339 476122164 -1240937738 588185035 -1736168774 26717929 -2004218074 -97286137 1389639203 1690183847 -64580171 -1286025770 1649321858 -793658549 401815526 2024775655 1898585328
REM
CELL 1.54180   50.00000   50.00000   50.00000   90.00000   90.00000   90.00000
LATT -1
SFAC C  
C      1  0.5344790000000  0.5689640000000  0.4855800000000 1.0
C      1  0.5346000000000  0.4814780000000  0.5710480000000 1.0
C      1  0.5342290000000  0.4558690000000  0.4392920000000 1.0
C      1  0.5349820000000  0.5698790000000  0.5153620000000 1.0
C      1  0.5344140000000  0.4840410000000  0.4305950000000 1.0
C      1  0.5326640000000  0.4539920000000  0.5605920000000 1.0
C      1  0.4524670000000  0.4580830000000  0.5342990000000 1.0
C      1  0.4638400000000  0.4873060000000  0.4722250000000 1.0
C      1  0.4560340000000  0.5472660000000  0.5144680000000 1.0
C      1  0.4559300000000  0.4586230000000  0.4676290000000 1.0
C      1  0.4590250000000  0.4869790000000  0.5290420000000 1.0
C      1  0.4545330000000  0.5488410000000  0.4851320000000 1.0
C      1  0.4399820000000  0.5310830000000  0.5304490000000 1.0
C      1  0.4378490000000  0.4461990000000  0.5137840000000 1.0
C      1  0.4456670000000  0.5063440000000  0.4572050000000 1.0
C      1  0.4404040000000  0.5303610000000  0.4699060000000 1.0
C      1  0.4401010000000  0.4467930000000  0.4872300000000 1.0
C      1  0.4439960000000  0.5078140000000  0.5450100000000 1.0
C      1  0.5156380000000  0.4399190000000  0.4255260000000 1.0
C      1  0.5179490000000  0.5889780000000  0.4741390000000 1.0
C      1  0.5100060000000  0.4940040000000  0.5814110000000 1.0
C      1  0.5135680000000  0.4383970000000  0.5740520000000 1.0
C      1  0.5171840000000  0.5895920000000  0.5258830000000 1.0
C      1  0.5095430000000  0.4961100000000  0.4201150000000 1.0
C      1  0.5371490000000  0.4508030000000  0.4687200000000 1.0
C      1  0.5335810000000  0.5427840000000  0.4722640000000 1.0
C      1  0.5527300000000  0.4974360000000  0.5572500000000 1.0
C      1  0.5342870000000  0.4509360000000  0.5308710000000 1.0
C      1  0.5343160000000  0.5437510000000  0.5300160000000 1.0
C      1  0.5527610000000  0.4993010000000  0.4448470000000 1.0
C      1  0.5480410000000  0.5217480000000  0.5155470000000 1.0
C      1  0.5503540000000  0.4718220000000  0.5154520000000 1.0
C      1  0.5556830000000  0.4979580000000  0.4724970000000 1.0
C      1  0.5470390000000  0.5213180000000  0.4868530000000 1.0
C      1  0.5523180000000  0.4717620000000  0.4854350000000 1.0
C      1  0.5541290000000  0.4972210000000  0.5295230000000 1.0
C      1  0.4768880000000  0.4426100000000  0.5409330000000 1.0
C      1  0.4698370000000  0.5027090000000  0.4365860000000 1.0
C      1  0.4811740000000  0.5570780000000  0.5271460000000 1.0
C      1  0.4791030000000  0.4422200000000  0.4592210000000 1.0
C      1  0.4715330000000  0.5029080000000  0.5626170000000 1.0
C      1  0.4775830000000  0.5607550000000  0.4708460000000 1.0
C      1  0.4872500000000  0.4942690000000  0.5228280000000 1.0
C      1  0.5091220000000  0.4717760000000  0.4853890000000 1.0
C      1  0.5037340000000  0.5195330000000  0.4829440000000 1.0
C      1  0.4938720000000  0.4930860000000  0.4720530000000 1.0
C      1  0.5068470000000  0.4731320000000  0.5145460000000 1.0
C      1  0.4913870000000  0.5220020000000  0.5121120000000 1.0
C      1  0.4906180000000  0.4512550000000  0.4327390000000 1.0
C      1  0.4922760000000  0.5825910000000  0.4850370000000 1.0
C      1  0.4843170000000  0.4787130000000  0.5780510000000 1.0
C      1  0.4889440000000  0.4508280000000  0.5672910000000 1.0
C      1  0.4922960000000  0.5816730000000  0.5146810000000 1.0
C      1  0.4850120000000  0.4791610000000  0.4222140000000 1.0
C      1  0.5042250000000  0.5366240000000  0.5367640000000 1.0
C      1  0.4981730000000  0.4438220000000  0.5188550000000 1.0
C      1  0.4902810000000  0.5247510000000  0.4354100000000 1.0
C      1  0.4972830000000  0.5400690000000  0.4601290000000 1.0
C      1  0.5010650000000  0.4423950000000  0.4802610000000 1.0
C      1  0.4957110000000  0.5222830000000  0.5620950000000 1.0
END
