TITL C-8694-7203-258 2.12926896244745e-07 125000 -364.240649151731 0 0 60 (C1) n - 1
REM
REM in /home/bkarasulu/CARBON/AIRSS/Generating-Clusters/EDIP-Nigel-Params/Higher-Symm/Box-15A/Only-C60/SD-CG/HFTN-CG
REM
REM
REM
REM
REM
REM ./C.cell (414f73aa93bd7a1190c7fd0f31ff2f98)
REM
REM compiler GCC version 9.2.1 20190827 (Red Hat 9.2.1-1)
REM options -cpp -mtune=generic -march=x86-64 -g -O0 -fpre-include=/usr/include/finclude/math-vector-fortran.h
REM seed 1113676570 -1987568058 -2100596434 2090123952 1470508452 -1727319614 -186048555 1764122248 -1975064050 2122667645 727378931 -1832098927 -1051266267 1813659570 1796635199 194300422 -247944414 -1082992608 -1427544129 -1704508837 85948436 1747401624 1650094061 -1079311927 862504008 -1517659572 1904582656 1640830289 581671764 1009163265 120185296 1737171425 1383591259
REM
CELL 1.54180   50.00000   50.00000   50.00000   90.00000   90.00000   90.00000
LATT -1
SFAC C  
C      1  0.5733870000000  0.5089880000000  0.4527370000000 1.0
C      1  0.5722050000000  0.5064900000000  0.5478510000000 1.0
C      1  0.5487550000000  0.5489270000000  0.4576900000000 1.0
C      1  0.5482640000000  0.5470190000000  0.5434990000000 1.0
C      1  0.4518440000000  0.4438630000000  0.4927580000000 1.0
C      1  0.4367800000000  0.4437580000000  0.5161390000000 1.0
C      1  0.5104740000000  0.5281400000000  0.5263010000000 1.0
C      1  0.5108040000000  0.5288540000000  0.4737860000000 1.0
C      1  0.5612480000000  0.5255020000000  0.5292440000000 1.0
C      1  0.5616610000000  0.5271520000000  0.4716950000000 1.0
C      1  0.5320340000000  0.5364500000000  0.4367090000000 1.0
C      1  0.5313000000000  0.5339100000000  0.5638870000000 1.0
C      1  0.4731180000000  0.4236510000000  0.4903660000000 1.0
C      1  0.4821950000000  0.4103600000000  0.5134650000000 1.0
C      1  0.4623510000000  0.5451280000000  0.5385250000000 1.0
C      1  0.4626260000000  0.5457590000000  0.4614430000000 1.0
C      1  0.4821900000000  0.5218230000000  0.4843510000000 1.0
C      1  0.4820490000000  0.5213860000000  0.5154250000000 1.0
C      1  0.4797680000000  0.5041800000000  0.4402850000000 1.0
C      1  0.4784600000000  0.5030470000000  0.5588690000000 1.0
C      1  0.5407870000000  0.4841050000000  0.4756780000000 1.0
C      1  0.5400370000000  0.4831360000000  0.5229780000000 1.0
C      1  0.5231370000000  0.4352230000000  0.5138260000000 1.0
C      1  0.5214910000000  0.4288080000000  0.4839250000000 1.0
C      1  0.4420230000000  0.4923020000000  0.5287610000000 1.0
C      1  0.4438100000000  0.4894130000000  0.4694190000000 1.0
C      1  0.5176600000000  0.4650820000000  0.5131950000000 1.0
C      1  0.5175080000000  0.4659890000000  0.4829210000000 1.0
C      1  0.5045320000000  0.4912790000000  0.4306590000000 1.0
C      1  0.5027330000000  0.4894960000000  0.5685910000000 1.0
C      1  0.4874590000000  0.4493470000000  0.5418640000000 1.0
C      1  0.4867040000000  0.4521720000000  0.4546450000000 1.0
C      1  0.4800220000000  0.5330110000000  0.5583000000000 1.0
C      1  0.4807020000000  0.5342470000000  0.4416190000000 1.0
C      1  0.5041070000000  0.4632440000000  0.4353450000000 1.0
C      1  0.5010170000000  0.4618290000000  0.5631330000000 1.0
C      1  0.4330850000000  0.4661350000000  0.5305440000000 1.0
C      1  0.4425490000000  0.4616640000000  0.4732350000000 1.0
C      1  0.4726550000000  0.4963470000000  0.4689490000000 1.0
C      1  0.4717800000000  0.4956610000000  0.5299700000000 1.0
C      1  0.4852800000000  0.4701880000000  0.4798200000000 1.0
C      1  0.4860690000000  0.4696630000000  0.5190870000000 1.0
C      1  0.5267310000000  0.5044160000000  0.5594740000000 1.0
C      1  0.5280710000000  0.5067720000000  0.4398770000000 1.0
C      1  0.4945210000000  0.4277700000000  0.4702800000000 1.0
C      1  0.5000110000000  0.4247270000000  0.5301870000000 1.0
C      1  0.4708260000000  0.5640210000000  0.5190310000000 1.0
C      1  0.4708320000000  0.5644530000000  0.4813240000000 1.0
C      1  0.4976420000000  0.5755290000000  0.5158810000000 1.0
C      1  0.4975980000000  0.5758210000000  0.4855630000000 1.0
C      1  0.5215700000000  0.5562040000000  0.4839800000000 1.0
C      1  0.5215350000000  0.5557240000000  0.5170230000000 1.0
C      1  0.5501470000000  0.4883870000000  0.5507800000000 1.0
C      1  0.5516230000000  0.4908230000000  0.4484170000000 1.0
C      1  0.5056120000000  0.5457010000000  0.5609110000000 1.0
C      1  0.5060670000000  0.5475520000000  0.4398030000000 1.0
C      1  0.4280530000000  0.5086440000000  0.5113350000000 1.0
C      1  0.4274310000000  0.5055230000000  0.4847710000000 1.0
C      1  0.5376940000000  0.5129330000000  0.4846100000000 1.0
C      1  0.5373760000000  0.5122720000000  0.5152650000000 1.0
END
