TITL C-8695-8180-240 -2.58239799875684e-05 125000 -359.369355699743 0 0 60 (C1) n - 1
REM
REM in /home/bkarasulu/CARBON/AIRSS/Generating-Clusters/EDIP-Nigel-Params/Higher-Symm/Box-15A/Only-C60/SD-CG/HFTN-CG
REM
REM
REM
REM
REM
REM ./C.cell (414f73aa93bd7a1190c7fd0f31ff2f98)
REM
REM compiler GCC version 9.2.1 20190827 (Red Hat 9.2.1-1)
REM options -cpp -mtune=generic -march=x86-64 -g -O0 -fpre-include=/usr/include/finclude/math-vector-fortran.h
REM seed 51912203 962187219 986806 409775418 2139951441 -1469537447 -2132318982 -1006861293 469303442 544955442 -845539656 1730082852 -595435014 317495930 710013547 -1908483994 -1372155086 1503192867 1243012746 65192351 -1944501609 796712093 561847719 1803058679 180307428 -1378438656 68093625 345289935 -1278291551 1013664680 2141010629 185099811 -791644189
REM
CELL 1.54180   50.00000   50.00000   50.00000   90.00000   90.00000   90.00000
LATT -1
SFAC C  
C      1  0.4981510000000  0.4838110000000  0.5740250000000 1.0
C      1  0.5063860000000  0.4769890000000  0.4315110000000 1.0
C      1  0.5166880000000  0.5302640000000  0.5595620000000 1.0
C      1  0.4870630000000  0.5258440000000  0.4374680000000 1.0
C      1  0.4789730000000  0.5100690000000  0.5429950000000 1.0
C      1  0.5244570000000  0.5086550000000  0.4582850000000 1.0
C      1  0.5272910000000  0.4326480000000  0.5274880000000 1.0
C      1  0.4583470000000  0.4207280000000  0.4883510000000 1.0
C      1  0.5006450000000  0.5040850000000  0.4785060000000 1.0
C      1  0.5069950000000  0.5000830000000  0.5258860000000 1.0
C      1  0.5307640000000  0.5736850000000  0.5426920000000 1.0
C      1  0.4757660000000  0.5700110000000  0.4528660000000 1.0
C      1  0.5223620000000  0.4454180000000  0.4665350000000 1.0
C      1  0.4833490000000  0.4470300000000  0.5440720000000 1.0
C      1  0.5104270000000  0.5080660000000  0.4314840000000 1.0
C      1  0.4933480000000  0.5140490000000  0.5691240000000 1.0
C      1  0.5521790000000  0.4965860000000  0.5554070000000 1.0
C      1  0.4561270000000  0.4957230000000  0.4587190000000 1.0
C      1  0.4480780000000  0.5009060000000  0.5050520000000 1.0
C      1  0.5611770000000  0.5065420000000  0.4975930000000 1.0
C      1  0.5502860000000  0.5333400000000  0.5234270000000 1.0
C      1  0.4640220000000  0.5387890000000  0.4820640000000 1.0
C      1  0.5336600000000  0.5138020000000  0.5410700000000 1.0
C      1  0.4754390000000  0.5162060000000  0.4643200000000 1.0
C      1  0.4795330000000  0.5617960000000  0.5381300000000 1.0
C      1  0.5219590000000  0.5584240000000  0.4562610000000 1.0
C      1  0.5462380000000  0.4735070000000  0.5684790000000 1.0
C      1  0.4570440000000  0.4734440000000  0.4436520000000 1.0
C      1  0.4740960000000  0.4683930000000  0.5634840000000 1.0
C      1  0.5309200000000  0.4645070000000  0.4447060000000 1.0
C      1  0.4748660000000  0.5831250000000  0.5189250000000 1.0
C      1  0.5186870000000  0.5800750000000  0.4757950000000 1.0
C      1  0.5448250000000  0.4868830000000  0.4578660000000 1.0
C      1  0.4592790000000  0.4879020000000  0.5471790000000 1.0
C      1  0.5362790000000  0.4365810000000  0.5022300000000 1.0
C      1  0.4667390000000  0.4316200000000  0.5122950000000 1.0
C      1  0.5291030000000  0.4621090000000  0.4916270000000 1.0
C      1  0.4759550000000  0.4596070000000  0.5157180000000 1.0
C      1  0.4513400000000  0.5289240000000  0.5066960000000 1.0
C      1  0.5570300000000  0.5322230000000  0.4855450000000 1.0
C      1  0.4960160000000  0.5542520000000  0.4414660000000 1.0
C      1  0.5093900000000  0.5536700000000  0.5398080000000 1.0
C      1  0.5529490000000  0.5600970000000  0.5338080000000 1.0
C      1  0.4579960000000  0.5645020000000  0.4724050000000 1.0
C      1  0.4643160000000  0.5356620000000  0.5333300000000 1.0
C      1  0.5376300000000  0.5343370000000  0.4641600000000 1.0
C      1  0.5198960000000  0.4717010000000  0.5574810000000 1.0
C      1  0.4832140000000  0.4635030000000  0.4447180000000 1.0
C      1  0.5125560000000  0.4452240000000  0.5471030000000 1.0
C      1  0.4929730000000  0.4441000000000  0.4643440000000 1.0
C      1  0.4528190000000  0.4782610000000  0.5206670000000 1.0
C      1  0.5529370000000  0.4813670000000  0.4852870000000 1.0
C      1  0.5025390000000  0.4749820000000  0.5034600000000 1.0
C      1  0.4966040000000  0.5941520000000  0.5041700000000 1.0
C      1  0.4991820000000  0.3994780000000  0.4794110000000 1.0
C      1  0.4969430000000  0.5663920000000  0.4917300000000 1.0
C      1  0.5149910000000  0.3794770000000  0.4821580000000 1.0
C      1  0.5103550000000  0.5464020000000  0.5100400000000 1.0
C      1  0.5049240000000  0.5189320000000  0.5039110000000 1.0
C      1  0.4809780000000  0.4189960000000  0.4722430000000 1.0
END
