TITL C-8696-5006-177 -9.10771228312849e-07 125000 -369.680820490708 0 0 60 (C1) n - 1
REM
REM in /home/bkarasulu/CARBON/AIRSS/Generating-Clusters/EDIP-Nigel-Params/Higher-Symm/Box-15A/Only-C60/SD-CG/HFTN-CG
REM
REM
REM
REM
REM
REM ./C.cell (414f73aa93bd7a1190c7fd0f31ff2f98)
REM
REM compiler GCC version 9.2.1 20190827 (Red Hat 9.2.1-1)
REM options -cpp -mtune=generic -march=x86-64 -g -O0 -fpre-include=/usr/include/finclude/math-vector-fortran.h
REM seed 1216273073 118908368 1752439171 364090424 1412454584 -495193691 1989273029 -318550873 843330554 -1802500103 452712105 1543351375 -388126371 1969678546 -742512910 1567205435 -2012722305 -1105914302 344863691 -980168078 1038097861 1081123068 -1049429752 -526096019 -1111150946 1572628222 -1320560166 -791889769 1000048746 303551212 -1798748994 -104857164 611455602
REM
CELL 1.54180   50.00000   50.00000   50.00000   90.00000   90.00000   90.00000
LATT -1
SFAC C  
C      1  0.4806820000000  0.4859650000000  0.5726810000000 1.0
C      1  0.4819670000000  0.4422470000000  0.4569820000000 1.0
C      1  0.4864820000000  0.5734370000000  0.4742620000000 1.0
C      1  0.4798810000000  0.4863170000000  0.4286710000000 1.0
C      1  0.4826270000000  0.4413680000000  0.5448870000000 1.0
C      1  0.4857850000000  0.5727080000000  0.5248310000000 1.0
C      1  0.4438820000000  0.4682980000000  0.5150500000000 1.0
C      1  0.4485740000000  0.5030580000000  0.4711970000000 1.0
C      1  0.4484570000000  0.5286600000000  0.5158480000000 1.0
C      1  0.4456530000000  0.4685940000000  0.4862700000000 1.0
C      1  0.4475550000000  0.5031120000000  0.5300340000000 1.0
C      1  0.4493750000000  0.5287890000000  0.4852930000000 1.0
C      1  0.5141570000000  0.5713410000000  0.5144880000000 1.0
C      1  0.5103490000000  0.4506580000000  0.5538820000000 1.0
C      1  0.5081480000000  0.4758450000000  0.4309020000000 1.0
C      1  0.5145880000000  0.5718020000000  0.4852560000000 1.0
C      1  0.5088150000000  0.4497790000000  0.4453890000000 1.0
C      1  0.5091820000000  0.4761300000000  0.5689680000000 1.0
C      1  0.5504320000000  0.4754850000000  0.4849440000000 1.0
C      1  0.5467720000000  0.5266210000000  0.4848560000000 1.0
C      1  0.5465570000000  0.5001340000000  0.5310200000000 1.0
C      1  0.5498590000000  0.4745390000000  0.5164320000000 1.0
C      1  0.5462910000000  0.5260990000000  0.5149110000000 1.0
C      1  0.5471500000000  0.5010030000000  0.4693170000000 1.0
C      1  0.5114500000000  0.4761380000000  0.4854440000000 1.0
C      1  0.5007310000000  0.5271390000000  0.4838570000000 1.0
C      1  0.4990170000000  0.4983690000000  0.5295540000000 1.0
C      1  0.5057090000000  0.4736310000000  0.5131930000000 1.0
C      1  0.5002150000000  0.5262820000000  0.5151740000000 1.0
C      1  0.5006300000000  0.5001200000000  0.4694710000000 1.0
C      1  0.4868360000000  0.5787950000000  0.4469360000000 1.0
C      1  0.4797020000000  0.5086520000000  0.5887730000000 1.0
C      1  0.4835790000000  0.4183840000000  0.4713220000000 1.0
C      1  0.4855490000000  0.5774010000000  0.5522650000000 1.0
C      1  0.4795440000000  0.5094860000000  0.4132770000000 1.0
C      1  0.4840260000000  0.4178010000000  0.5299590000000 1.0
C      1  0.4987680000000  0.5293690000000  0.4138940000000 1.0
C      1  0.5021940000000  0.5622610000000  0.5683720000000 1.0
C      1  0.5061930000000  0.4075030000000  0.5161230000000 1.0
C      1  0.4982160000000  0.5289240000000  0.5857750000000 1.0
C      1  0.5029030000000  0.5627220000000  0.4311140000000 1.0
C      1  0.5055390000000  0.4067110000000  0.4843630000000 1.0
C      1  0.4756310000000  0.5444560000000  0.5173150000000 1.0
C      1  0.4672880000000  0.4636240000000  0.5323870000000 1.0
C      1  0.4739280000000  0.4908340000000  0.4584160000000 1.0
C      1  0.4759410000000  0.5449740000000  0.4805230000000 1.0
C      1  0.4709230000000  0.4648750000000  0.4716440000000 1.0
C      1  0.4726530000000  0.4905740000000  0.5432710000000 1.0
C      1  0.5303980000000  0.4256560000000  0.4840480000000 1.0
C      1  0.5249780000000  0.5480950000000  0.4441910000000 1.0
C      1  0.5216210000000  0.5226130000000  0.5691980000000 1.0
C      1  0.5302040000000  0.4275730000000  0.5143370000000 1.0
C      1  0.5242040000000  0.5474840000000  0.5552250000000 1.0
C      1  0.5228960000000  0.5233460000000  0.4296160000000 1.0
C      1  0.5228910000000  0.4992830000000  0.4474060000000 1.0
C      1  0.5234600000000  0.5439800000000  0.5253250000000 1.0
C      1  0.5259800000000  0.4554630000000  0.5264700000000 1.0
C      1  0.5215060000000  0.4986350000000  0.5511830000000 1.0
C      1  0.5241650000000  0.5446590000000  0.4742370000000 1.0
C      1  0.5273080000000  0.4522010000000  0.4699700000000 1.0
END
