TITL C-8694-7203-7 -1.45498414080817e-06 125000 -376.623362016591 0 0 60 (C1) n - 1
REM
REM in /home/bkarasulu/CARBON/AIRSS/Generating-Clusters/EDIP-Nigel-Params/Higher-Symm/Box-15A/Only-C60/SD-CG/HFTN-CG
REM
REM
REM
REM
REM
REM ./C.cell (414f73aa93bd7a1190c7fd0f31ff2f98)
REM
REM compiler GCC version 9.2.1 20190827 (Red Hat 9.2.1-1)
REM options -cpp -mtune=generic -march=x86-64 -g -O0 -fpre-include=/usr/include/finclude/math-vector-fortran.h
REM seed -1489413369 -541007604 801955960 -132374835 -92159661 -1883190383 1577971307 444397766 2010101897 -2062150915 -1375132868 -705684569 -1508636180 97433005 691156380 1822665760 -361629864 873661992 1843166914 -587439894 2011008286 -1003676548 -1192615019 1719288347 1614173111 1040088993 1736696375 827218925 -657820169 -61431313 -1298277452 872131402 -76103537
REM
CELL 1.54180   50.00000   50.00000   50.00000   90.00000   90.00000   90.00000
LATT -1
SFAC C  
C      1  0.5597700000000  0.5115170000000  0.4848150000000 1.0
C      1  0.4426520000000  0.4871190000000  0.5149890000000 1.0
C      1  0.5569270000000  0.4572210000000  0.4739030000000 1.0
C      1  0.4419250000000  0.5451630000000  0.5277240000000 1.0
C      1  0.4423700000000  0.4942920000000  0.5438130000000 1.0
C      1  0.5575100000000  0.5039320000000  0.4560750000000 1.0
C      1  0.4871270000000  0.4828820000000  0.5147840000000 1.0
C      1  0.5109120000000  0.5108350000000  0.4856060000000 1.0
C      1  0.5758050000000  0.4645770000000  0.4933600000000 1.0
C      1  0.4317530000000  0.5325360000000  0.5035000000000 1.0
C      1  0.4905210000000  0.4229910000000  0.4856570000000 1.0
C      1  0.5097960000000  0.5772200000000  0.5145660000000 1.0
C      1  0.4620920000000  0.4414050000000  0.5229670000000 1.0
C      1  0.5368300000000  0.5543550000000  0.4775470000000 1.0
C      1  0.5162950000000  0.5112820000000  0.5738990000000 1.0
C      1  0.4792000000000  0.4899260000000  0.4252110000000 1.0
C      1  0.4884330000000  0.5249630000000  0.5015890000000 1.0
C      1  0.5085570000000  0.4803800000000  0.4948490000000 1.0
C      1  0.5498560000000  0.5193560000000  0.5404400000000 1.0
C      1  0.4484160000000  0.4836430000000  0.4611070000000 1.0
C      1  0.4800940000000  0.5175760000000  0.4177980000000 1.0
C      1  0.5177130000000  0.4838430000000  0.5818580000000 1.0
C      1  0.5035080000000  0.5558290000000  0.4442340000000 1.0
C      1  0.4976560000000  0.4432030000000  0.5556400000000 1.0
C      1  0.4917490000000  0.5619480000000  0.5298320000000 1.0
C      1  0.5077410000000  0.4392240000000  0.4703250000000 1.0
C      1  0.5349820000000  0.5189820000000  0.4429220000000 1.0
C      1  0.4645550000000  0.4787710000000  0.5573420000000 1.0
C      1  0.4873580000000  0.5296620000000  0.4435060000000 1.0
C      1  0.5123050000000  0.4705670000000  0.5563070000000 1.0
C      1  0.5410630000000  0.5218590000000  0.5671140000000 1.0
C      1  0.4540700000000  0.4812700000000  0.4337260000000 1.0
C      1  0.5327340000000  0.5488280000000  0.4482830000000 1.0
C      1  0.4675630000000  0.4483370000000  0.5522550000000 1.0
C      1  0.5071310000000  0.4314010000000  0.5296350000000 1.0
C      1  0.4947190000000  0.5682290000000  0.4701970000000 1.0
C      1  0.5540020000000  0.4915000000000  0.5296460000000 1.0
C      1  0.4450660000000  0.5124480000000  0.4723600000000 1.0
C      1  0.5365120000000  0.4688970000000  0.5376230000000 1.0
C      1  0.4634440000000  0.5334720000000  0.4616900000000 1.0
C      1  0.5363370000000  0.5281010000000  0.4928990000000 1.0
C      1  0.4631930000000  0.4676220000000  0.5072910000000 1.0
C      1  0.4651510000000  0.4650050000000  0.4772000000000 1.0
C      1  0.5328560000000  0.5346220000000  0.5219110000000 1.0
C      1  0.4839720000000  0.4228780000000  0.5132960000000 1.0
C      1  0.5174680000000  0.5754180000000  0.4872080000000 1.0
C      1  0.4451500000000  0.5229420000000  0.5454520000000 1.0
C      1  0.5555820000000  0.4757030000000  0.4526790000000 1.0
C      1  0.4949290000000  0.4664400000000  0.4700850000000 1.0
C      1  0.5027060000000  0.5343430000000  0.5282490000000 1.0
C      1  0.5004500000000  0.4835120000000  0.4452310000000 1.0
C      1  0.4963920000000  0.5158910000000  0.5519950000000 1.0
C      1  0.5252350000000  0.4516600000000  0.5154440000000 1.0
C      1  0.4755380000000  0.5490630000000  0.4845910000000 1.0
C      1  0.5327230000000  0.4445020000000  0.4859430000000 1.0
C      1  0.4647850000000  0.5614400000000  0.5188740000000 1.0
C      1  0.4520300000000  0.5116860000000  0.5011430000000 1.0
C      1  0.5662070000000  0.4894370000000  0.5029690000000 1.0
C      1  0.4901640000000  0.4878880000000  0.5440960000000 1.0
C      1  0.5084180000000  0.5104060000000  0.4547510000000 1.0
END
