TITL C-8692-4986-222 1.3143171416697e-05 125000 -353.055389426013 0 0 60 (C1) n - 1
REM
REM in /home/bkarasulu/CARBON/AIRSS/Generating-Clusters/EDIP-Nigel-Params/Higher-Symm/Box-15A/Only-C60/SD-CG/HFTN-CG
REM
REM
REM
REM
REM
REM ./C.cell (414f73aa93bd7a1190c7fd0f31ff2f98)
REM
REM compiler GCC version 9.2.1 20190827 (Red Hat 9.2.1-1)
REM options -cpp -mtune=generic -march=x86-64 -g -O0 -fpre-include=/usr/include/finclude/math-vector-fortran.h
REM seed -722121998 520983045 366697751 -1845807936 -1077867960 548663314 520247693 -1095383611 647319344 -743933228 -825428074 -1663713968 1397571940 -89070332 -1446631165 -1050149521 1090577287 -150061506 477540482 -701133185 638599830 390871597 -622697172 -628851558 1745616728 -1862660889 -36670992 353330989 -551563377 -1607997489 -62093519 665979230 -568110256
REM
CELL 1.54180   50.00000   50.00000   50.00000   90.00000   90.00000   90.00000
LATT -1
SFAC C  
C      1  0.4877390000000  0.5876520000000  0.4962370000000 1.0
C      1  0.5086570000000  0.4529600000000  0.4373520000000 1.0
C      1  0.4943280000000  0.4522620000000  0.5546270000000 1.0
C      1  0.5545170000000  0.5337730000000  0.4584970000000 1.0
C      1  0.5520560000000  0.4514730000000  0.4899940000000 1.0
C      1  0.5522170000000  0.5445240000000  0.5458280000000 1.0
C      1  0.5797540000000  0.4303260000000  0.4739870000000 1.0
C      1  0.5587400000000  0.5072660000000  0.5397010000000 1.0
C      1  0.5681620000000  0.5563230000000  0.4850990000000 1.0
C      1  0.5140980000000  0.4807110000000  0.4321250000000 1.0
C      1  0.4901960000000  0.4369150000000  0.5305940000000 1.0
C      1  0.4872230000000  0.5742010000000  0.5215880000000 1.0
C      1  0.4827670000000  0.4475340000000  0.4454910000000 1.0
C      1  0.4739270000000  0.4692560000000  0.5625550000000 1.0
C      1  0.4679610000000  0.5809580000000  0.4778080000000 1.0
C      1  0.4465190000000  0.5120180000000  0.4457110000000 1.0
C      1  0.4219650000000  0.4422790000000  0.4988550000000 1.0
C      1  0.4355800000000  0.5417810000000  0.5628890000000 1.0
C      1  0.5376480000000  0.5978670000000  0.4847810000000 1.0
C      1  0.5495040000000  0.4208190000000  0.4341100000000 1.0
C      1  0.5429580000000  0.4664450000000  0.5668210000000 1.0
C      1  0.4335040000000  0.5334990000000  0.5899600000000 1.0
C      1  0.4280060000000  0.4938920000000  0.4552180000000 1.0
C      1  0.4004220000000  0.4359770000000  0.5161950000000 1.0
C      1  0.5574490000000  0.4864300000000  0.5572790000000 1.0
C      1  0.5589790000000  0.5821400000000  0.4842110000000 1.0
C      1  0.5701670000000  0.4196860000000  0.4507060000000 1.0
C      1  0.4592910000000  0.5401810000000  0.5466570000000 1.0
C      1  0.4746840000000  0.5116050000000  0.4506590000000 1.0
C      1  0.4464490000000  0.4544280000000  0.5077560000000 1.0
C      1  0.5109030000000  0.4797850000000  0.4897380000000 1.0
C      1  0.5162680000000  0.5181630000000  0.5233160000000 1.0
C      1  0.5241550000000  0.5068780000000  0.4869990000000 1.0
C      1  0.4850380000000  0.4845040000000  0.5020730000000 1.0
C      1  0.4872890000000  0.5119800000000  0.5145560000000 1.0
C      1  0.5044080000000  0.5303050000000  0.4847180000000 1.0
C      1  0.5664090000000  0.4293030000000  0.4981900000000 1.0
C      1  0.5751060000000  0.5291440000000  0.5431170000000 1.0
C      1  0.5802380000000  0.5432470000000  0.4636360000000 1.0
C      1  0.4914690000000  0.4964700000000  0.4345560000000 1.0
C      1  0.4642980000000  0.4377480000000  0.5207530000000 1.0
C      1  0.4641850000000  0.5615110000000  0.5298600000000 1.0
C      1  0.4412000000000  0.4940850000000  0.4795700000000 1.0
C      1  0.3969440000000  0.4556280000000  0.4980630000000 1.0
C      1  0.4318950000000  0.5598570000000  0.5844580000000 1.0
C      1  0.5195940000000  0.4539770000000  0.5655290000000 1.0
C      1  0.5113640000000  0.5993980000000  0.4881300000000 1.0
C      1  0.5264530000000  0.4332590000000  0.4300680000000 1.0
C      1  0.4678070000000  0.5562300000000  0.4671890000000 1.0
C      1  0.4674830000000  0.4570180000000  0.4654060000000 1.0
C      1  0.4639150000000  0.4923370000000  0.5535610000000 1.0
C      1  0.5255220000000  0.4564020000000  0.4989360000000 1.0
C      1  0.5265480000000  0.5431980000000  0.5334560000000 1.0
C      1  0.5441440000000  0.5077340000000  0.4642790000000 1.0
C      1  0.5109360000000  0.5659800000000  0.5330670000000 1.0
C      1  0.5373320000000  0.4921080000000  0.4422310000000 1.0
C      1  0.5111220000000  0.4365910000000  0.5121780000000 1.0
C      1  0.4853190000000  0.5349440000000  0.4636690000000 1.0
C      1  0.4599770000000  0.4727240000000  0.4883550000000 1.0
C      1  0.4672130000000  0.5143090000000  0.5370510000000 1.0
END
