TITL C-8699-7882-208 2.49254968258188e-06 125000 -363.929487215161 0 0 60 (C1) n - 1
REM
REM in /home/bkarasulu/CARBON/AIRSS/Generating-Clusters/EDIP-Nigel-Params/Higher-Symm/Box-15A/Only-C60/SD-CG/HFTN-CG
REM
REM
REM
REM
REM
REM ./C.cell (414f73aa93bd7a1190c7fd0f31ff2f98)
REM
REM compiler GCC version 9.2.1 20190827 (Red Hat 9.2.1-1)
REM options -cpp -mtune=generic -march=x86-64 -g -O0 -fpre-include=/usr/include/finclude/math-vector-fortran.h
REM seed 1920194138 -54695042 755243279 979222511 487937343 1894050673 1431900128 28493998 -1202673693 1478760659 -556891250 -298905100 -1369709211 -1445146043 2007104915 -1391136061 1394180773 503663805 672833756 897310643 -151350004 -1508999570 1741307887 -2015690525 508789521 216809814 -1416960184 -1131445743 524051915 -1506175757 -197800947 694926241 2101816633
REM
CELL 1.54180   50.00000   50.00000   50.00000   90.00000   90.00000   90.00000
LATT -1
SFAC C  
C      1  0.4408980000000  0.5212060000000  0.4520670000000 1.0
C      1  0.5625300000000  0.4821360000000  0.5407820000000 1.0
C      1  0.4920890000000  0.5601560000000  0.5240180000000 1.0
C      1  0.5056370000000  0.4328730000000  0.4758310000000 1.0
C      1  0.4456330000000  0.4779970000000  0.4732560000000 1.0
C      1  0.5547270000000  0.5237500000000  0.5197240000000 1.0
C      1  0.5309540000000  0.5359560000000  0.4478210000000 1.0
C      1  0.4776760000000  0.4653130000000  0.5606710000000 1.0
C      1  0.5037320000000  0.4782810000000  0.5214360000000 1.0
C      1  0.4866930000000  0.5160490000000  0.4827730000000 1.0
C      1  0.5088220000000  0.5752450000000  0.4739550000000 1.0
C      1  0.4940400000000  0.4296060000000  0.5273150000000 1.0
C      1  0.5114930000000  0.5009280000000  0.4797800000000 1.0
C      1  0.4895170000000  0.5025840000000  0.5294550000000 1.0
C      1  0.5216930000000  0.4684500000000  0.5443430000000 1.0
C      1  0.4812430000000  0.5348210000000  0.4596530000000 1.0
C      1  0.5025430000000  0.5316660000000  0.4380090000000 1.0
C      1  0.5059310000000  0.4706970000000  0.5694720000000 1.0
C      1  0.4323510000000  0.5426030000000  0.5034350000000 1.0
C      1  0.5613850000000  0.4565790000000  0.4941520000000 1.0
C      1  0.4422400000000  0.4837030000000  0.5216300000000 1.0
C      1  0.5556220000000  0.5113970000000  0.4636730000000 1.0
C      1  0.4581460000000  0.4976480000000  0.4543730000000 1.0
C      1  0.5454280000000  0.5057240000000  0.5420750000000 1.0
C      1  0.4317330000000  0.4928270000000  0.4955910000000 1.0
C      1  0.5631180000000  0.5081150000000  0.4934780000000 1.0
C      1  0.4434640000000  0.5192370000000  0.4896740000000 1.0
C      1  0.5516500000000  0.4822680000000  0.5053740000000 1.0
C      1  0.5400580000000  0.4410110000000  0.5374980000000 1.0
C      1  0.4596880000000  0.5627680000000  0.4662330000000 1.0
C      1  0.5073660000000  0.4991690000000  0.5757280000000 1.0
C      1  0.4977190000000  0.5058900000000  0.4248470000000 1.0
C      1  0.5521050000000  0.4543060000000  0.4660500000000 1.0
C      1  0.4452340000000  0.5359240000000  0.5300880000000 1.0
C      1  0.5497870000000  0.4813870000000  0.4513970000000 1.0
C      1  0.4471480000000  0.5059210000000  0.5413890000000 1.0
C      1  0.4485630000000  0.5474370000000  0.4444250000000 1.0
C      1  0.5573380000000  0.4574120000000  0.5540080000000 1.0
C      1  0.4746720000000  0.4482810000000  0.5355980000000 1.0
C      1  0.5334870000000  0.5601190000000  0.4651500000000 1.0
C      1  0.4748160000000  0.4977380000000  0.5548330000000 1.0
C      1  0.5217670000000  0.4951290000000  0.4528100000000 1.0
C      1  0.5359400000000  0.5452080000000  0.5150520000000 1.0
C      1  0.4639200000000  0.4583610000000  0.4853430000000 1.0
C      1  0.4669400000000  0.4675120000000  0.5141750000000 1.0
C      1  0.5212670000000  0.5424410000000  0.4895740000000 1.0
C      1  0.4674730000000  0.5537280000000  0.5358590000000 1.0
C      1  0.5306170000000  0.4357240000000  0.4636600000000 1.0
C      1  0.4432880000000  0.5640810000000  0.4891280000000 1.0
C      1  0.5516690000000  0.4367510000000  0.5119660000000 1.0
C      1  0.5221180000000  0.5435240000000  0.5626110000000 1.0
C      1  0.4843560000000  0.4614370000000  0.4407990000000 1.0
C      1  0.5282940000000  0.5160370000000  0.5642480000000 1.0
C      1  0.4766870000000  0.4876740000000  0.4339430000000 1.0
C      1  0.4856290000000  0.4515560000000  0.4671200000000 1.0
C      1  0.5159370000000  0.5478930000000  0.5355960000000 1.0
C      1  0.4935260000000  0.5583370000000  0.4942600000000 1.0
C      1  0.5038340000000  0.4246930000000  0.5025210000000 1.0
C      1  0.5216120000000  0.4833100000000  0.4997170000000 1.0
C      1  0.4761580000000  0.5214260000000  0.5105550000000 1.0
END
