TITL C-8691-6797-220 1.56125619614453e-07 125000 -363.45806169101 0 0 60 (C3i) n - 1
REM
REM in /home/bkarasulu/CARBON/AIRSS/Generating-Clusters/EDIP-Nigel-Params/Higher-Symm/Box-15A/Only-C60/SD-CG/HFTN-CG
REM
REM
REM
REM
REM
REM ./C.cell (414f73aa93bd7a1190c7fd0f31ff2f98)
REM
REM compiler GCC version 9.2.1 20190827 (Red Hat 9.2.1-1)
REM options -cpp -mtune=generic -march=x86-64 -g -O0 -fpre-include=/usr/include/finclude/math-vector-fortran.h
REM seed 110008638 878435573 -1619331969 1899333925 -648745439 -139694590 -1473888280 -351146521 -197426123 -481931661 1763093431 361499842 -140696731 305243763 455644010 -233409260 -1060134262 -841419756 455594935 1420391641 -543961917 569089103 2106525750 -319714066 2058153200 903767253 -1954212921 -173514587 2064775993 -951535428 1757772468 670874397 -275051386
REM
CELL 1.54180   50.00000   50.00000   50.00000   90.00000   90.00000   90.00000
LATT -1
SFAC C  
C      1  0.5589210000000  0.5004280000000  0.4575620000000 1.0
C      1  0.4927030000000  0.4997150000000  0.4277540000000 1.0
C      1  0.4337910000000  0.5010480000000  0.4701980000000 1.0
C      1  0.4410790000000  0.4995720000000  0.5424380000000 1.0
C      1  0.5072970000000  0.5002850000000  0.5722460000000 1.0
C      1  0.5662090000000  0.4989520000000  0.5298020000000 1.0
C      1  0.4463220000000  0.5433650000000  0.4999370000000 1.0
C      1  0.4726260000000  0.4568980000000  0.5464190000000 1.0
C      1  0.5269920000000  0.5427640000000  0.5469520000000 1.0
C      1  0.5536780000000  0.4566350000000  0.5000630000000 1.0
C      1  0.5273740000000  0.5431020000000  0.4535810000000 1.0
C      1  0.4730080000000  0.4572360000000  0.4530480000000 1.0
C      1  0.4807180000000  0.5066920000000  0.4789620000000 1.0
C      1  0.4720670000000  0.4936140000000  0.5061750000000 1.0
C      1  0.4914530000000  0.5064590000000  0.5272840000000 1.0
C      1  0.5192820000000  0.4933080000000  0.5210380000000 1.0
C      1  0.5279330000000  0.5063860000000  0.4938250000000 1.0
C      1  0.5085470000000  0.4935410000000  0.4727160000000 1.0
C      1  0.5184310000000  0.5345910000000  0.4961470000000 1.0
C      1  0.5054930000000  0.4653610000000  0.4820820000000 1.0
C      1  0.4876160000000  0.5347900000000  0.4863140000000 1.0
C      1  0.4815690000000  0.4654090000000  0.5038530000000 1.0
C      1  0.4945070000000  0.5346390000000  0.5179180000000 1.0
C      1  0.5123840000000  0.4652100000000  0.5136860000000 1.0
C      1  0.5444560000000  0.5594410000000  0.4701730000000 1.0
C      1  0.4957350000000  0.4406480000000  0.4465360000000 1.0
C      1  0.4522300000000  0.5599070000000  0.4770130000000 1.0
C      1  0.4555440000000  0.4405590000000  0.5298270000000 1.0
C      1  0.5042650000000  0.5593520000000  0.5534640000000 1.0
C      1  0.5477700000000  0.4400930000000  0.5229870000000 1.0
C      1  0.4981680000000  0.5493930000000  0.4459170000000 1.0
C      1  0.4516990000000  0.4511630000000  0.4745040000000 1.0
C      1  0.4543170000000  0.5493240000000  0.5291240000000 1.0
C      1  0.5018320000000  0.4506070000000  0.5540830000000 1.0
C      1  0.5483010000000  0.5488370000000  0.5254960000000 1.0
C      1  0.5456830000000  0.4506760000000  0.4708760000000 1.0
C      1  0.4692380000000  0.4828470000000  0.4385560000000 1.0
C      1  0.4316020000000  0.5179190000000  0.4959350000000 1.0
C      1  0.4620840000000  0.4824540000000  0.5571870000000 1.0
C      1  0.5307620000000  0.5171530000000  0.5614440000000 1.0
C      1  0.5683980000000  0.4820810000000  0.5040650000000 1.0
C      1  0.5379160000000  0.5175460000000  0.4428130000000 1.0
C      1  0.4603120000000  0.5065240000000  0.4561700000000 1.0
C      1  0.4421300000000  0.4941090000000  0.5124510000000 1.0
C      1  0.4819160000000  0.5060450000000  0.5563480000000 1.0
C      1  0.5396880000000  0.4934760000000  0.5438300000000 1.0
C      1  0.5578700000000  0.5058910000000  0.4875490000000 1.0
C      1  0.5180840000000  0.4939550000000  0.4436520000000 1.0
C      1  0.4833200000000  0.5273030000000  0.4332070000000 1.0
C      1  0.4335150000000  0.4734520000000  0.4810270000000 1.0
C      1  0.4506260000000  0.5270590000000  0.5481150000000 1.0
C      1  0.5166800000000  0.4726970000000  0.5667930000000 1.0
C      1  0.5664850000000  0.5265480000000  0.5189730000000 1.0
C      1  0.5493740000000  0.4729410000000  0.4518850000000 1.0
C      1  0.4803520000000  0.5602260000000  0.4703150000000 1.0
C      1  0.4637990000000  0.4401720000000  0.5021230000000 1.0
C      1  0.4844060000000  0.5599780000000  0.5324630000000 1.0
C      1  0.5196480000000  0.4397740000000  0.5296850000000 1.0
C      1  0.5362010000000  0.5598280000000  0.4978770000000 1.0
C      1  0.5155940000000  0.4400220000000  0.4675370000000 1.0
END
