TITL C-8698-8182-259 -1.92342931027688e-06 125000 -363.744813266677 0 0 60 (C1) n - 1
REM
REM in /home/bkarasulu/CARBON/AIRSS/Generating-Clusters/EDIP-Nigel-Params/Higher-Symm/Box-15A/Only-C60/SD-CG/HFTN-CG
REM
REM
REM
REM
REM
REM ./C.cell (414f73aa93bd7a1190c7fd0f31ff2f98)
REM
REM compiler GCC version 9.2.1 20190827 (Red Hat 9.2.1-1)
REM options -cpp -mtune=generic -march=x86-64 -g -O0 -fpre-include=/usr/include/finclude/math-vector-fortran.h
REM seed 1366778525 -579097450 1240755159 -2020270096 -1531920561 239131401 -1000371134 1614051557 -1563998553 88076765 -979991559 -1419277042 -1568764664 1357988601 1949390521 -835345146 -595756237 -2089402661 -260360960 -1946362300 -578477681 -893270257 430004014 -2129706852 -1203082987 514436933 1660449292 362423989 1403839609 -685397163 -1797184924 801501788 1769143176
REM
CELL 1.54180   50.00000   50.00000   50.00000   90.00000   90.00000   90.00000
LATT -1
SFAC C  
C      1  0.5248010000000  0.4401190000000  0.4778810000000 1.0
C      1  0.4717210000000  0.5022190000000  0.5572210000000 1.0
C      1  0.4773490000000  0.4522390000000  0.4457210000000 1.0
C      1  0.5411260000000  0.5753710000000  0.4953900000000 1.0
C      1  0.5164160000000  0.5301950000000  0.4814620000000 1.0
C      1  0.4370340000000  0.4541230000000  0.5119210000000 1.0
C      1  0.5226440000000  0.4883030000000  0.5058810000000 1.0
C      1  0.5052960000000  0.5601590000000  0.4338180000000 1.0
C      1  0.4619430000000  0.4748450000000  0.5511030000000 1.0
C      1  0.4821520000000  0.5443200000000  0.4373870000000 1.0
C      1  0.5652480000000  0.5010440000000  0.5458280000000 1.0
C      1  0.5234910000000  0.5704710000000  0.4522530000000 1.0
C      1  0.5418580000000  0.5372900000000  0.5303500000000 1.0
C      1  0.5266640000000  0.4456800000000  0.5496090000000 1.0
C      1  0.4647160000000  0.5514540000000  0.4616330000000 1.0
C      1  0.5011220000000  0.5392000000000  0.5479670000000 1.0
C      1  0.5677500000000  0.5120130000000  0.4983600000000 1.0
C      1  0.5436910000000  0.5279780000000  0.4644810000000 1.0
C      1  0.5131060000000  0.5186930000000  0.5123140000000 1.0
C      1  0.5511890000000  0.5664230000000  0.4684070000000 1.0
C      1  0.4320300000000  0.4593590000000  0.4844850000000 1.0
C      1  0.4376220000000  0.4803820000000  0.4662540000000 1.0
C      1  0.5044400000000  0.4575110000000  0.4389080000000 1.0
C      1  0.5098450000000  0.5602920000000  0.4778070000000 1.0
C      1  0.4604800000000  0.4950400000000  0.5047860000000 1.0
C      1  0.4796670000000  0.4741500000000  0.4941730000000 1.0
C      1  0.4805330000000  0.4438460000000  0.4945320000000 1.0
C      1  0.4674200000000  0.4276880000000  0.5400280000000 1.0
C      1  0.4885840000000  0.5156970000000  0.4416170000000 1.0
C      1  0.4590140000000  0.4756010000000  0.4451060000000 1.0
C      1  0.5650200000000  0.5212190000000  0.5266930000000 1.0
C      1  0.5197650000000  0.4962670000000  0.5681510000000 1.0
C      1  0.4739940000000  0.4349510000000  0.4676320000000 1.0
C      1  0.4787630000000  0.4512310000000  0.5498790000000 1.0
C      1  0.4993420000000  0.5116470000000  0.5537120000000 1.0
C      1  0.4773310000000  0.5188050000000  0.5167030000000 1.0
C      1  0.5207140000000  0.4539910000000  0.5219840000000 1.0
C      1  0.5449150000000  0.4855830000000  0.5568210000000 1.0
C      1  0.5685410000000  0.5333830000000  0.4788240000000 1.0
C      1  0.5494770000000  0.4581620000000  0.5612210000000 1.0
C      1  0.5029570000000  0.4862430000000  0.4824220000000 1.0
C      1  0.4773890000000  0.5630080000000  0.5115260000000 1.0
C      1  0.5264290000000  0.4588200000000  0.4569120000000 1.0
C      1  0.4494830000000  0.5162050000000  0.5425640000000 1.0
C      1  0.5026220000000  0.4504320000000  0.5664590000000 1.0
C      1  0.5095350000000  0.4371080000000  0.5011720000000 1.0
C      1  0.5427450000000  0.4837050000000  0.4627860000000 1.0
C      1  0.4435800000000  0.4807360000000  0.5273530000000 1.0
C      1  0.5466960000000  0.5058500000000  0.4456310000000 1.0
C      1  0.4591500000000  0.4342390000000  0.5139220000000 1.0
C      1  0.5298660000000  0.5592490000000  0.5168460000000 1.0
C      1  0.4961310000000  0.5123440000000  0.4699430000000 1.0
C      1  0.5491210000000  0.4887750000000  0.4916140000000 1.0
C      1  0.4813620000000  0.5667510000000  0.4820310000000 1.0
C      1  0.4421340000000  0.5051890000000  0.4824760000000 1.0
C      1  0.5068770000000  0.4745400000000  0.5805370000000 1.0
C      1  0.4690860000000  0.4981210000000  0.4319330000000 1.0
C      1  0.4476730000000  0.5301430000000  0.4701740000000 1.0
C      1  0.5025780000000  0.5588400000000  0.5275630000000 1.0
C      1  0.4577730000000  0.5427590000000  0.5178310000000 1.0
END
