TITL C-8696-5006-8 -6.43745813519798e-07 125000 -368.798482251195 0 0 60 (C1) n - 1
REM
REM in /home/bkarasulu/CARBON/AIRSS/Generating-Clusters/EDIP-Nigel-Params/Higher-Symm/Box-15A/Only-C60/SD-CG/HFTN-CG
REM
REM
REM
REM
REM
REM ./C.cell (414f73aa93bd7a1190c7fd0f31ff2f98)
REM
REM compiler GCC version 9.2.1 20190827 (Red Hat 9.2.1-1)
REM options -cpp -mtune=generic -march=x86-64 -g -O0 -fpre-include=/usr/include/finclude/math-vector-fortran.h
REM seed -1781562694 1762143484 123723454 -799291124 756642605 1823430921 874591940 -2011122556 -1135532631 -1848267220 156291483 560480276 804370577 -2014567781 366563014 1053886567 1743300687 15887755 -1632019524 -1505508649 1129627442 -532714827 -901264297 -1800181899 696455188 -2107424805 978392062 -1907440115 -1069938336 -1342137767 1906643498 1505953740 -1975449702
REM
CELL 1.54180   50.00000   50.00000   50.00000   90.00000   90.00000   90.00000
LATT -1
SFAC C  
C      1  0.4354690000000  0.4916010000000  0.5306480000000 1.0
C      1  0.5371090000000  0.4362640000000  0.5315950000000 1.0
C      1  0.5290900000000  0.5610600000000  0.5287270000000 1.0
C      1  0.5645950000000  0.4906390000000  0.4697930000000 1.0
C      1  0.4657300000000  0.4375880000000  0.4704360000000 1.0
C      1  0.4704230000000  0.5609120000000  0.4681480000000 1.0
C      1  0.4277570000000  0.4935470000000  0.5009400000000 1.0
C      1  0.5381730000000  0.4287610000000  0.5034210000000 1.0
C      1  0.5368610000000  0.5667900000000  0.4992220000000 1.0
C      1  0.5713810000000  0.4934760000000  0.4997850000000 1.0
C      1  0.4641160000000  0.4300850000000  0.4986310000000 1.0
C      1  0.4636990000000  0.5686850000000  0.4974120000000 1.0
C      1  0.4842780000000  0.4984110000000  0.5187580000000 1.0
C      1  0.5253650000000  0.4800140000000  0.5045220000000 1.0
C      1  0.4986580000000  0.5233760000000  0.5136920000000 1.0
C      1  0.5170590000000  0.4985220000000  0.4815800000000 1.0
C      1  0.4743550000000  0.4839540000000  0.4941000000000 1.0
C      1  0.5034700000000  0.5271840000000  0.4857790000000 1.0
C      1  0.4467290000000  0.4722760000000  0.4912090000000 1.0
C      1  0.5591440000000  0.4470670000000  0.4922510000000 1.0
C      1  0.5091720000000  0.5653690000000  0.4890900000000 1.0
C      1  0.5536070000000  0.4712950000000  0.5095740000000 1.0
C      1  0.4431340000000  0.4484310000000  0.5092010000000 1.0
C      1  0.4899100000000  0.5783100000000  0.5075190000000 1.0
C      1  0.4780570000000  0.5313120000000  0.4660370000000 1.0
C      1  0.4951840000000  0.4788720000000  0.4721980000000 1.0
C      1  0.5384790000000  0.5040490000000  0.4612060000000 1.0
C      1  0.5204950000000  0.5317870000000  0.5338100000000 1.0
C      1  0.5065830000000  0.4791590000000  0.5283950000000 1.0
C      1  0.4616670000000  0.5056630000000  0.5382620000000 1.0
C      1  0.5302770000000  0.4607420000000  0.4484350000000 1.0
C      1  0.5148990000000  0.5461260000000  0.4452440000000 1.0
C      1  0.4639500000000  0.4876300000000  0.4511420000000 1.0
C      1  0.4698090000000  0.4628340000000  0.5531370000000 1.0
C      1  0.4838890000000  0.5489940000000  0.5528500000000 1.0
C      1  0.5310520000000  0.4872800000000  0.5477880000000 1.0
C      1  0.4524470000000  0.5500300000000  0.5157260000000 1.0
C      1  0.4851160000000  0.4346160000000  0.5167980000000 1.0
C      1  0.5628270000000  0.5151930000000  0.5152180000000 1.0
C      1  0.5499440000000  0.5484040000000  0.4822020000000 1.0
C      1  0.5162620000000  0.4337210000000  0.4862950000000 1.0
C      1  0.4347690000000  0.5159660000000  0.4857560000000 1.0
C      1  0.5386120000000  0.5342710000000  0.4601510000000 1.0
C      1  0.4550300000000  0.5125400000000  0.4661300000000 1.0
C      1  0.5076020000000  0.4513720000000  0.4657250000000 1.0
C      1  0.4601470000000  0.5362550000000  0.5392610000000 1.0
C      1  0.5434920000000  0.5130630000000  0.5357680000000 1.0
C      1  0.4929800000000  0.4531920000000  0.5366710000000 1.0
C      1  0.4737320000000  0.4918190000000  0.5621550000000 1.0
C      1  0.5010470000000  0.5006840000000  0.5668990000000 1.0
C      1  0.5065040000000  0.5292510000000  0.5609180000000 1.0
C      1  0.5250540000000  0.4892510000000  0.4383710000000 1.0
C      1  0.4970720000000  0.4978360000000  0.4339600000000 1.0
C      1  0.4917940000000  0.5265450000000  0.4392150000000 1.0
C      1  0.5490640000000  0.4621100000000  0.5389720000000 1.0
C      1  0.4997440000000  0.5713450000000  0.5353590000000 1.0
C      1  0.4433430000000  0.4623180000000  0.5370010000000 1.0
C      1  0.4512280000000  0.4619720000000  0.4626700000000 1.0
C      1  0.5011940000000  0.5691380000000  0.4601970000000 1.0
C      1  0.5573710000000  0.4610400000000  0.4640440000000 1.0
END
