TITL C-8694-7203-19 -6.26710850640157e-07 125000 -352.284339559987 0 0 60 (D2) n - 1
REM
REM in /home/bkarasulu/CARBON/AIRSS/Generating-Clusters/EDIP-Nigel-Params/Higher-Symm/Box-15A/Only-C60/SD-CG/HFTN-CG
REM
REM
REM
REM
REM
REM ./C.cell (414f73aa93bd7a1190c7fd0f31ff2f98)
REM
REM compiler GCC version 9.2.1 20190827 (Red Hat 9.2.1-1)
REM options -cpp -mtune=generic -march=x86-64 -g -O0 -fpre-include=/usr/include/finclude/math-vector-fortran.h
REM seed -1262156701 244489088 354800030 -1772041755 858338216 -1470390487 -1151125563 1395296681 1255325586 -491035762 -2084711666 1573541109 1838546131 1176239133 621368117 -125983282 -1909662403 1201731315 -1480419988 200806781 1870803232 -829508900 -874951495 -1778164483 -1507407578 742983774 1892268286 1276104000 -950861314 -979396997 1083207193 -1785955360 1583594323
REM
CELL 1.54180   50.00000   50.00000   50.00000   90.00000   90.00000   90.00000
LATT -1
SFAC C  
C      1  0.5362650000000  0.5139350000000  0.4953720000000 1.0
C      1  0.5362650000000  0.4860650000000  0.5046280000000 1.0
C      1  0.4637350000000  0.4860650000000  0.4953720000000 1.0
C      1  0.4637350000000  0.5139350000000  0.5046280000000 1.0
C      1  0.5308310000000  0.4279980000000  0.5319540000000 1.0
C      1  0.5308300000000  0.5720020000000  0.4680460000000 1.0
C      1  0.4691690000000  0.5720020000000  0.5319540000000 1.0
C      1  0.4691700000000  0.4279980000000  0.4680460000000 1.0
C      1  0.4228120000000  0.4745110000000  0.5249760000000 1.0
C      1  0.4228120000000  0.5254890000000  0.4750240000000 1.0
C      1  0.5771880000000  0.5254890000000  0.5249760000000 1.0
C      1  0.5771880000000  0.4745110000000  0.4750240000000 1.0
C      1  0.5101850000000  0.4706210000000  0.5560130000000 1.0
C      1  0.5101850000000  0.5293790000000  0.4439870000000 1.0
C      1  0.4898150000000  0.5293790000000  0.5560130000000 1.0
C      1  0.4898150000000  0.4706210000000  0.4439870000000 1.0
C      1  0.5545020000000  0.4602090000000  0.4710390000000 1.0
C      1  0.5545020000000  0.5397920000000  0.5289610000000 1.0
C      1  0.4454980000000  0.5397910000000  0.4710390000000 1.0
C      1  0.4454980000000  0.4602080000000  0.5289610000000 1.0
C      1  0.5139960000000  0.4434990000000  0.4940130000000 1.0
C      1  0.5139960000000  0.5565010000000  0.5059870000000 1.0
C      1  0.4860040000000  0.5565010000000  0.4940130000000 1.0
C      1  0.4860040000000  0.4434990000000  0.5059870000000 1.0
C      1  0.4447870000000  0.4896410000000  0.4453010000000 1.0
C      1  0.4447870000000  0.5103580000000  0.5546990000000 1.0
C      1  0.5552130000000  0.5103590000000  0.4453010000000 1.0
C      1  0.5552130000000  0.4896420000000  0.5546990000000 1.0
C      1  0.5288560000000  0.4679110000000  0.4819950000000 1.0
C      1  0.5288560000000  0.5320890000000  0.5180050000000 1.0
C      1  0.4711440000000  0.5320890000000  0.4819950000000 1.0
C      1  0.4711440000000  0.4679110000000  0.5180050000000 1.0
C      1  0.5849030000000  0.5004640000000  0.5146350000000 1.0
C      1  0.5849030000000  0.4995360000000  0.4853650000000 1.0
C      1  0.4150970000000  0.4995360000000  0.5146350000000 1.0
C      1  0.4150970000000  0.5004640000000  0.4853650000000 1.0
C      1  0.4878070000000  0.4843690000000  0.5406400000000 1.0
C      1  0.4878070000000  0.5156310000000  0.4593600000000 1.0
C      1  0.5121930000000  0.5156310000000  0.5406400000000 1.0
C      1  0.5121930000000  0.4843690000000  0.4593600000000 1.0
C      1  0.4780220000000  0.5539180000000  0.5497570000000 1.0
C      1  0.4780220000000  0.4460820000000  0.4502430000000 1.0
C      1  0.5219780000000  0.4460820000000  0.5497570000000 1.0
C      1  0.5219780000000  0.5539180000000  0.4502430000000 1.0
C      1  0.5645570000000  0.4655240000000  0.5447570000000 1.0
C      1  0.5645570000000  0.5344770000000  0.4552430000000 1.0
C      1  0.4354430000000  0.5344760000000  0.5447570000000 1.0
C      1  0.4354430000000  0.4655230000000  0.4552430000000 1.0
C      1  0.4365150000000  0.5206980000000  0.5184940000000 1.0
C      1  0.4365150000000  0.4793020000000  0.4815060000000 1.0
C      1  0.5634850000000  0.4793020000000  0.5184940000000 1.0
C      1  0.5634850000000  0.5206980000000  0.4815060000000 1.0
C      1  0.5308300000000  0.5761470000000  0.4946970000000 1.0
C      1  0.5308300000000  0.4238530000000  0.5053030000000 1.0
C      1  0.4691700000000  0.4238530000000  0.4946970000000 1.0
C      1  0.4691700000000  0.5761470000000  0.5053030000000 1.0
C      1  0.4728230000000  0.5053220000000  0.5578420000000 1.0
C      1  0.4728230000000  0.4946780000000  0.4421580000000 1.0
C      1  0.5271770000000  0.4946780000000  0.5578420000000 1.0
C      1  0.5271770000000  0.5053220000000  0.4421580000000 1.0
END
