TITL C-8695-8180-196 -2.12016855749414e-06 125000 -354.880937923012 0 0 60 (C1) n - 1
REM
REM in /home/bkarasulu/CARBON/AIRSS/Generating-Clusters/EDIP-Nigel-Params/Higher-Symm/Box-15A/Only-C60/SD-CG/HFTN-CG
REM
REM
REM
REM
REM
REM ./C.cell (414f73aa93bd7a1190c7fd0f31ff2f98)
REM
REM compiler GCC version 9.2.1 20190827 (Red Hat 9.2.1-1)
REM options -cpp -mtune=generic -march=x86-64 -g -O0 -fpre-include=/usr/include/finclude/math-vector-fortran.h
REM seed 142185389 286153443 -1071369011 -1312637978 1102207622 -1018070459 -1279031168 1801211615 349307501 -139658335 -154299838 93539552 717532954 1567561703 -1760875563 526404190 818515692 -1562487224 1470679020 468831527 -1395978233 1464297675 1524223522 -1716747551 -1379332798 -1043781412 1159712592 1087040167 2054482237 1490482544 -965335908 1811410524 543479230
REM
CELL 1.54180   50.00000   50.00000   50.00000   90.00000   90.00000   90.00000
LATT -1
SFAC C  
C      1  0.5272290000000  0.5165160000000  0.4345640000000 1.0
C      1  0.5116080000000  0.5428070000000  0.4286960000000 1.0
C      1  0.4825660000000  0.5390870000000  0.4333170000000 1.0
C      1  0.4633530000000  0.4898720000000  0.4304760000000 1.0
C      1  0.4769650000000  0.4643060000000  0.4351730000000 1.0
C      1  0.5059120000000  0.4665060000000  0.4393360000000 1.0
C      1  0.5263310000000  0.4853760000000  0.4284860000000 1.0
C      1  0.5279300000000  0.4647230000000  0.5402960000000 1.0
C      1  0.5675620000000  0.5025130000000  0.5534350000000 1.0
C      1  0.5375690000000  0.5440450000000  0.5509920000000 1.0
C      1  0.4859300000000  0.5504790000000  0.5417340000000 1.0
C      1  0.4434540000000  0.5248730000000  0.5524720000000 1.0
C      1  0.4422950000000  0.4734350000000  0.5553740000000 1.0
C      1  0.4815250000000  0.4413800000000  0.5395700000000 1.0
C      1  0.5326500000000  0.5007570000000  0.5878840000000 1.0
C      1  0.5193860000000  0.5269790000000  0.5876820000000 1.0
C      1  0.4912440000000  0.5311900000000  0.5812790000000 1.0
C      1  0.4678900000000  0.5151190000000  0.5882590000000 1.0
C      1  0.4678560000000  0.4856490000000  0.5894580000000 1.0
C      1  0.4906190000000  0.4694420000000  0.5809110000000 1.0
C      1  0.5191030000000  0.4754320000000  0.5822090000000 1.0
C      1  0.4655380000000  0.4891820000000  0.4861870000000 1.0
C      1  0.4799920000000  0.4638630000000  0.4933740000000 1.0
C      1  0.5103840000000  0.4615160000000  0.4829590000000 1.0
C      1  0.5363990000000  0.4798950000000  0.4867870000000 1.0
C      1  0.5378580000000  0.5142150000000  0.4893260000000 1.0
C      1  0.5177930000000  0.5381860000000  0.4889620000000 1.0
C      1  0.4885980000000  0.5340110000000  0.4943520000000 1.0
C      1  0.4584270000000  0.4834570000000  0.5346080000000 1.0
C      1  0.4814490000000  0.4664660000000  0.5245940000000 1.0
C      1  0.5078570000000  0.4804700000000  0.5283880000000 1.0
C      1  0.5569410000000  0.5067990000000  0.5286890000000 1.0
C      1  0.5343520000000  0.5231740000000  0.5322320000000 1.0
C      1  0.4846650000000  0.5267740000000  0.5251460000000 1.0
C      1  0.4589430000000  0.5125390000000  0.5325240000000 1.0
C      1  0.5506680000000  0.4755950000000  0.4392590000000 1.0
C      1  0.5518470000000  0.5228910000000  0.4480230000000 1.0
C      1  0.5214340000000  0.5642700000000  0.4442350000000 1.0
C      1  0.4730850000000  0.5540300000000  0.4553360000000 1.0
C      1  0.4381700000000  0.4909590000000  0.4433650000000 1.0
C      1  0.4642390000000  0.4469680000000  0.4538040000000 1.0
C      1  0.5167250000000  0.4417590000000  0.4481550000000 1.0
C      1  0.5595650000000  0.5011600000000  0.5793880000000 1.0
C      1  0.5361270000000  0.5477960000000  0.5780740000000 1.0
C      1  0.4857270000000  0.5558440000000  0.5685650000000 1.0
C      1  0.4432500000000  0.5263710000000  0.5797610000000 1.0
C      1  0.4428580000000  0.4738310000000  0.5827330000000 1.0
C      1  0.4841850000000  0.4461500000000  0.5664110000000 1.0
C      1  0.5347180000000  0.4578990000000  0.5660950000000 1.0
C      1  0.4731160000000  0.5553310000000  0.4825860000000 1.0
C      1  0.4429790000000  0.4869710000000  0.4698180000000 1.0
C      1  0.4647540000000  0.4421340000000  0.4809360000000 1.0
C      1  0.5173800000000  0.4346540000000  0.4746260000000 1.0
C      1  0.5549990000000  0.4725720000000  0.4661380000000 1.0
C      1  0.5607760000000  0.5225810000000  0.4736980000000 1.0
C      1  0.5236760000000  0.5584380000000  0.4706520000000 1.0
C      1  0.5084030000000  0.5094740000000  0.5318990000000 1.0
C      1  0.4835960000000  0.5100950000000  0.4381370000000 1.0
C      1  0.4825840000000  0.5106560000000  0.4767350000000 1.0
C      1  0.5098200000000  0.5012950000000  0.4659400000000 1.0
END
