TITL C-8694-7203-324 -1.56140936990131e-06 125000 -363.966297875649 0 0 60 (C1) n - 1
REM
REM in /home/bkarasulu/CARBON/AIRSS/Generating-Clusters/EDIP-Nigel-Params/Higher-Symm/Box-15A/Only-C60/SD-CG/HFTN-CG
REM
REM
REM
REM
REM
REM ./C.cell (414f73aa93bd7a1190c7fd0f31ff2f98)
REM
REM compiler GCC version 9.2.1 20190827 (Red Hat 9.2.1-1)
REM options -cpp -mtune=generic -march=x86-64 -g -O0 -fpre-include=/usr/include/finclude/math-vector-fortran.h
REM seed 143471921 1997409214 77286325 1478445002 -2140433215 1756025411 -668814790 1559984000 -904059190 -1800111351 -635149610 -710353034 1024912716 1344024276 1504302539 7925525 -1453213814 1679604323 527500387 -1812044277 -1280779794 494129598 -1995068660 -595799223 -82794895 2105367473 -1811589383 -494272513 -378621355 752990731 65570870 -822597635 -536281391
REM
CELL 1.54180   50.00000   50.00000   50.00000   90.00000   90.00000   90.00000
LATT -1
SFAC C  
C      1  0.4397950000000  0.4602460000000  0.4615310000000 1.0
C      1  0.4447050000000  0.5114130000000  0.4468480000000 1.0
C      1  0.4512750000000  0.5523700000000  0.4877810000000 1.0
C      1  0.4390720000000  0.5390040000000  0.5429800000000 1.0
C      1  0.4392620000000  0.4850550000000  0.5563910000000 1.0
C      1  0.4422650000000  0.4457770000000  0.5161300000000 1.0
C      1  0.5623750000000  0.4545430000000  0.4625810000000 1.0
C      1  0.5615320000000  0.5046780000000  0.4423750000000 1.0
C      1  0.5609250000000  0.5485630000000  0.4713840000000 1.0
C      1  0.5524860000000  0.5425410000000  0.5315700000000 1.0
C      1  0.5545780000000  0.4912080000000  0.5523390000000 1.0
C      1  0.5567710000000  0.4480090000000  0.5195560000000 1.0
C      1  0.4618330000000  0.5692250000000  0.5076860000000 1.0
C      1  0.4659090000000  0.5427790000000  0.5506650000000 1.0
C      1  0.4671220000000  0.4847970000000  0.5594950000000 1.0
C      1  0.4697700000000  0.4416280000000  0.5200380000000 1.0
C      1  0.4678720000000  0.4569970000000  0.4581970000000 1.0
C      1  0.4696760000000  0.5083050000000  0.4339210000000 1.0
C      1  0.5341000000000  0.5491560000000  0.4620270000000 1.0
C      1  0.5281330000000  0.5482130000000  0.5464850000000 1.0
C      1  0.5283550000000  0.4863440000000  0.5613070000000 1.0
C      1  0.5293770000000  0.4425990000000  0.5222170000000 1.0
C      1  0.5339590000000  0.4552760000000  0.4605140000000 1.0
C      1  0.5347050000000  0.5041800000000  0.4340940000000 1.0
C      1  0.4863410000000  0.4948770000000  0.4727410000000 1.0
C      1  0.4756220000000  0.5264100000000  0.4739250000000 1.0
C      1  0.4852760000000  0.5312620000000  0.5069470000000 1.0
C      1  0.4760270000000  0.5094270000000  0.5238660000000 1.0
C      1  0.4856790000000  0.4840300000000  0.5176910000000 1.0
C      1  0.4746140000000  0.4753660000000  0.4921770000000 1.0
C      1  0.5155630000000  0.4950080000000  0.4732030000000 1.0
C      1  0.5251410000000  0.5248550000000  0.4799760000000 1.0
C      1  0.5146950000000  0.5333950000000  0.5074600000000 1.0
C      1  0.5242350000000  0.5119570000000  0.5264710000000 1.0
C      1  0.5147510000000  0.4848090000000  0.5187300000000 1.0
C      1  0.5260620000000  0.4756750000000  0.4932900000000 1.0
C      1  0.5083620000000  0.5636180000000  0.5309830000000 1.0
C      1  0.5129730000000  0.5150550000000  0.5562250000000 1.0
C      1  0.5165380000000  0.4633360000000  0.5424460000000 1.0
C      1  0.5161410000000  0.4455010000000  0.4930340000000 1.0
C      1  0.5201750000000  0.4809090000000  0.4461340000000 1.0
C      1  0.5189800000000  0.5297290000000  0.4418900000000 1.0
C      1  0.4796610000000  0.5547370000000  0.5254570000000 1.0
C      1  0.4803200000000  0.5138570000000  0.5532260000000 1.0
C      1  0.4809420000000  0.4635030000000  0.5402400000000 1.0
C      1  0.4842700000000  0.4454420000000  0.4917210000000 1.0
C      1  0.4828650000000  0.4820390000000  0.4445480000000 1.0
C      1  0.4876730000000  0.5306500000000  0.4440420000000 1.0
C      1  0.5649530000000  0.4954480000000  0.5265760000000 1.0
C      1  0.5668020000000  0.4721350000000  0.5092700000000 1.0
C      1  0.5679490000000  0.4755510000000  0.4803390000000 1.0
C      1  0.5699540000000  0.5018860000000  0.4690000000000 1.0
C      1  0.5684070000000  0.5254340000000  0.4858900000000 1.0
C      1  0.5651120000000  0.5225130000000  0.5152760000000 1.0
C      1  0.4353320000000  0.4922730000000  0.5294650000000 1.0
C      1  0.4341470000000  0.4717230000000  0.5090250000000 1.0
C      1  0.4325140000000  0.4792680000000  0.4809050000000 1.0
C      1  0.4361840000000  0.5069950000000  0.4733570000000 1.0
C      1  0.4367310000000  0.5279450000000  0.4939990000000 1.0
C      1  0.4331620000000  0.5204750000000  0.5223620000000 1.0
END
