TITL C-8694-7203-240 -6.93245291054505e-06 125000 -367.073612054833 0 0 60 (C1) n - 1
REM
REM in /home/bkarasulu/CARBON/AIRSS/Generating-Clusters/EDIP-Nigel-Params/Higher-Symm/Box-15A/Only-C60/SD-CG/HFTN-CG
REM
REM
REM
REM
REM
REM ./C.cell (414f73aa93bd7a1190c7fd0f31ff2f98)
REM
REM compiler GCC version 9.2.1 20190827 (Red Hat 9.2.1-1)
REM options -cpp -mtune=generic -march=x86-64 -g -O0 -fpre-include=/usr/include/finclude/math-vector-fortran.h
REM seed -1907915570 2057769894 861112673 -1507388673 397857908 -2131589639 901438576 910262967 -1386234519 -395281429 1997470432 1529238328 -2084680254 -1383683024 315488219 -1547758349 1031669952 1342860713 -1203024909 980139927 -897082081 -681020078 124325003 -1406508660 -433502189 -1118237733 -1386504893 612543157 1083478604 -1058504568 39185573 -1922168928 681732445
REM
CELL 1.54180   50.00000   50.00000   50.00000   90.00000   90.00000   90.00000
LATT -1
SFAC C  
C      1  0.4377950000000  0.5330820000000  0.5049500000000 1.0
C      1  0.4319000000000  0.4858240000000  0.4664930000000 1.0
C      1  0.4366170000000  0.4774800000000  0.5343740000000 1.0
C      1  0.4828130000000  0.4854030000000  0.5367420000000 1.0
C      1  0.4868120000000  0.5356670000000  0.4995580000000 1.0
C      1  0.4785350000000  0.4767280000000  0.4599240000000 1.0
C      1  0.5427960000000  0.5548800000000  0.4828970000000 1.0
C      1  0.5475710000000  0.4609600000000  0.4623670000000 1.0
C      1  0.5447870000000  0.4851660000000  0.5616040000000 1.0
C      1  0.5291180000000  0.4506330000000  0.5272980000000 1.0
C      1  0.5292080000000  0.5495370000000  0.5327710000000 1.0
C      1  0.5271070000000  0.5034270000000  0.4372130000000 1.0
C      1  0.5329470000000  0.4398810000000  0.4753960000000 1.0
C      1  0.5291720000000  0.5104880000000  0.5620030000000 1.0
C      1  0.5281360000000  0.5504800000000  0.4585620000000 1.0
C      1  0.4845020000000  0.5303900000000  0.4455440000000 1.0
C      1  0.4879530000000  0.4431410000000  0.5012390000000 1.0
C      1  0.4852310000000  0.5315910000000  0.5581980000000 1.0
C      1  0.4566680000000  0.5245760000000  0.5485850000000 1.0
C      1  0.4578240000000  0.5260720000000  0.4586360000000 1.0
C      1  0.4586370000000  0.4523570000000  0.4971590000000 1.0
C      1  0.5243050000000  0.4677470000000  0.5503280000000 1.0
C      1  0.5243460000000  0.5587950000000  0.5053060000000 1.0
C      1  0.5335330000000  0.4739070000000  0.4379700000000 1.0
C      1  0.5570830000000  0.5035850000000  0.5233400000000 1.0
C      1  0.5456900000000  0.5108000000000  0.4810370000000 1.0
C      1  0.5520230000000  0.4875570000000  0.4976370000000 1.0
C      1  0.4598600000000  0.5255720000000  0.4884560000000 1.0
C      1  0.4540850000000  0.4703270000000  0.4745650000000 1.0
C      1  0.4564310000000  0.4988650000000  0.5336670000000 1.0
C      1  0.5036700000000  0.5576030000000  0.5479630000000 1.0
C      1  0.5008640000000  0.5106900000000  0.4237860000000 1.0
C      1  0.5040750000000  0.4335430000000  0.5255350000000 1.0
C      1  0.4998220000000  0.5508530000000  0.4608540000000 1.0
C      1  0.5041920000000  0.4407040000000  0.4760650000000 1.0
C      1  0.5005750000000  0.5087520000000  0.5696010000000 1.0
C      1  0.5284140000000  0.4672310000000  0.5017950000000 1.0
C      1  0.5315550000000  0.5194300000000  0.5328930000000 1.0
C      1  0.5208810000000  0.5132650000000  0.4644510000000 1.0
C      1  0.5053080000000  0.5125600000000  0.5156540000000 1.0
C      1  0.4975220000000  0.4947550000000  0.4759860000000 1.0
C      1  0.5025040000000  0.4845990000000  0.5032950000000 1.0
C      1  0.5036110000000  0.4585240000000  0.5680140000000 1.0
C      1  0.5047880000000  0.5802360000000  0.5022800000000 1.0
C      1  0.5084290000000  0.4599720000000  0.4275940000000 1.0
C      1  0.4887510000000  0.5691740000000  0.4806900000000 1.0
C      1  0.4917270000000  0.4517510000000  0.4516430000000 1.0
C      1  0.4889390000000  0.4824880000000  0.5749440000000 1.0
C      1  0.4432130000000  0.5030840000000  0.4466430000000 1.0
C      1  0.4380220000000  0.4540500000000  0.5178220000000 1.0
C      1  0.4470830000000  0.5452410000000  0.5290520000000 1.0
C      1  0.5609580000000  0.5339060000000  0.4865820000000 1.0
C      1  0.5688110000000  0.4728100000000  0.4783150000000 1.0
C      1  0.5672740000000  0.4883490000000  0.5445940000000 1.0
C      1  0.4900670000000  0.5804420000000  0.5285100000000 1.0
C      1  0.4913390000000  0.4813740000000  0.4136660000000 1.0
C      1  0.4887690000000  0.4381750000000  0.5515120000000 1.0
C      1  0.4699460000000  0.4907720000000  0.4352760000000 1.0
C      1  0.4698400000000  0.4573560000000  0.5392730000000 1.0
C      1  0.4755650000000  0.5533910000000  0.5218880000000 1.0
END
