TITL C-8692-4986-123 -2.83457345025935e-05 125000 -361.148413911062 0 0 60 (C1) n - 1
REM
REM in /home/bkarasulu/CARBON/AIRSS/Generating-Clusters/EDIP-Nigel-Params/Higher-Symm/Box-15A/Only-C60/SD-CG/HFTN-CG
REM
REM
REM
REM
REM
REM ./C.cell (414f73aa93bd7a1190c7fd0f31ff2f98)
REM
REM compiler GCC version 9.2.1 20190827 (Red Hat 9.2.1-1)
REM options -cpp -mtune=generic -march=x86-64 -g -O0 -fpre-include=/usr/include/finclude/math-vector-fortran.h
REM seed 277273054 -5147196 -1870370721 -694462081 835243883 719187824 -1519483286 664410917 -1745930421 1243205965 -398172168 -1195703070 1074036253 1342289280 929947751 783815441 1198281038 -1866390064 1043706845 -265086599 1417766058 804573970 953574602 -158633735 881428924 861868463 1340311216 556587904 -371614657 135968329 -1231115845 -748034361 -760272999
REM
CELL 1.54180   50.00000   50.00000   50.00000   90.00000   90.00000   90.00000
LATT -1
SFAC C  
C      1  0.4925110000000  0.5408060000000  0.5662080000000 1.0
C      1  0.5597940000000  0.5424120000000  0.5302870000000 1.0
C      1  0.5485950000000  0.5417600000000  0.4515540000000 1.0
C      1  0.4689400000000  0.5410320000000  0.4390290000000 1.0
C      1  0.4343250000000  0.5404850000000  0.5127360000000 1.0
C      1  0.4951610000000  0.5015760000000  0.4273860000000 1.0
C      1  0.4343590000000  0.5005330000000  0.4854500000000 1.0
C      1  0.4657650000000  0.4991950000000  0.5649430000000 1.0
C      1  0.5450230000000  0.5025340000000  0.5548550000000 1.0
C      1  0.5663660000000  0.5014740000000  0.4728850000000 1.0
C      1  0.4616030000000  0.5432700000000  0.5202560000000 1.0
C      1  0.5082950000000  0.5426230000000  0.5427700000000 1.0
C      1  0.5449720000000  0.5430330000000  0.5059210000000 1.0
C      1  0.5210460000000  0.5428070000000  0.4586970000000 1.0
C      1  0.4685830000000  0.5428010000000  0.4673320000000 1.0
C      1  0.5163680000000  0.4705530000000  0.5660870000000 1.0
C      1  0.5659020000000  0.4701190000000  0.5044630000000 1.0
C      1  0.5245040000000  0.4696840000000  0.4371810000000 1.0
C      1  0.4470130000000  0.4689590000000  0.4567030000000 1.0
C      1  0.4447040000000  0.4698130000000  0.5388210000000 1.0
C      1  0.5320060000000  0.4991450000000  0.4392230000000 1.0
C      1  0.4547850000000  0.4972740000000  0.4526630000000 1.0
C      1  0.4449150000000  0.4986780000000  0.5329030000000 1.0
C      1  0.5137500000000  0.4980260000000  0.5771300000000 1.0
C      1  0.5659940000000  0.4996420000000  0.5115910000000 1.0
C      1  0.5123830000000  0.4398030000000  0.4790410000000 1.0
C      1  0.4833120000000  0.4402190000000  0.4800860000000 1.0
C      1  0.4753740000000  0.4408870000000  0.5080760000000 1.0
C      1  0.4985930000000  0.4415650000000  0.5252580000000 1.0
C      1  0.5222330000000  0.4402870000000  0.5067570000000 1.0
C      1  0.4313660000000  0.5123330000000  0.5114290000000 1.0
C      1  0.4902250000000  0.5131240000000  0.5706300000000 1.0
C      1  0.5623240000000  0.5149040000000  0.5355250000000 1.0
C      1  0.5537370000000  0.5140790000000  0.4504990000000 1.0
C      1  0.4700870000000  0.5132800000000  0.4343070000000 1.0
C      1  0.5480610000000  0.4498990000000  0.5133970000000 1.0
C      1  0.5269830000000  0.4490900000000  0.4566770000000 1.0
C      1  0.4665790000000  0.4488660000000  0.4591340000000 1.0
C      1  0.4519370000000  0.4518380000000  0.5184550000000 1.0
C      1  0.4928500000000  0.4589440000000  0.5511530000000 1.0
C      1  0.5272840000000  0.5182050000000  0.5013590000000 1.0
C      1  0.5119590000000  0.5178730000000  0.4739420000000 1.0
C      1  0.4811820000000  0.5186030000000  0.4804810000000 1.0
C      1  0.4774980000000  0.5190540000000  0.5112660000000 1.0
C      1  0.5055510000000  0.5190490000000  0.5237660000000 1.0
C      1  0.4954550000000  0.4753740000000  0.4393980000000 1.0
C      1  0.4357230000000  0.4721280000000  0.4831300000000 1.0
C      1  0.4654090000000  0.4704000000000  0.5599690000000 1.0
C      1  0.5350890000000  0.4773780000000  0.5449220000000 1.0
C      1  0.5555030000000  0.4751170000000  0.4771720000000 1.0
C      1  0.5122820000000  0.5661820000000  0.4755440000000 1.0
C      1  0.4820650000000  0.5663210000000  0.4804900000000 1.0
C      1  0.4775510000000  0.5669230000000  0.5109920000000 1.0
C      1  0.5050590000000  0.5668090000000  0.5247510000000 1.0
C      1  0.5263670000000  0.5665410000000  0.5027030000000 1.0
C      1  0.4716360000000  0.4813410000000  0.4908480000000 1.0
C      1  0.4830790000000  0.4824270000000  0.5215430000000 1.0
C      1  0.5164700000000  0.4815840000000  0.5206330000000 1.0
C      1  0.5257570000000  0.4805930000000  0.4887880000000 1.0
C      1  0.4977550000000  0.4807470000000  0.4708040000000 1.0
END
