TITL C-8692-4986-218 1.87893528621795e-06 125000 -373.284435227021 0 0 60 (C1) n - 1
REM
REM in /home/bkarasulu/CARBON/AIRSS/Generating-Clusters/EDIP-Nigel-Params/Higher-Symm/Box-15A/Only-C60/SD-CG/HFTN-CG
REM
REM
REM
REM
REM
REM ./C.cell (414f73aa93bd7a1190c7fd0f31ff2f98)
REM
REM compiler GCC version 9.2.1 20190827 (Red Hat 9.2.1-1)
REM options -cpp -mtune=generic -march=x86-64 -g -O0 -fpre-include=/usr/include/finclude/math-vector-fortran.h
REM seed -1425983555 -1824234512 -2100350078 -621949577 1280496125 -1493007914 104545370 -1275792038 -1406891171 660566235 -1080485548 100262665 -1130418451 -1971092909 1643536545 -71323049 432649953 -1683638311 -1407335757 549989629 1104125042 -656540389 1589863498 -2104244229 -988822685 1914073899 282072271 -1773823159 -355736249 1674973841 861333010 -1336494284 1217126547
REM
CELL 1.54180   50.00000   50.00000   50.00000   90.00000   90.00000   90.00000
LATT -1
SFAC C  
C      1  0.5406180000000  0.4964980000000  0.5485240000000 1.0
C      1  0.4639770000000  0.4687520000000  0.4494310000000 1.0
C      1  0.4408200000000  0.4794550000000  0.4646750000000 1.0
C      1  0.4842470000000  0.4917760000000  0.4489610000000 1.0
C      1  0.5576220000000  0.5412870000000  0.5337220000000 1.0
C      1  0.4745940000000  0.4460880000000  0.4660350000000 1.0
C      1  0.4490960000000  0.5414310000000  0.5259100000000 1.0
C      1  0.4570820000000  0.4982930000000  0.5560770000000 1.0
C      1  0.4792290000000  0.5171600000000  0.4320620000000 1.0
C      1  0.4820730000000  0.4365090000000  0.5167040000000 1.0
C      1  0.5674970000000  0.5280440000000  0.4907410000000 1.0
C      1  0.4824150000000  0.5026250000000  0.4775520000000 1.0
C      1  0.5075890000000  0.5285930000000  0.4320690000000 1.0
C      1  0.5106550000000  0.4775960000000  0.5066980000000 1.0
C      1  0.5251040000000  0.4413870000000  0.5367360000000 1.0
C      1  0.4710730000000  0.4948580000000  0.5798600000000 1.0
C      1  0.4894110000000  0.4555010000000  0.4938980000000 1.0
C      1  0.5057160000000  0.4374890000000  0.4659160000000 1.0
C      1  0.5116860000000  0.4820260000000  0.4417060000000 1.0
C      1  0.4525370000000  0.5246900000000  0.5479520000000 1.0
C      1  0.5232250000000  0.4579970000000  0.4534550000000 1.0
C      1  0.4692560000000  0.5591340000000  0.4827070000000 1.0
C      1  0.5043640000000  0.5211630000000  0.4881680000000 1.0
C      1  0.5353250000000  0.5512280000000  0.4670950000000 1.0
C      1  0.4915940000000  0.5645680000000  0.5281680000000 1.0
C      1  0.5495560000000  0.4587720000000  0.4669740000000 1.0
C      1  0.4682910000000  0.4811000000000  0.5341710000000 1.0
C      1  0.4527070000000  0.4984390000000  0.4851290000000 1.0
C      1  0.5116030000000  0.5528500000000  0.4496340000000 1.0
C      1  0.5236310000000  0.5007380000000  0.4933910000000 1.0
C      1  0.5065690000000  0.5248050000000  0.5818920000000 1.0
C      1  0.4282660000000  0.5343830000000  0.5090250000000 1.0
C      1  0.5550050000000  0.4838040000000  0.5250290000000 1.0
C      1  0.5548270000000  0.5483010000000  0.5072140000000 1.0
C      1  0.4594120000000  0.5343610000000  0.4425440000000 1.0
C      1  0.4778830000000  0.4523920000000  0.5419940000000 1.0
C      1  0.5090150000000  0.4237970000000  0.5177370000000 1.0
C      1  0.5539660000000  0.5004390000000  0.4963840000000 1.0
C      1  0.5624210000000  0.4858450000000  0.4703270000000 1.0
C      1  0.5553290000000  0.5072310000000  0.4484660000000 1.0
C      1  0.4360340000000  0.5239350000000  0.4842520000000 1.0
C      1  0.5069860000000  0.5606050000000  0.5498510000000 1.0
C      1  0.4961500000000  0.4909560000000  0.5294470000000 1.0
C      1  0.5220260000000  0.4259030000000  0.4902520000000 1.0
C      1  0.5356980000000  0.4614970000000  0.5163120000000 1.0
C      1  0.5059650000000  0.4553750000000  0.5545980000000 1.0
C      1  0.4986100000000  0.4986850000000  0.5780880000000 1.0
C      1  0.4266520000000  0.4597590000000  0.4791460000000 1.0
C      1  0.4315430000000  0.4610690000000  0.5058820000000 1.0
C      1  0.5457430000000  0.4441790000000  0.4930350000000 1.0
C      1  0.5274960000000  0.5056740000000  0.4361790000000 1.0
C      1  0.5599230000000  0.5340660000000  0.4618970000000 1.0
C      1  0.4715440000000  0.5538610000000  0.5121290000000 1.0
C      1  0.5406910000000  0.5260410000000  0.5491630000000 1.0
C      1  0.5118270000000  0.4855000000000  0.5543660000000 1.0
C      1  0.4900430000000  0.5644760000000  0.4643030000000 1.0
C      1  0.4494060000000  0.5439660000000  0.4672860000000 1.0
C      1  0.4495960000000  0.4819550000000  0.5102100000000 1.0
C      1  0.5202470000000  0.5403420000000  0.5636250000000 1.0
C      1  0.5285360000000  0.5507520000000  0.4952460000000 1.0
END
