TITL C-8699-7882-283 -2.07185188178741e-06 125000 -342.05234582379 0 0 60 (D4) n - 1
REM
REM in /home/bkarasulu/CARBON/AIRSS/Generating-Clusters/EDIP-Nigel-Params/Higher-Symm/Box-15A/Only-C60/SD-CG/HFTN-CG
REM
REM
REM
REM
REM
REM ./C.cell (414f73aa93bd7a1190c7fd0f31ff2f98)
REM
REM compiler GCC version 9.2.1 20190827 (Red Hat 9.2.1-1)
REM options -cpp -mtune=generic -march=x86-64 -g -O0 -fpre-include=/usr/include/finclude/math-vector-fortran.h
REM seed -1333946019 -1302182434 -722447939 -905181830 -1178160983 1145309404 1733783102 -579879695 1716807534 757380060 -331069734 2061933064 -670132003 -1684425389 185313483 1661327818 -379339531 -829328773 1202540684 -2017037188 1064388689 2009118107 -1556247326 -865909911 1192298836 -1574439751 -1035252800 1876418499 421358521 728363186 -1779047645 440743939 -642695716
REM
CELL 1.54180   50.00000   50.00000   50.00000   90.00000   90.00000   90.00000
LATT -1
SFAC C  
C      1  0.4526600000000  0.5234270000000  0.4532250000000 1.0
C      1  0.4532280000000  0.5234370000000  0.5473380000000 1.0
C      1  0.5473410000000  0.5234340000000  0.5467700000000 1.0
C      1  0.5467730000000  0.5234250000000  0.4526570000000 1.0
C      1  0.4508410000000  0.4764610000000  0.5448600000000 1.0
C      1  0.4551410000000  0.4764510000000  0.4508440000000 1.0
C      1  0.5491580000000  0.4764490000000  0.4551440000000 1.0
C      1  0.5448570000000  0.4764590000000  0.5491610000000 1.0
C      1  0.4959560000000  0.5132410000000  0.5780940000000 1.0
C      1  0.5780960000000  0.5132310000000  0.5040430000000 1.0
C      1  0.5040440000000  0.5132250000000  0.4219030000000 1.0
C      1  0.4219050000000  0.5132340000000  0.4959550000000 1.0
C      1  0.4990560000000  0.4866450000000  0.4218070000000 1.0
C      1  0.5781940000000  0.4866510000000  0.4990570000000 1.0
C      1  0.5009440000000  0.4866610000000  0.5781960000000 1.0
C      1  0.4218050000000  0.4866550000000  0.5009450000000 1.0
C      1  0.5191310000000  0.5639230000000  0.5112440000000 1.0
C      1  0.5112520000000  0.5639200000000  0.4808640000000 1.0
C      1  0.4808720000000  0.5639210000000  0.4887430000000 1.0
C      1  0.4887510000000  0.5639240000000  0.5191230000000 1.0
C      1  0.5195590000000  0.4359620000000  0.4895230000000 1.0
C      1  0.5104820000000  0.4359650000000  0.5195670000000 1.0
C      1  0.4804380000000  0.4359650000000  0.5104900000000 1.0
C      1  0.4895150000000  0.4359620000000  0.4804460000000 1.0
C      1  0.5016470000000  0.5369010000000  0.4366940000000 1.0
C      1  0.4366990000000  0.5369090000000  0.4983500000000 1.0
C      1  0.4983540000000  0.5369140000000  0.5632980000000 1.0
C      1  0.5633030000000  0.5369070000000  0.5016430000000 1.0
C      1  0.4991340000000  0.4629840000000  0.5633210000000 1.0
C      1  0.4366820000000  0.4629790000000  0.4991390000000 1.0
C      1  0.5008640000000  0.4629710000000  0.4366860000000 1.0
C      1  0.5633160000000  0.4629760000000  0.5008690000000 1.0
C      1  0.4527060000000  0.5542150000000  0.4765920000000 1.0
C      1  0.4765980000000  0.5542210000000  0.5472900000000 1.0
C      1  0.5472970000000  0.5542170000000  0.5233970000000 1.0
C      1  0.5234040000000  0.5542100000000  0.4526990000000 1.0
C      1  0.4518120000000  0.4456730000000  0.5215140000000 1.0
C      1  0.4784900000000  0.4456650000000  0.4518190000000 1.0
C      1  0.5481850000000  0.4456660000000  0.4784970000000 1.0
C      1  0.5215080000000  0.4456740000000  0.5481920000000 1.0
C      1  0.4646340000000  0.4748440000000  0.4985200000000 1.0
C      1  0.4985170000000  0.4748470000000  0.5353680000000 1.0
C      1  0.5353640000000  0.4748430000000  0.5014850000000 1.0
C      1  0.5014820000000  0.4748400000000  0.4646380000000 1.0
C      1  0.4646050000000  0.5250430000000  0.5000760000000 1.0
C      1  0.4999220000000  0.5250380000000  0.4646010000000 1.0
C      1  0.5353970000000  0.5250410000000  0.4999190000000 1.0
C      1  0.5000790000000  0.5250460000000  0.5353930000000 1.0
C      1  0.4726080000000  0.5146790000000  0.5269800000000 1.0
C      1  0.5269810000000  0.5146780000000  0.5273910000000 1.0
C      1  0.5273920000000  0.5146720000000  0.4730170000000 1.0
C      1  0.4730190000000  0.5146740000000  0.4726060000000 1.0
C      1  0.4736990000000  0.4852080000000  0.4719550000000 1.0
C      1  0.5280460000000  0.4852070000000  0.4737010000000 1.0
C      1  0.5263000000000  0.4852120000000  0.5280480000000 1.0
C      1  0.4719540000000  0.4852130000000  0.5263020000000 1.0
C      1  0.4411030000000  0.4999500000000  0.5566060000000 1.0
C      1  0.5566060000000  0.4999470000000  0.5588970000000 1.0
C      1  0.5588970000000  0.4999360000000  0.4433940000000 1.0
C      1  0.4433940000000  0.4999380000000  0.4411030000000 1.0
END
