TITL C-8691-6797-5 9.79933569558146e-06 125000 -366.88055928417 0 0 60 (C1) n - 1
REM
REM in /home/bkarasulu/CARBON/AIRSS/Generating-Clusters/EDIP-Nigel-Params/Higher-Symm/Box-15A/Only-C60/SD-CG/HFTN-CG
REM
REM
REM
REM
REM
REM ./C.cell (414f73aa93bd7a1190c7fd0f31ff2f98)
REM
REM compiler GCC version 9.2.1 20190827 (Red Hat 9.2.1-1)
REM options -cpp -mtune=generic -march=x86-64 -g -O0 -fpre-include=/usr/include/finclude/math-vector-fortran.h
REM seed -1349586598 122902578 1482224149 914290510 92999008 -715695676 1380497847 -968818430 -1044439203 286638609 -1078955704 252281738 -1292896318 -617085827 294768856 818348067 199875537 200250113 -1589856445 -1052783246 -1975730140 -437026081 -749702505 -1863193082 -1813655871 1085172655 -39520119 -415141671 288825728 -1787245783 871570548 978638468 -1948761183
REM
CELL 1.54180   50.00000   50.00000   50.00000   90.00000   90.00000   90.00000
LATT -1
SFAC C  
C      1  0.5448430000000  0.5206590000000  0.5266990000000 1.0
C      1  0.5075280000000  0.4418880000000  0.4572300000000 1.0
C      1  0.4885970000000  0.5284980000000  0.5270310000000 1.0
C      1  0.5520620000000  0.4495990000000  0.4833540000000 1.0
C      1  0.4524410000000  0.4844640000000  0.4527450000000 1.0
C      1  0.4478880000000  0.5013070000000  0.5619600000000 1.0
C      1  0.4629320000000  0.5335970000000  0.4372330000000 1.0
C      1  0.5452320000000  0.5185310000000  0.4775830000000 1.0
C      1  0.5077870000000  0.4772770000000  0.5232500000000 1.0
C      1  0.4978290000000  0.5748830000000  0.5324760000000 1.0
C      1  0.4659860000000  0.4790090000000  0.5563280000000 1.0
C      1  0.5109800000000  0.5016900000000  0.5645360000000 1.0
C      1  0.4783650000000  0.4367590000000  0.5273350000000 1.0
C      1  0.4398190000000  0.5310380000000  0.4571710000000 1.0
C      1  0.5440740000000  0.5328870000000  0.4528110000000 1.0
C      1  0.4410550000000  0.5306690000000  0.5118760000000 1.0
C      1  0.5316170000000  0.5411310000000  0.5445660000000 1.0
C      1  0.5532230000000  0.5364730000000  0.5011470000000 1.0
C      1  0.5091330000000  0.4321620000000  0.4857570000000 1.0
C      1  0.4325830000000  0.5030990000000  0.4635120000000 1.0
C      1  0.4625470000000  0.5100000000000  0.5249450000000 1.0
C      1  0.5614560000000  0.4934180000000  0.4761680000000 1.0
C      1  0.5111580000000  0.4871920000000  0.4318170000000 1.0
C      1  0.4445870000000  0.4610750000000  0.4703350000000 1.0
C      1  0.4584000000000  0.4598260000000  0.5343620000000 1.0
C      1  0.5322940000000  0.4402930000000  0.5010170000000 1.0
C      1  0.5009370000000  0.4859470000000  0.4762990000000 1.0
C      1  0.4757000000000  0.5225400000000  0.4813970000000 1.0
C      1  0.5092370000000  0.5571850000000  0.4860350000000 1.0
C      1  0.5070130000000  0.5283410000000  0.5530230000000 1.0
C      1  0.5036290000000  0.4353060000000  0.5411460000000 1.0
C      1  0.5253790000000  0.5663490000000  0.5295960000000 1.0
C      1  0.5726470000000  0.4795390000000  0.5279660000000 1.0
C      1  0.5484700000000  0.4620550000000  0.5444260000000 1.0
C      1  0.4844490000000  0.5507910000000  0.4431110000000 1.0
C      1  0.4469010000000  0.5493880000000  0.5363450000000 1.0
C      1  0.5330240000000  0.5553160000000  0.4429060000000 1.0
C      1  0.5178630000000  0.5087180000000  0.4890140000000 1.0
C      1  0.4659720000000  0.4405560000000  0.4727610000000 1.0
C      1  0.4912140000000  0.5075080000000  0.4352810000000 1.0
C      1  0.4930450000000  0.4867140000000  0.5474530000000 1.0
C      1  0.4376800000000  0.4791290000000  0.4932570000000 1.0
C      1  0.5634240000000  0.5035710000000  0.5436690000000 1.0
C      1  0.4988940000000  0.5308650000000  0.4966790000000 1.0
C      1  0.5447080000000  0.4875230000000  0.5611590000000 1.0
C      1  0.4838960000000  0.4426800000000  0.4970690000000 1.0
C      1  0.5471970000000  0.4704280000000  0.4650920000000 1.0
C      1  0.4608680000000  0.4813240000000  0.5119060000000 1.0
C      1  0.5240910000000  0.4521740000000  0.5281510000000 1.0
C      1  0.4785490000000  0.4994130000000  0.4607020000000 1.0
C      1  0.5736450000000  0.4851520000000  0.5001780000000 1.0
C      1  0.4424970000000  0.5284260000000  0.5564360000000 1.0
C      1  0.5178310000000  0.4708510000000  0.4558350000000 1.0
C      1  0.5251010000000  0.4999840000000  0.5151820000000 1.0
C      1  0.4809240000000  0.4375920000000  0.4487610000000 1.0
C      1  0.4882780000000  0.4722240000000  0.5004900000000 1.0
C      1  0.5084520000000  0.5590720000000  0.4559570000000 1.0
C      1  0.5353430000000  0.5616810000000  0.5010690000000 1.0
C      1  0.4515130000000  0.5392500000000  0.4846790000000 1.0
C      1  0.4772130000000  0.5549840000000  0.5337290000000 1.0
END
