TITL C-8694-7203-235 -1.16769364009286e-06 125000 -360.30382892406 0 0 60 (C2) n - 1
REM
REM in /home/bkarasulu/CARBON/AIRSS/Generating-Clusters/EDIP-Nigel-Params/Higher-Symm/Box-15A/Only-C60/SD-CG/HFTN-CG
REM
REM
REM
REM
REM
REM ./C.cell (414f73aa93bd7a1190c7fd0f31ff2f98)
REM
REM compiler GCC version 9.2.1 20190827 (Red Hat 9.2.1-1)
REM options -cpp -mtune=generic -march=x86-64 -g -O0 -fpre-include=/usr/include/finclude/math-vector-fortran.h
REM seed 1850562245 -799245392 -1186001119 253736737 1676816900 -717540577 1229608833 2025024809 648259418 -1877999581 1999455726 -788216740 2042119211 -774611767 1068327004 -1543437456 -1318655920 1359007298 -1503294709 -1327383708 1155569500 805713478 557952046 -1508659240 1859709030 -1822977161 298940101 -187619539 1791744008 -1836933201 826168059 -2119644840 669025288
REM
CELL 1.54180   50.00000   50.00000   50.00000   90.00000   90.00000   90.00000
LATT -1
SFAC C  
C      1  0.5309410000000  0.5310160000000  0.4425190000000 1.0
C      1  0.4690570000000  0.5310170000000  0.5574790000000 1.0
C      1  0.4688750000000  0.5314570000000  0.4426300000000 1.0
C      1  0.5311230000000  0.5314610000000  0.5573690000000 1.0
C      1  0.4335910000000  0.4786100000000  0.4707890000000 1.0
C      1  0.5664100000000  0.4786150000000  0.5292120000000 1.0
C      1  0.5662400000000  0.4786930000000  0.4710790000000 1.0
C      1  0.4337610000000  0.4786910000000  0.5289210000000 1.0
C      1  0.4435440000000  0.5034630000000  0.5148060000000 1.0
C      1  0.5564550000000  0.5034650000000  0.4851940000000 1.0
C      1  0.5561140000000  0.5033970000000  0.5154590000000 1.0
C      1  0.4438860000000  0.5033940000000  0.4845410000000 1.0
C      1  0.5526690000000  0.4558140000000  0.5153840000000 1.0
C      1  0.4473330000000  0.4558110000000  0.4846180000000 1.0
C      1  0.4474730000000  0.4558670000000  0.5152330000000 1.0
C      1  0.5525290000000  0.4558690000000  0.4847690000000 1.0
C      1  0.5285970000000  0.5059750000000  0.4745930000000 1.0
C      1  0.4714030000000  0.5059750000000  0.5254070000000 1.0
C      1  0.4722230000000  0.5047820000000  0.4741830000000 1.0
C      1  0.5277760000000  0.5047850000000  0.5258170000000 1.0
C      1  0.4843430000000  0.5076610000000  0.4350840000000 1.0
C      1  0.5156570000000  0.5076640000000  0.5649160000000 1.0
C      1  0.5151050000000  0.5077850000000  0.4346020000000 1.0
C      1  0.4848940000000  0.5077870000000  0.5653970000000 1.0
C      1  0.4715530000000  0.4460240000000  0.4705160000000 1.0
C      1  0.5284490000000  0.4460260000000  0.5294860000000 1.0
C      1  0.5281690000000  0.4462780000000  0.4706560000000 1.0
C      1  0.4718330000000  0.4462780000000  0.5293460000000 1.0
C      1  0.4843730000000  0.4798630000000  0.5154760000000 1.0
C      1  0.5156280000000  0.4798630000000  0.4845250000000 1.0
C      1  0.5154570000000  0.4794090000000  0.5154630000000 1.0
C      1  0.4845440000000  0.4794080000000  0.4845380000000 1.0
C      1  0.5300170000000  0.4812610000000  0.5632200000000 1.0
C      1  0.4699840000000  0.4812570000000  0.4367810000000 1.0
C      1  0.4706250000000  0.4817810000000  0.5624740000000 1.0
C      1  0.5293760000000  0.4817790000000  0.4375270000000 1.0
C      1  0.5674780000000  0.5307850000000  0.4807090000000 1.0
C      1  0.4325200000000  0.5307820000000  0.5192890000000 1.0
C      1  0.4330150000000  0.5310920000000  0.4809860000000 1.0
C      1  0.5669840000000  0.5310960000000  0.5190120000000 1.0
C      1  0.5159450000000  0.5656000000000  0.4846630000000 1.0
C      1  0.4840520000000  0.5656000000000  0.5153340000000 1.0
C      1  0.4866190000000  0.5740820000000  0.4860960000000 1.0
C      1  0.5133780000000  0.5740830000000  0.5139010000000 1.0
C      1  0.5153770000000  0.4574880000000  0.5534410000000 1.0
C      1  0.4846250000000  0.4574850000000  0.4465610000000 1.0
C      1  0.4850800000000  0.4577300000000  0.5532540000000 1.0
C      1  0.5149220000000  0.4577290000000  0.4467480000000 1.0
C      1  0.4844290000000  0.5299090000000  0.4843330000000 1.0
C      1  0.5155690000000  0.5299100000000  0.5156660000000 1.0
C      1  0.5157170000000  0.5340970000000  0.4844320000000 1.0
C      1  0.4842820000000  0.5340970000000  0.5155660000000 1.0
C      1  0.4474420000000  0.5387890000000  0.5418380000000 1.0
C      1  0.5525560000000  0.5387900000000  0.4581600000000 1.0
C      1  0.5510640000000  0.5402990000000  0.5402950000000 1.0
C      1  0.4489340000000  0.5402950000000  0.4597030000000 1.0
C      1  0.5573310000000  0.4802300000000  0.5559290000000 1.0
C      1  0.4426700000000  0.4802250000000  0.4440720000000 1.0
C      1  0.4431720000000  0.4807650000000  0.5555340000000 1.0
C      1  0.5568290000000  0.4807650000000  0.4444670000000 1.0
END
