TITL C-8697-8172-224 -1.80937682701181e-06 125000 -354.057907826902 0 0 60 (C1) n - 1
REM
REM in /home/bkarasulu/CARBON/AIRSS/Generating-Clusters/EDIP-Nigel-Params/Higher-Symm/Box-15A/Only-C60/SD-CG/HFTN-CG
REM
REM
REM
REM
REM
REM ./C.cell (414f73aa93bd7a1190c7fd0f31ff2f98)
REM
REM compiler GCC version 9.2.1 20190827 (Red Hat 9.2.1-1)
REM options -cpp -mtune=generic -march=x86-64 -g -O0 -fpre-include=/usr/include/finclude/math-vector-fortran.h
REM seed 1348930439 -876590441 -256166032 -1868764980 1612565337 -2128130026 687291704 -1991099257 -1037754031 -229654005 -1731650297 2111631249 1212844275 -1962039235 -124271351 -1606111027 -534272846 1226626058 -1014894776 -78796006 -1581645990 -76704721 -606480390 1215418476 40838253 1222705694 -1619205176 99243554 -1107317118 1505952592 -1419810227 954124518 1404093765
REM
CELL 1.54180   50.00000   50.00000   50.00000   90.00000   90.00000   90.00000
LATT -1
SFAC C  
C      1  0.5067090000000  0.5374460000000  0.4843400000000 1.0
C      1  0.4889790000000  0.5029050000000  0.5586570000000 1.0
C      1  0.5628480000000  0.4742450000000  0.5210450000000 1.0
C      1  0.5063800000000  0.4341900000000  0.5145460000000 1.0
C      1  0.4829530000000  0.4483860000000  0.4703810000000 1.0
C      1  0.4843850000000  0.5643950000000  0.5109190000000 1.0
C      1  0.4877060000000  0.4922300000000  0.4539950000000 1.0
C      1  0.5243270000000  0.4845770000000  0.5404930000000 1.0
C      1  0.5161910000000  0.5198620000000  0.4352730000000 1.0
C      1  0.5669340000000  0.5054800000000  0.4864560000000 1.0
C      1  0.4537100000000  0.5104430000000  0.5135020000000 1.0
C      1  0.4215060000000  0.4895290000000  0.4922480000000 1.0
C      1  0.4851980000000  0.5595500000000  0.4805830000000 1.0
C      1  0.5185470000000  0.5071560000000  0.5617030000000 1.0
C      1  0.4326090000000  0.4891320000000  0.5219570000000 1.0
C      1  0.4857670000000  0.4200450000000  0.5280060000000 1.0
C      1  0.5071320000000  0.4417370000000  0.4865050000000 1.0
C      1  0.5064390000000  0.5420260000000  0.5147820000000 1.0
C      1  0.5171840000000  0.4986350000000  0.4587880000000 1.0
C      1  0.4916130000000  0.4806440000000  0.5387530000000 1.0
C      1  0.4855290000000  0.5148120000000  0.4328300000000 1.0
C      1  0.4376610000000  0.5163310000000  0.4878100000000 1.0
C      1  0.5540140000000  0.4996310000000  0.5115310000000 1.0
C      1  0.5775160000000  0.4825890000000  0.4728230000000 1.0
C      1  0.4787460000000  0.5293910000000  0.5517000000000 1.0
C      1  0.5622820000000  0.4767010000000  0.5505140000000 1.0
C      1  0.5341510000000  0.5445590000000  0.4731170000000 1.0
C      1  0.4907420000000  0.4635460000000  0.4457970000000 1.0
C      1  0.5305080000000  0.4544180000000  0.5519280000000 1.0
C      1  0.5198310000000  0.5483750000000  0.4432280000000 1.0
C      1  0.5539310000000  0.5219650000000  0.4667100000000 1.0
C      1  0.4542920000000  0.5323520000000  0.5338930000000 1.0
C      1  0.4381310000000  0.4749170000000  0.4717380000000 1.0
C      1  0.5323040000000  0.4372790000000  0.5274320000000 1.0
C      1  0.4586400000000  0.4577770000000  0.4846210000000 1.0
C      1  0.4559340000000  0.5583860000000  0.5179750000000 1.0
C      1  0.5224100000000  0.5359220000000  0.5551860000000 1.0
C      1  0.4200870000000  0.5046670000000  0.5419490000000 1.0
C      1  0.4572470000000  0.5527080000000  0.4736230000000 1.0
C      1  0.5330720000000  0.4729140000000  0.4565730000000 1.0
C      1  0.4861500000000  0.4529080000000  0.5491900000000 1.0
C      1  0.4758470000000  0.5414440000000  0.4412570000000 1.0
C      1  0.4518190000000  0.5160530000000  0.4614380000000 1.0
C      1  0.5521110000000  0.5173750000000  0.5349060000000 1.0
C      1  0.5612560000000  0.4820070000000  0.4493450000000 1.0
C      1  0.4624040000000  0.4355050000000  0.5328280000000 1.0
C      1  0.5314660000000  0.4570230000000  0.4826010000000 1.0
C      1  0.5352550000000  0.5485350000000  0.5203790000000 1.0
C      1  0.4975130000000  0.5500680000000  0.5576000000000 1.0
C      1  0.4955000000000  0.5620900000000  0.4376710000000 1.0
C      1  0.5076160000000  0.4453630000000  0.5676910000000 1.0
C      1  0.4392910000000  0.5600440000000  0.4949050000000 1.0
C      1  0.5483030000000  0.4519850000000  0.5073400000000 1.0
C      1  0.5177790000000  0.4577360000000  0.4367660000000 1.0
C      1  0.4438680000000  0.4913750000000  0.4487910000000 1.0
C      1  0.4523460000000  0.4460850000000  0.5091150000000 1.0
C      1  0.4294830000000  0.5292860000000  0.5491750000000 1.0
C      1  0.5588370000000  0.5096470000000  0.4408810000000 1.0
C      1  0.5626590000000  0.5041840000000  0.5585120000000 1.0
C      1  0.5463510000000  0.5594340000000  0.4957030000000 1.0
END
