TITL C-8698-8182-248 4.07429329836668e-05 125000 -366.05274169501 0 0 60 (C1) n - 1
REM
REM in /home/bkarasulu/CARBON/AIRSS/Generating-Clusters/EDIP-Nigel-Params/Higher-Symm/Box-15A/Only-C60/SD-CG/HFTN-CG
REM
REM
REM
REM
REM
REM ./C.cell (414f73aa93bd7a1190c7fd0f31ff2f98)
REM
REM compiler GCC version 9.2.1 20190827 (Red Hat 9.2.1-1)
REM options -cpp -mtune=generic -march=x86-64 -g -O0 -fpre-include=/usr/include/finclude/math-vector-fortran.h
REM seed -1673128534 -731378149 -2032949358 300454871 207400786 1084769790 7647337 -31959998 829660347 -1243895115 -79409225 876308696 -609993361 -1817872745 -2017539162 -501926851 1708508627 260783341 1243889270 -1005422327 2009086181 579030310 156404588 2011543359 -349384131 1149519534 -341919510 -2118701424 -1407776639 -1228353902 1888536117 910299534 -1627008425
REM
CELL 1.54180   50.00000   50.00000   50.00000   90.00000   90.00000   90.00000
LATT -1
SFAC C  
C      1  0.5551260000000  0.5478970000000  0.5176580000000 1.0
C      1  0.5177050000000  0.5509010000000  0.5518710000000 1.0
C      1  0.5497430000000  0.5114430000000  0.5546220000000 1.0
C      1  0.4454330000000  0.4486700000000  0.5169830000000 1.0
C      1  0.4473680000000  0.5444360000000  0.4854870000000 1.0
C      1  0.5506990000000  0.4513540000000  0.4844580000000 1.0
C      1  0.4849550000000  0.4481270000000  0.5495040000000 1.0
C      1  0.4859040000000  0.5585350000000  0.4474170000000 1.0
C      1  0.5135830000000  0.4490280000000  0.4527450000000 1.0
C      1  0.4551750000000  0.4881430000000  0.5446660000000 1.0
C      1  0.4551520000000  0.5061690000000  0.4564040000000 1.0
C      1  0.5482590000000  0.4866090000000  0.4475810000000 1.0
C      1  0.5335080000000  0.5606240000000  0.5307560000000 1.0
C      1  0.5601340000000  0.5218910000000  0.5293710000000 1.0
C      1  0.5291360000000  0.5282520000000  0.5647540000000 1.0
C      1  0.4665080000000  0.4368370000000  0.5317190000000 1.0
C      1  0.5253830000000  0.4402880000000  0.4774430000000 1.0
C      1  0.4646990000000  0.5581750000000  0.4665160000000 1.0
C      1  0.4377700000000  0.4756310000000  0.5252380000000 1.0
C      1  0.5570580000000  0.4773730000000  0.4735120000000 1.0
C      1  0.4426870000000  0.5139920000000  0.4813760000000 1.0
C      1  0.4822800000000  0.4773870000000  0.5495680000000 1.0
C      1  0.5228200000000  0.4739440000000  0.4406160000000 1.0
C      1  0.4955100000000  0.5303770000000  0.4382960000000 1.0
C      1  0.4525680000000  0.5166290000000  0.5503380000000 1.0
C      1  0.5491140000000  0.4509250000000  0.5133860000000 1.0
C      1  0.5184750000000  0.5589780000000  0.4518660000000 1.0
C      1  0.5469770000000  0.4818030000000  0.5509980000000 1.0
C      1  0.5481280000000  0.5166170000000  0.4504160000000 1.0
C      1  0.4482640000000  0.4783820000000  0.4499400000000 1.0
C      1  0.4483950000000  0.5530730000000  0.5149370000000 1.0
C      1  0.4482860000000  0.4465220000000  0.4879080000000 1.0
C      1  0.5550730000000  0.5510070000000  0.4874000000000 1.0
C      1  0.4848190000000  0.4483990000000  0.4548310000000 1.0
C      1  0.4882530000000  0.5508340000000  0.5484160000000 1.0
C      1  0.5137430000000  0.4423350000000  0.5464690000000 1.0
C      1  0.5290280000000  0.4619980000000  0.5605310000000 1.0
C      1  0.4763140000000  0.5569960000000  0.5225160000000 1.0
C      1  0.5639310000000  0.5300880000000  0.4700920000000 1.0
C      1  0.4764990000000  0.5282640000000  0.5619010000000 1.0
C      1  0.5273450000000  0.5325720000000  0.4369220000000 1.0
C      1  0.4690780000000  0.4640830000000  0.4377000000000 1.0
C      1  0.5188500000000  0.4448520000000  0.5156390000000 1.0
C      1  0.4743010000000  0.4383340000000  0.4795210000000 1.0
C      1  0.5265720000000  0.5562640000000  0.4812430000000 1.0
C      1  0.4352130000000  0.4649990000000  0.4711180000000 1.0
C      1  0.5590680000000  0.4745840000000  0.5261220000000 1.0
C      1  0.4384330000000  0.5329520000000  0.5321430000000 1.0
C      1  0.4589990000000  0.4946060000000  0.5010290000000 1.0
C      1  0.5263040000000  0.4890040000000  0.5125840000000 1.0
C      1  0.4885580000000  0.5279130000000  0.4868370000000 1.0
C      1  0.5260200000000  0.4979020000000  0.4834170000000 1.0
C      1  0.4746180000000  0.5192650000000  0.5118350000000 1.0
C      1  0.4826600000000  0.4740140000000  0.4908900000000 1.0
C      1  0.5167880000000  0.5289340000000  0.4920540000000 1.0
C      1  0.5005510000000  0.4875640000000  0.4686900000000 1.0
C      1  0.5014140000000  0.4715140000000  0.5157580000000 1.0
C      1  0.4845370000000  0.5125110000000  0.4610430000000 1.0
C      1  0.5220640000000  0.5190100000000  0.5218560000000 1.0
C      1  0.4941670000000  0.5101890000000  0.5330960000000 1.0
END
