TITL C-8692-4986-187 -1.14227985987405e-06 125000 -370.023389363669 0 0 60 (C1) n - 1
REM
REM in /home/bkarasulu/CARBON/AIRSS/Generating-Clusters/EDIP-Nigel-Params/Higher-Symm/Box-15A/Only-C60/SD-CG/HFTN-CG
REM
REM
REM
REM
REM
REM ./C.cell (414f73aa93bd7a1190c7fd0f31ff2f98)
REM
REM compiler GCC version 9.2.1 20190827 (Red Hat 9.2.1-1)
REM options -cpp -mtune=generic -march=x86-64 -g -O0 -fpre-include=/usr/include/finclude/math-vector-fortran.h
REM seed 2133925990 -1988789715 -1944123100 665438279 -1416899803 1307848216 161069617 9401390 -1332589882 1186837015 257578968 -1289400623 -98188566 -421212456 476078164 1262686854 -1161123790 1231259046 -98845246 2102136698 153438999 1833984032 -147750996 2103832747 -1577678515 -2085843056 -1975604261 996393845 2113315687 2137318674 -1166040194 2100756978 -694674004
REM
CELL 1.54180   50.00000   50.00000   50.00000   90.00000   90.00000   90.00000
LATT -1
SFAC C  
C      1  0.4791860000000  0.4574590000000  0.4680600000000 1.0
C      1  0.4551620000000  0.4990980000000  0.4486220000000 1.0
C      1  0.4592030000000  0.4799020000000  0.4710920000000 1.0
C      1  0.5312370000000  0.5553540000000  0.4609960000000 1.0
C      1  0.5141820000000  0.4227650000000  0.5422170000000 1.0
C      1  0.4639100000000  0.5412860000000  0.5256790000000 1.0
C      1  0.5458820000000  0.5221030000000  0.4452780000000 1.0
C      1  0.5487460000000  0.4760800000000  0.5612330000000 1.0
C      1  0.4710080000000  0.5161660000000  0.5412960000000 1.0
C      1  0.5595960000000  0.5358170000000  0.4792840000000 1.0
C      1  0.5619930000000  0.4646520000000  0.5375490000000 1.0
C      1  0.4329310000000  0.5453310000000  0.5253380000000 1.0
C      1  0.4747440000000  0.4484760000000  0.5385130000000 1.0
C      1  0.4719320000000  0.4740700000000  0.5554760000000 1.0
C      1  0.4472600000000  0.4408680000000  0.5273020000000 1.0
C      1  0.5078200000000  0.5640950000000  0.5318370000000 1.0
C      1  0.5291300000000  0.4441610000000  0.4751150000000 1.0
C      1  0.4847330000000  0.5497760000000  0.4512510000000 1.0
C      1  0.5481110000000  0.5222190000000  0.5517400000000 1.0
C      1  0.5178260000000  0.4825650000000  0.4456020000000 1.0
C      1  0.4597030000000  0.5432390000000  0.4364160000000 1.0
C      1  0.5653730000000  0.5310970000000  0.5285660000000 1.0
C      1  0.5505290000000  0.4599500000000  0.4888300000000 1.0
C      1  0.4423400000000  0.5321150000000  0.4841730000000 1.0
C      1  0.4330310000000  0.4641050000000  0.5156110000000 1.0
C      1  0.5208600000000  0.4228170000000  0.4930090000000 1.0
C      1  0.4663440000000  0.5276700000000  0.4130930000000 1.0
C      1  0.5794890000000  0.5081260000000  0.5152400000000 1.0
C      1  0.5539980000000  0.4869840000000  0.4776240000000 1.0
C      1  0.4304370000000  0.5094230000000  0.4992890000000 1.0
C      1  0.4858270000000  0.5547750000000  0.4795690000000 1.0
C      1  0.4917160000000  0.4522960000000  0.5141000000000 1.0
C      1  0.5241080000000  0.5558910000000  0.5105810000000 1.0
C      1  0.5025310000000  0.5049590000000  0.4361030000000 1.0
C      1  0.5222580000000  0.5117130000000  0.5412750000000 1.0
C      1  0.4970330000000  0.4854520000000  0.5659700000000 1.0
C      1  0.4419680000000  0.4831480000000  0.4954720000000 1.0
C      1  0.5180390000000  0.4384810000000  0.5178890000000 1.0
C      1  0.4958730000000  0.5151260000000  0.5563820000000 1.0
C      1  0.5713920000000  0.5086440000000  0.4867560000000 1.0
C      1  0.5811640000000  0.4830220000000  0.5282250000000 1.0
C      1  0.4214360000000  0.5189110000000  0.5247960000000 1.0
C      1  0.4694500000000  0.5374280000000  0.4959380000000 1.0
C      1  0.4771890000000  0.4396710000000  0.4913690000000 1.0
C      1  0.5137880000000  0.5588320000000  0.4844840000000 1.0
C      1  0.5220560000000  0.4805400000000  0.5489600000000 1.0
C      1  0.5210130000000  0.5270100000000  0.4287260000000 1.0
C      1  0.4748050000000  0.5030990000000  0.4260060000000 1.0
C      1  0.5113420000000  0.5530880000000  0.4381690000000 1.0
C      1  0.4891620000000  0.4273790000000  0.5524910000000 1.0
C      1  0.5083240000000  0.4626300000000  0.4642560000000 1.0
C      1  0.4423690000000  0.5259420000000  0.4539060000000 1.0
C      1  0.4501320000000  0.4334620000000  0.4991290000000 1.0
C      1  0.4809120000000  0.5628080000000  0.5352270000000 1.0
C      1  0.5442770000000  0.4930560000000  0.4514100000000 1.0
C      1  0.5603960000000  0.5015060000000  0.5671740000000 1.0
C      1  0.4536800000000  0.4950010000000  0.5485830000000 1.0
C      1  0.5515540000000  0.5463860000000  0.5069680000000 1.0
C      1  0.5422020000000  0.4575330000000  0.5169740000000 1.0
C      1  0.4273040000000  0.5544430000000  0.4977780000000 1.0
END
