TITL C-8695-8180-160 1.81625142580592e-06 125000 -346.77497674539 0 0 60 (C1) n - 1
REM
REM in /home/bkarasulu/CARBON/AIRSS/Generating-Clusters/EDIP-Nigel-Params/Higher-Symm/Box-15A/Only-C60/SD-CG/HFTN-CG
REM
REM
REM
REM
REM
REM ./C.cell (414f73aa93bd7a1190c7fd0f31ff2f98)
REM
REM compiler GCC version 9.2.1 20190827 (Red Hat 9.2.1-1)
REM options -cpp -mtune=generic -march=x86-64 -g -O0 -fpre-include=/usr/include/finclude/math-vector-fortran.h
REM seed -518476019 -421394507 -583860880 1273907224 1568141061 108625732 349476390 2025560923 -785044085 455990336 -1972309663 92190700 1269531677 -386037594 -366368470 -1040957987 -164254004 1738323286 -936134366 -748680041 1758810153 893168953 1486199409 -1279711919 -1679069964 -1774557452 -979526434 -282294874 -460306536 -171500180 -1332635966 952620976 749341918
REM
CELL 1.54180   50.00000   50.00000   50.00000   90.00000   90.00000   90.00000
LATT -1
SFAC C  
C      1  0.4936860000000  0.5579610000000  0.5031200000000 1.0
C      1  0.4904950000000  0.5123440000000  0.4606470000000 1.0
C      1  0.4892360000000  0.4598200000000  0.4754200000000 1.0
C      1  0.4891360000000  0.4530470000000  0.5342000000000 1.0
C      1  0.4896920000000  0.5192030000000  0.5494800000000 1.0
C      1  0.4911000000000  0.4423860000000  0.5012210000000 1.0
C      1  0.4962230000000  0.4821300000000  0.4547680000000 1.0
C      1  0.4906790000000  0.5398190000000  0.4772490000000 1.0
C      1  0.4907160000000  0.5475730000000  0.5359170000000 1.0
C      1  0.4892200000000  0.4804990000000  0.5485460000000 1.0
C      1  0.5315590000000  0.5150320000000  0.5629320000000 1.0
C      1  0.5349310000000  0.5738530000000  0.5066000000000 1.0
C      1  0.5266570000000  0.5264600000000  0.4394660000000 1.0
C      1  0.5283180000000  0.4517720000000  0.4564850000000 1.0
C      1  0.5360430000000  0.4348620000000  0.5355670000000 1.0
C      1  0.5308260000000  0.4853950000000  0.5623490000000 1.0
C      1  0.5334900000000  0.4320410000000  0.5065050000000 1.0
C      1  0.5321710000000  0.4696980000000  0.4332310000000 1.0
C      1  0.5279620000000  0.5504740000000  0.4560480000000 1.0
C      1  0.5329880000000  0.5596820000000  0.5322280000000 1.0
C      1  0.4628970000000  0.5609790000000  0.5351210000000 1.0
C      1  0.4728290000000  0.5570850000000  0.4601370000000 1.0
C      1  0.4749430000000  0.4758890000000  0.4338140000000 1.0
C      1  0.4625130000000  0.4323800000000  0.5049250000000 1.0
C      1  0.4636890000000  0.4855790000000  0.5627000000000 1.0
C      1  0.4603840000000  0.4405160000000  0.5332320000000 1.0
C      1  0.4727990000000  0.4401470000000  0.4591390000000 1.0
C      1  0.4697780000000  0.5181770000000  0.4397100000000 1.0
C      1  0.4647690000000  0.5684230000000  0.5067870000000 1.0
C      1  0.4642160000000  0.5144720000000  0.5642670000000 1.0
C      1  0.5189980000000  0.5625050000000  0.5572150000000 1.0
C      1  0.5086350000000  0.5716250000000  0.4636620000000 1.0
C      1  0.5096090000000  0.4837040000000  0.4182320000000 1.0
C      1  0.5164100000000  0.4162640000000  0.4892750000000 1.0
C      1  0.5151950000000  0.4629800000000  0.5712500000000 1.0
C      1  0.5108340000000  0.4412310000000  0.5518570000000 1.0
C      1  0.5098210000000  0.4289840000000  0.4634350000000 1.0
C      1  0.5050240000000  0.5134020000000  0.4242680000000 1.0
C      1  0.5149290000000  0.5857030000000  0.4889110000000 1.0
C      1  0.5152060000000  0.5376280000000  0.5710270000000 1.0
C      1  0.5553960000000  0.5417390000000  0.5293530000000 1.0
C      1  0.5528890000000  0.5450590000000  0.4696920000000 1.0
C      1  0.5544120000000  0.4855590000000  0.4445390000000 1.0
C      1  0.5550480000000  0.4487760000000  0.4976750000000 1.0
C      1  0.5539300000000  0.4810490000000  0.5455070000000 1.0
C      1  0.5582680000000  0.4549380000000  0.5351310000000 1.0
C      1  0.5520740000000  0.4591110000000  0.4714000000000 1.0
C      1  0.5511070000000  0.5136590000000  0.4483200000000 1.0
C      1  0.5566430000000  0.5576050000000  0.4948480000000 1.0
C      1  0.5548350000000  0.5183690000000  0.5453730000000 1.0
C      1  0.4398140000000  0.5433800000000  0.5333640000000 1.0
C      1  0.4477230000000  0.5443950000000  0.4678860000000 1.0
C      1  0.4506330000000  0.4799560000000  0.4497190000000 1.0
C      1  0.4432700000000  0.4510240000000  0.4930820000000 1.0
C      1  0.4393820000000  0.4824150000000  0.5467720000000 1.0
C      1  0.4384760000000  0.4594830000000  0.5300380000000 1.0
C      1  0.4472110000000  0.4541600000000  0.4641110000000 1.0
C      1  0.4464040000000  0.5170650000000  0.4565790000000 1.0
C      1  0.4443060000000  0.5504290000000  0.4961200000000 1.0
C      1  0.4395730000000  0.5201050000000  0.5495480000000 1.0
END
