TITL C-8697-8172-267 -2.20568421315012e-06 125000 -365.681041321578 0 0 60 (S4) n - 1
REM
REM in /home/bkarasulu/CARBON/AIRSS/Generating-Clusters/EDIP-Nigel-Params/Higher-Symm/Box-15A/Only-C60/SD-CG/HFTN-CG
REM
REM
REM
REM
REM
REM ./C.cell (414f73aa93bd7a1190c7fd0f31ff2f98)
REM
REM compiler GCC version 9.2.1 20190827 (Red Hat 9.2.1-1)
REM options -cpp -mtune=generic -march=x86-64 -g -O0 -fpre-include=/usr/include/finclude/math-vector-fortran.h
REM seed -1561787331 235685860 1447932296 1205999579 -453639493 -570039387 545790966 48821666 1320485117 607069561 323141538 -1930646724 667638382 1478824685 -1764742853 1708275086 -1458652022 -1049397337 1775974034 -146461120 14211508 1658460395 661314900 308754564 1894072225 -593584515 -1372763546 673259346 -1354384036 -1559958417 -1482858901 -2050252208 -988503187
REM
CELL 1.54180   50.00000   50.00000   50.00000   90.00000   90.00000   90.00000
LATT -1
SFAC C  
C      1  0.5489600000000  0.4962800000000  0.4419830000000 1.0
C      1  0.4509430000000  0.4420650000000  0.5037160000000 1.0
C      1  0.5490590000000  0.5036330000000  0.5579390000000 1.0
C      1  0.4510380000000  0.5580210000000  0.4963630000000 1.0
C      1  0.5281830000000  0.5652760000000  0.4977450000000 1.0
C      1  0.4718190000000  0.4977920000000  0.4347220000000 1.0
C      1  0.5280720000000  0.4346740000000  0.5022100000000 1.0
C      1  0.4719270000000  0.5022570000000  0.5653230000000 1.0
C      1  0.5591290000000  0.5293340000000  0.5103080000000 1.0
C      1  0.4408910000000  0.5104070000000  0.4706610000000 1.0
C      1  0.5590600000000  0.4705620000000  0.4895980000000 1.0
C      1  0.4409200000000  0.4896970000000  0.5294330000000 1.0
C      1  0.4988130000000  0.4352410000000  0.4976500000000 1.0
C      1  0.5011770000000  0.4976480000000  0.5647600000000 1.0
C      1  0.4989310000000  0.5647610000000  0.5023520000000 1.0
C      1  0.5010780000000  0.5023500000000  0.4352390000000 1.0
C      1  0.5427170000000  0.4737690000000  0.5616810000000 1.0
C      1  0.4573850000000  0.5617520000000  0.5262280000000 1.0
C      1  0.5426640000000  0.5261560000000  0.4382510000000 1.0
C      1  0.4572350000000  0.4383230000000  0.4738400000000 1.0
C      1  0.4808070000000  0.5107250000000  0.5111740000000 1.0
C      1  0.5192130000000  0.5111410000000  0.4892770000000 1.0
C      1  0.4807700000000  0.4893090000000  0.4888570000000 1.0
C      1  0.5192100000000  0.4888250000000  0.5106930000000 1.0
C      1  0.5526450000000  0.5407000000000  0.4624550000000 1.0
C      1  0.4472950000000  0.4625430000000  0.4592950000000 1.0
C      1  0.5526330000000  0.4592070000000  0.5374610000000 1.0
C      1  0.4474260000000  0.5375490000000  0.5407890000000 1.0
C      1  0.4835030000000  0.5464710000000  0.4596950000000 1.0
C      1  0.5164330000000  0.4596670000000  0.4535310000000 1.0
C      1  0.4834850000000  0.4535580000000  0.5403310000000 1.0
C      1  0.5165790000000  0.5403040000000  0.5464430000000 1.0
C      1  0.5359990000000  0.4365290000000  0.5299700000000 1.0
C      1  0.4640470000000  0.5300300000000  0.5634690000000 1.0
C      1  0.5360620000000  0.5634080000000  0.4699730000000 1.0
C      1  0.4638930000000  0.4700330000000  0.4365890000000 1.0
C      1  0.5489650000000  0.5190340000000  0.4838010000000 1.0
C      1  0.4510100000000  0.4838840000000  0.4809620000000 1.0
C      1  0.5489570000000  0.4808800000000  0.5161200000000 1.0
C      1  0.4510690000000  0.5162020000000  0.5191160000000 1.0
C      1  0.4772810000000  0.5633760000000  0.4821810000000 1.0
C      1  0.5226940000000  0.4821430000000  0.4366250000000 1.0
C      1  0.4771980000000  0.4366640000000  0.5178550000000 1.0
C      1  0.5228270000000  0.5178170000000  0.5633380000000 1.0
C      1  0.4903220000000  0.5296260000000  0.5361610000000 1.0
C      1  0.5097410000000  0.5361450000000  0.4703750000000 1.0
C      1  0.4902130000000  0.4703910000000  0.4638540000000 1.0
C      1  0.5097240000000  0.4638380000000  0.5296100000000 1.0
C      1  0.4879310000000  0.4394410000000  0.4708210000000 1.0
C      1  0.5120150000000  0.4708010000000  0.5605600000000 1.0
C      1  0.4880840000000  0.5605800000000  0.5291980000000 1.0
C      1  0.5119700000000  0.5291780000000  0.4394210000000 1.0
C      1  0.5465400000000  0.5540490000000  0.5167090000000 1.0
C      1  0.4534920000000  0.5167870000000  0.4459470000000 1.0
C      1  0.5464180000000  0.4458690000000  0.4832170000000 1.0
C      1  0.4535490000000  0.4832950000000  0.5541270000000 1.0
C      1  0.4391100000000  0.4711880000000  0.5060020000000 1.0
C      1  0.5608980000000  0.5059000000000  0.5288170000000 1.0
C      1  0.4391510000000  0.5289190000000  0.4940960000000 1.0
C      1  0.5608410000000  0.4939930000000  0.4710860000000 1.0
END
