TITL C-8696-5006-47 -0.000111792449101649 125000 -358.065084816079 0 0 60 (C1) n - 1
REM
REM in /home/bkarasulu/CARBON/AIRSS/Generating-Clusters/EDIP-Nigel-Params/Higher-Symm/Box-15A/Only-C60/SD-CG/HFTN-CG
REM
REM
REM
REM
REM
REM ./C.cell (414f73aa93bd7a1190c7fd0f31ff2f98)
REM
REM compiler GCC version 9.2.1 20190827 (Red Hat 9.2.1-1)
REM options -cpp -mtune=generic -march=x86-64 -g -O0 -fpre-include=/usr/include/finclude/math-vector-fortran.h
REM seed 167086065 646517895 -873907001 -126943090 -198837510 -390271611 854547911 2088247748 1057445321 120122758 1738805079 -443599765 -108379075 1050908079 1449999890 -1297645755 -1762840769 332281453 1797576050 -1381531660 1464367885 -906385977 -1761258123 -802406685 -1179775492 -1960397006 -372697031 828339295 336720402 993297419 675544661 449441483 -1265978076
REM
CELL 1.54180   50.00000   50.00000   50.00000   90.00000   90.00000   90.00000
LATT -1
SFAC C  
C      1  0.4531110000000  0.4843270000000  0.4481600000000 1.0
C      1  0.4560240000000  0.4820810000000  0.5496530000000 1.0
C      1  0.5482960000000  0.4920280000000  0.5499190000000 1.0
C      1  0.5501350000000  0.4920090000000  0.4458720000000 1.0
C      1  0.5197030000000  0.4530600000000  0.4442310000000 1.0
C      1  0.5240840000000  0.4525460000000  0.5642400000000 1.0
C      1  0.4537280000000  0.5321500000000  0.4737660000000 1.0
C      1  0.4539240000000  0.5313600000000  0.5263920000000 1.0
C      1  0.5383260000000  0.5498230000000  0.5415640000000 1.0
C      1  0.5397820000000  0.5463010000000  0.4613630000000 1.0
C      1  0.5226540000000  0.4583600000000  0.5156630000000 1.0
C      1  0.5258530000000  0.4563200000000  0.4879030000000 1.0
C      1  0.4350290000000  0.4878950000000  0.4709840000000 1.0
C      1  0.4364290000000  0.4865780000000  0.5282420000000 1.0
C      1  0.5475590000000  0.5509760000000  0.5154620000000 1.0
C      1  0.5470630000000  0.5498040000000  0.4877570000000 1.0
C      1  0.5072020000000  0.5385230000000  0.4852240000000 1.0
C      1  0.5076620000000  0.5397030000000  0.5160680000000 1.0
C      1  0.5658610000000  0.4952080000000  0.4815690000000 1.0
C      1  0.5641880000000  0.4958370000000  0.5141660000000 1.0
C      1  0.5197590000000  0.4883330000000  0.5252030000000 1.0
C      1  0.5184080000000  0.4812120000000  0.4718480000000 1.0
C      1  0.4900530000000  0.5619230000000  0.4742410000000 1.0
C      1  0.4891930000000  0.5622810000000  0.5269540000000 1.0
C      1  0.4730070000000  0.4585210000000  0.5442070000000 1.0
C      1  0.4694210000000  0.4603870000000  0.4528600000000 1.0
C      1  0.4706600000000  0.5097610000000  0.4852700000000 1.0
C      1  0.4714680000000  0.5097320000000  0.5145780000000 1.0
C      1  0.5198300000000  0.5358030000000  0.4434000000000 1.0
C      1  0.5186170000000  0.5370410000000  0.5584120000000 1.0
C      1  0.5502100000000  0.4643930000000  0.5615050000000 1.0
C      1  0.5463400000000  0.4630620000000  0.4420170000000 1.0
C      1  0.4980080000000  0.5117260000000  0.5287410000000 1.0
C      1  0.4966170000000  0.5102390000000  0.4712720000000 1.0
C      1  0.4896290000000  0.5500360000000  0.5550770000000 1.0
C      1  0.4911150000000  0.5502170000000  0.4459340000000 1.0
C      1  0.4953020000000  0.4656490000000  0.4380090000000 1.0
C      1  0.4998640000000  0.4654140000000  0.5572350000000 1.0
C      1  0.5629440000000  0.4462650000000  0.4576730000000 1.0
C      1  0.5622740000000  0.4460320000000  0.5432330000000 1.0
C      1  0.4632190000000  0.4480010000000  0.4792440000000 1.0
C      1  0.4636520000000  0.4475050000000  0.5180480000000 1.0
C      1  0.4649190000000  0.5321630000000  0.5557700000000 1.0
C      1  0.4654190000000  0.5337410000000  0.4445020000000 1.0
C      1  0.4997950000000  0.4923230000000  0.5680470000000 1.0
C      1  0.4987340000000  0.4937330000000  0.4304390000000 1.0
C      1  0.4274600000000  0.5203620000000  0.4853500000000 1.0
C      1  0.4278790000000  0.5194950000000  0.5151560000000 1.0
C      1  0.4624050000000  0.5589060000000  0.4854620000000 1.0
C      1  0.4619870000000  0.5586090000000  0.5151900000000 1.0
C      1  0.5242180000000  0.5073280000000  0.4369110000000 1.0
C      1  0.5241890000000  0.5080020000000  0.5637960000000 1.0
C      1  0.4381170000000  0.4619010000000  0.4846540000000 1.0
C      1  0.4382650000000  0.4612180000000  0.5135060000000 1.0
C      1  0.4729070000000  0.5054220000000  0.4404610000000 1.0
C      1  0.4741890000000  0.5039200000000  0.5585060000000 1.0
C      1  0.5402740000000  0.4392230000000  0.5274210000000 1.0
C      1  0.5474770000000  0.4401500000000  0.4795860000000 1.0
C      1  0.5377500000000  0.5069790000000  0.4810610000000 1.0
C      1  0.5378090000000  0.5081060000000  0.5110260000000 1.0
END
