TITL C-8697-8172-12 -9.46892842769161e-06 125000 -356.869721336849 0 0 60 (Ci) n - 1
REM
REM in /home/bkarasulu/CARBON/AIRSS/Generating-Clusters/EDIP-Nigel-Params/Higher-Symm/Box-15A/Only-C60/SD-CG/HFTN-CG
REM
REM
REM
REM
REM
REM ./C.cell (414f73aa93bd7a1190c7fd0f31ff2f98)
REM
REM compiler GCC version 9.2.1 20190827 (Red Hat 9.2.1-1)
REM options -cpp -mtune=generic -march=x86-64 -g -O0 -fpre-include=/usr/include/finclude/math-vector-fortran.h
REM seed 374514447 -984980464 -317690538 126907718 92661956 2125931841 -1664324199 1150586208 547415093 -1043517863 -222666247 -1905784566 -626135076 -1865544537 920711251 -764007303 -423383556 1588823795 -264716544 -244178854 569219870 -246364586 -64171655 357477429 1515228248 1849886295 352637206 585511937 675529502 1980709747 1819989212 -773709587 868083365
REM
CELL 1.54180   50.00000   50.00000   50.00000   90.00000   90.00000   90.00000
LATT -1
SFAC C  
C      1  0.5464820000000  0.4420600000000  0.4806620000000 1.0
C      1  0.5338490000000  0.5545370000000  0.5286070000000 1.0
C      1  0.4929050000000  0.4433590000000  0.5493120000000 1.0
C      1  0.4535180000000  0.5579400000000  0.5193380000000 1.0
C      1  0.4661510000000  0.4454630000000  0.4713930000000 1.0
C      1  0.5070950000000  0.5566410000000  0.4506880000000 1.0
C      1  0.5442040000000  0.4703190000000  0.5522330000000 1.0
C      1  0.4766670000000  0.5290740000000  0.5664600000000 1.0
C      1  0.4325100000000  0.4714050000000  0.5126390000000 1.0
C      1  0.4557960000000  0.5296810000000  0.4477670000000 1.0
C      1  0.5233330000000  0.4709260000000  0.4335400000000 1.0
C      1  0.5674900000000  0.5285950000000  0.4873610000000 1.0
C      1  0.5615110000000  0.5168790000000  0.5344430000000 1.0
C      1  0.5016990000000  0.4826630000000  0.5725270000000 1.0
C      1  0.4399850000000  0.5176430000000  0.5369760000000 1.0
C      1  0.4384890000000  0.4831210000000  0.4655570000000 1.0
C      1  0.4983010000000  0.5173370000000  0.4274730000000 1.0
C      1  0.5600150000000  0.4823570000000  0.4630240000000 1.0
C      1  0.4808440000000  0.4657100000000  0.5618510000000 1.0
C      1  0.4386520000000  0.5347410000000  0.5135670000000 1.0
C      1  0.4586360000000  0.4662240000000  0.4530920000000 1.0
C      1  0.5191560000000  0.5342900000000  0.4381490000000 1.0
C      1  0.5613480000000  0.4652590000000  0.4864330000000 1.0
C      1  0.5413640000000  0.5337760000000  0.5469080000000 1.0
C      1  0.4757840000000  0.5567460000000  0.5610130000000 1.0
C      1  0.4409720000000  0.4445130000000  0.5102770000000 1.0
C      1  0.4610100000000  0.5570340000000  0.4526370000000 1.0
C      1  0.5242160000000  0.4432540000000  0.4389870000000 1.0
C      1  0.5590280000000  0.5554870000000  0.4897230000000 1.0
C      1  0.5389900000000  0.4429660000000  0.5473630000000 1.0
C      1  0.5179520000000  0.5279100000000  0.4882540000000 1.0
C      1  0.5146350000000  0.4675270000000  0.5121130000000 1.0
C      1  0.4972160000000  0.5367940000000  0.5219240000000 1.0
C      1  0.4820480000000  0.4720900000000  0.5117460000000 1.0
C      1  0.4853650000000  0.5324730000000  0.4878870000000 1.0
C      1  0.5027840000000  0.4632060000000  0.4780760000000 1.0
C      1  0.4846950000000  0.5563390000000  0.4680100000000 1.0
C      1  0.5218150000000  0.4420750000000  0.4671310000000 1.0
C      1  0.5325510000000  0.5524940000000  0.5001900000000 1.0
C      1  0.5153050000000  0.4436610000000  0.5319900000000 1.0
C      1  0.4781850000000  0.5579250000000  0.5328690000000 1.0
C      1  0.4674490000000  0.4475060000000  0.4998100000000 1.0
C      1  0.5320010000000  0.4874150000000  0.4560720000000 1.0
C      1  0.5536810000000  0.5111610000000  0.5069640000000 1.0
C      1  0.5204090000000  0.4879340000000  0.5506790000000 1.0
C      1  0.4679990000000  0.5125850000000  0.5439280000000 1.0
C      1  0.4463190000000  0.4888390000000  0.4930360000000 1.0
C      1  0.4795910000000  0.5120660000000  0.4493210000000 1.0
C      1  0.4513060000000  0.5194660000000  0.4911120000000 1.0
C      1  0.4842320000000  0.4815050000000  0.4520060000000 1.0
C      1  0.5313970000000  0.5179320000000  0.4601410000000 1.0
C      1  0.5486940000000  0.4805340000000  0.5088880000000 1.0
C      1  0.5157680000000  0.5184950000000  0.5479940000000 1.0
C      1  0.4686030000000  0.4820680000000  0.5398590000000 1.0
C      1  0.4977750000000  0.4798290000000  0.4251200000000 1.0
C      1  0.5617250000000  0.5196130000000  0.4610150000000 1.0
C      1  0.5646250000000  0.4791260000000  0.5349050000000 1.0
C      1  0.5022250000000  0.5201710000000  0.5748800000000 1.0
C      1  0.4382750000000  0.4803870000000  0.5389850000000 1.0
C      1  0.4353750000000  0.5208740000000  0.4650950000000 1.0
END
