TITL C-8698-8182-129 -3.9742947898326e-07 125000 -370.022634613166 0 0 60 (C5) n - 1
REM
REM in /home/bkarasulu/CARBON/AIRSS/Generating-Clusters/EDIP-Nigel-Params/Higher-Symm/Box-15A/Only-C60/SD-CG/HFTN-CG
REM
REM
REM
REM
REM
REM ./C.cell (414f73aa93bd7a1190c7fd0f31ff2f98)
REM
REM compiler GCC version 9.2.1 20190827 (Red Hat 9.2.1-1)
REM options -cpp -mtune=generic -march=x86-64 -g -O0 -fpre-include=/usr/include/finclude/math-vector-fortran.h
REM seed -1025006050 527183203 633585239 671374112 1847028763 -1907730148 -900832260 1649869859 -1269956021 -994693060 -1522089987 2052328347 -2009548936 -870759407 -1655557076 -190474279 725710236 302753013 175824316 -1540612620 -1283161507 -220343435 1802336314 -959582765 1908490076 516603909 -1909998286 1363301077 1014992248 -1175685196 1013994820 2024872467 -588530758
REM
CELL 1.54180   50.00000   50.00000   50.00000   90.00000   90.00000   90.00000
LATT -1
SFAC C  
C      1  0.5230010000000  0.5541530000000  0.4893820000000 1.0
C      1  0.5178290000000  0.5541230000000  0.5180880000000 1.0
C      1  0.4889320000000  0.5544620000000  0.5220400000000 1.0
C      1  0.4762450000000  0.5547010000000  0.4957770000000 1.0
C      1  0.4973010000000  0.5545110000000  0.4755930000000 1.0
C      1  0.5310430000000  0.4391220000000  0.5258340000000 1.0
C      1  0.4843300000000  0.4396510000000  0.5380740000000 1.0
C      1  0.4582560000000  0.4401000000000  0.4974270000000 1.0
C      1  0.4888560000000  0.4398480000000  0.4600650000000 1.0
C      1  0.5338410000000  0.4392440000000  0.4776220000000 1.0
C      1  0.5436970000000  0.4732100000000  0.5662570000000 1.0
C      1  0.4501930000000  0.4743600000000  0.5622820000000 1.0
C      1  0.4250820000000  0.4749570000000  0.4721190000000 1.0
C      1  0.5030680000000  0.4741760000000  0.4203700000000 1.0
C      1  0.5763760000000  0.4730960000000  0.4785510000000 1.0
C      1  0.5536060000000  0.4864150000000  0.5451410000000 1.0
C      1  0.4734880000000  0.4873250000000  0.5650560000000 1.0
C      1  0.4297940000000  0.4880830000000  0.4950090000000 1.0
C      1  0.4829070000000  0.4876420000000  0.4318020000000 1.0
C      1  0.5594270000000  0.4866110000000  0.4627850000000 1.0
C      1  0.5466680000000  0.5421980000000  0.4772930000000 1.0
C      1  0.5365040000000  0.5421280000000  0.5369710000000 1.0
C      1  0.4766100000000  0.5428280000000  0.5457470000000 1.0
C      1  0.4497580000000  0.5433300000000  0.4914930000000 1.0
C      1  0.4930560000000  0.5429410000000  0.4491860000000 1.0
C      1  0.4486820000000  0.5378570000000  0.5479870000000 1.0
C      1  0.4389370000000  0.5382420000000  0.4656720000000 1.0
C      1  0.5142080000000  0.5374380000000  0.4309640000000 1.0
C      1  0.5704720000000  0.5365570000000  0.4918290000000 1.0
C      1  0.5299740000000  0.5368160000000  0.5641530000000 1.0
C      1  0.4997880000000  0.4932020000000  0.5556850000000 1.0
C      1  0.4469020000000  0.4939700000000  0.5170700000000 1.0
C      1  0.4672840000000  0.4939240000000  0.4548350000000 1.0
C      1  0.5327670000000  0.4931260000000  0.4549870000000 1.0
C      1  0.5528560000000  0.4926800000000  0.5173160000000 1.0
C      1  0.4666920000000  0.5418520000000  0.4386340000000 1.0
C      1  0.5485410000000  0.5408230000000  0.4489700000000 1.0
C      1  0.5640010000000  0.5403730000000  0.5300120000000 1.0
C      1  0.4917070000000  0.5411240000000  0.5697630000000 1.0
C      1  0.4315670000000  0.5420380000000  0.5132880000000 1.0
C      1  0.4855000000000  0.4973160000000  0.4796180000000 1.0
C      1  0.5148700000000  0.4969580000000  0.4799370000000 1.0
C      1  0.5236410000000  0.4967610000000  0.5079700000000 1.0
C      1  0.4996920000000  0.4969970000000  0.5249760000000 1.0
C      1  0.4761200000000  0.4973410000000  0.5074530000000 1.0
C      1  0.4340940000000  0.5191490000000  0.5309560000000 1.0
C      1  0.4504100000000  0.5192230000000  0.4467100000000 1.0
C      1  0.5355670000000  0.5182210000000  0.4361920000000 1.0
C      1  0.5718820000000  0.5175280000000  0.5139370000000 1.0
C      1  0.5091680000000  0.5181010000000  0.5725040000000 1.0
C      1  0.4607530000000  0.4460540000000  0.5246010000000 1.0
C      1  0.4638550000000  0.4461900000000  0.4707810000000 1.0
C      1  0.5159950000000  0.4456000000000  0.4570980000000 1.0
C      1  0.5451170000000  0.4450990000000  0.5024610000000 1.0
C      1  0.5109760000000  0.4453790000000  0.5441800000000 1.0
C      1  0.5165330000000  0.4685630000000  0.5614210000000 1.0
C      1  0.4463410000000  0.4695030000000  0.5349970000000 1.0
C      1  0.4497820000000  0.4697030000000  0.4600690000000 1.0
C      1  0.5221010000000  0.4688880000000  0.4401860000000 1.0
C      1  0.5633550000000  0.4681830000000  0.5028250000000 1.0
END
