TITL C-8692-4986-216 -2.30339694433513e-05 125000 -365.120460451709 0 0 60 (C1) n - 1
REM
REM in /home/bkarasulu/CARBON/AIRSS/Generating-Clusters/EDIP-Nigel-Params/Higher-Symm/Box-15A/Only-C60/SD-CG/HFTN-CG
REM
REM
REM
REM
REM
REM ./C.cell (414f73aa93bd7a1190c7fd0f31ff2f98)
REM
REM compiler GCC version 9.2.1 20190827 (Red Hat 9.2.1-1)
REM options -cpp -mtune=generic -march=x86-64 -g -O0 -fpre-include=/usr/include/finclude/math-vector-fortran.h
REM seed 640962361 866253134 1425639203 -2130094073 363974252 575647623 1047285641 -1511803854 -1558558239 2046383912 892226080 1163573269 -2107634395 -1752613164 -2018618885 759323354 -577523371 1177908112 1864711913 2088852894 472742652 -1675278708 -403461034 -317663986 -1737432116 -706493171 -833574243 27188283 -1466413797 -1313715105 -1449792836 -1714836469 1215256879
REM
CELL 1.54180   50.00000   50.00000   50.00000   90.00000   90.00000   90.00000
LATT -1
SFAC C  
C      1  0.4769200000000  0.4914700000000  0.4643720000000 1.0
C      1  0.5027080000000  0.5235950000000  0.4651390000000 1.0
C      1  0.5176270000000  0.4851770000000  0.4652630000000 1.0
C      1  0.4773520000000  0.5112950000000  0.5372580000000 1.0
C      1  0.5003110000000  0.4735790000000  0.5375480000000 1.0
C      1  0.5213650000000  0.5122160000000  0.5379050000000 1.0
C      1  0.5650420000000  0.4537430000000  0.4805900000000 1.0
C      1  0.4314890000000  0.4660620000000  0.4827590000000 1.0
C      1  0.5066780000000  0.5792320000000  0.4821510000000 1.0
C      1  0.5639350000000  0.5465110000000  0.5183780000000 1.0
C      1  0.4274170000000  0.5318460000000  0.5164050000000 1.0
C      1  0.5067690000000  0.4224800000000  0.5171270000000 1.0
C      1  0.5306210000000  0.5304320000000  0.4538240000000 1.0
C      1  0.5103130000000  0.4581650000000  0.4524340000000 1.0
C      1  0.4584620000000  0.5119060000000  0.4518310000000 1.0
C      1  0.5349380000000  0.4667590000000  0.5474400000000 1.0
C      1  0.5097240000000  0.5453280000000  0.5486450000000 1.0
C      1  0.4586600000000  0.4891870000000  0.5488180000000 1.0
C      1  0.5203980000000  0.5663420000000  0.5027800000000 1.0
C      1  0.5469710000000  0.4486970000000  0.5012170000000 1.0
C      1  0.4425630000000  0.4850950000000  0.5009170000000 1.0
C      1  0.5224560000000  0.4327340000000  0.4961960000000 1.0
C      1  0.5467540000000  0.5537850000000  0.4975440000000 1.0
C      1  0.4321240000000  0.5134150000000  0.4958110000000 1.0
C      1  0.4836490000000  0.4205660000000  0.4667600000000 1.0
C      1  0.4405690000000  0.5542700000000  0.4669120000000 1.0
C      1  0.5763170000000  0.5248350000000  0.4686450000000 1.0
C      1  0.4820010000000  0.5799140000000  0.5302110000000 1.0
C      1  0.4396700000000  0.4473240000000  0.5327960000000 1.0
C      1  0.5783700000000  0.4748390000000  0.5289050000000 1.0
C      1  0.4837920000000  0.4249060000000  0.5310290000000 1.0
C      1  0.4404900000000  0.5514680000000  0.5294310000000 1.0
C      1  0.5739690000000  0.5248170000000  0.5306040000000 1.0
C      1  0.4847620000000  0.5768280000000  0.4670020000000 1.0
C      1  0.4413750000000  0.4464900000000  0.4675750000000 1.0
C      1  0.5744870000000  0.4748150000000  0.4670890000000 1.0
C      1  0.4648770000000  0.4413290000000  0.5438780000000 1.0
C      1  0.4656060000000  0.5588900000000  0.5395390000000 1.0
C      1  0.5682600000000  0.4989620000000  0.5396010000000 1.0
C      1  0.4667950000000  0.5581480000000  0.4568470000000 1.0
C      1  0.4670430000000  0.4417760000000  0.4582140000000 1.0
C      1  0.5658590000000  0.5001450000000  0.4596000000000 1.0
C      1  0.5005440000000  0.5275820000000  0.4953410000000 1.0
C      1  0.5203560000000  0.4834970000000  0.4955700000000 1.0
C      1  0.4724930000000  0.4891690000000  0.4948880000000 1.0
C      1  0.4952260000000  0.4723720000000  0.5079860000000 1.0
C      1  0.5228620000000  0.5111370000000  0.5080060000000 1.0
C      1  0.4751610000000  0.5162900000000  0.5072770000000 1.0
C      1  0.4817830000000  0.4651840000000  0.4489790000000 1.0
C      1  0.4787770000000  0.5327850000000  0.4482240000000 1.0
C      1  0.5383720000000  0.5021910000000  0.4501840000000 1.0
C      1  0.4812370000000  0.5373680000000  0.5524150000000 1.0
C      1  0.4769910000000  0.4661050000000  0.5547390000000 1.0
C      1  0.5417270000000  0.4953180000000  0.5518410000000 1.0
C      1  0.5555210000000  0.4578820000000  0.5280160000000 1.0
C      1  0.4402460000000  0.4754260000000  0.5293020000000 1.0
C      1  0.5080030000000  0.5683490000000  0.5297160000000 1.0
C      1  0.5528640000000  0.5409720000000  0.4713210000000 1.0
C      1  0.4391950000000  0.5258830000000  0.4697780000000 1.0
C      1  0.5091540000000  0.4331170000000  0.4694310000000 1.0
END
