TITL C-8695-8180-33 6.7614083739614e-07 125000 -355.308512853872 0 0 60 (C2h) n - 1
REM
REM in /home/bkarasulu/CARBON/AIRSS/Generating-Clusters/EDIP-Nigel-Params/Higher-Symm/Box-15A/Only-C60/SD-CG/HFTN-CG
REM
REM
REM
REM
REM
REM ./C.cell (414f73aa93bd7a1190c7fd0f31ff2f98)
REM
REM compiler GCC version 9.2.1 20190827 (Red Hat 9.2.1-1)
REM options -cpp -mtune=generic -march=x86-64 -g -O0 -fpre-include=/usr/include/finclude/math-vector-fortran.h
REM seed -2099202003 929897779 537924191 -582292506 -1626546164 -2104809228 -1845487567 53877202 1662412091 -633559277 1543216830 196220935 228604173 1076964070 -554264642 490318809 -1214482131 -555057636 163940372 2025618470 -1186739444 1108508174 -1174459272 2031382014 125818558 -530992519 -1116371739 1567041544 -517998375 -393464976 -1561487366 1078293945 1504400725
REM
CELL 1.54180   50.00000   50.00000   50.00000   90.00000   90.00000   90.00000
LATT -1
SFAC C  
C      1  0.5138500000000  0.5676390000000  0.5346090000000 1.0
C      1  0.5134530000000  0.5618450000000  0.4649670000000 1.0
C      1  0.5131540000000  0.4897470000000  0.4205200000000 1.0
C      1  0.5136080000000  0.4323000000000  0.4654140000000 1.0
C      1  0.5131190000000  0.4380960000000  0.5350550000000 1.0
C      1  0.5130650000000  0.5101950000000  0.5795020000000 1.0
C      1  0.4866270000000  0.5676900000000  0.5344740000000 1.0
C      1  0.4864860000000  0.5620230000000  0.4649570000000 1.0
C      1  0.4864210000000  0.4899770000000  0.4204220000000 1.0
C      1  0.4863850000000  0.4323700000000  0.4655030000000 1.0
C      1  0.4861520000000  0.4380370000000  0.5350190000000 1.0
C      1  0.4863310000000  0.5100840000000  0.5795550000000 1.0
C      1  0.4730410000000  0.5186680000000  0.4812580000000 1.0
C      1  0.4844050000000  0.4937630000000  0.4700740000000 1.0
C      1  0.4842050000000  0.4713380000000  0.4930590000000 1.0
C      1  0.4729270000000  0.4814520000000  0.5186960000000 1.0
C      1  0.4843820000000  0.5063060000000  0.5298990000000 1.0
C      1  0.4843210000000  0.5287320000000  0.5069140000000 1.0
C      1  0.5276850000000  0.5186360000000  0.4811020000000 1.0
C      1  0.5160410000000  0.4936870000000  0.4700420000000 1.0
C      1  0.5161600000000  0.4712240000000  0.4931750000000 1.0
C      1  0.5275700000000  0.4812420000000  0.5189450000000 1.0
C      1  0.5160180000000  0.5062420000000  0.5299850000000 1.0
C      1  0.5162760000000  0.5287040000000  0.5068530000000 1.0
C      1  0.4248970000000  0.4835520000000  0.5388790000000 1.0
C      1  0.4335210000000  0.5196640000000  0.5297790000000 1.0
C      1  0.4283730000000  0.5434400000000  0.4892300000000 1.0
C      1  0.4250370000000  0.5167810000000  0.4609940000000 1.0
C      1  0.4334850000000  0.4806310000000  0.4701080000000 1.0
C      1  0.4281630000000  0.4568770000000  0.5106480000000 1.0
C      1  0.5746600000000  0.4836520000000  0.5399370000000 1.0
C      1  0.5670280000000  0.5200820000000  0.5310100000000 1.0
C      1  0.5714460000000  0.5417060000000  0.4893070000000 1.0
C      1  0.5747990000000  0.5160170000000  0.4601900000000 1.0
C      1  0.5669900000000  0.4796210000000  0.4691040000000 1.0
C      1  0.5712420000000  0.4579780000000  0.5108140000000 1.0
C      1  0.5595080000000  0.5443250000000  0.5160030000000 1.0
C      1  0.5600100000000  0.5429860000000  0.4621200000000 1.0
C      1  0.5562630000000  0.4873230000000  0.4439270000000 1.0
C      1  0.5593390000000  0.4554120000000  0.4840980000000 1.0
C      1  0.5597550000000  0.4567480000000  0.5379810000000 1.0
C      1  0.5562230000000  0.5124280000000  0.5561680000000 1.0
C      1  0.4408660000000  0.5445850000000  0.5157990000000 1.0
C      1  0.4397410000000  0.5438460000000  0.4619630000000 1.0
C      1  0.4436820000000  0.4881930000000  0.4446610000000 1.0
C      1  0.4406950000000  0.4556780000000  0.4841010000000 1.0
C      1  0.4394830000000  0.4564210000000  0.5379340000000 1.0
C      1  0.4436410000000  0.5120570000000  0.5552430000000 1.0
C      1  0.5304140000000  0.4600200000000  0.5388310000000 1.0
C      1  0.5278570000000  0.5136660000000  0.5564040000000 1.0
C      1  0.5298370000000  0.5531880000000  0.5161540000000 1.0
C      1  0.5306570000000  0.5398440000000  0.4612210000000 1.0
C      1  0.5278910000000  0.4862110000000  0.4436430000000 1.0
C      1  0.5296280000000  0.4466810000000  0.4838960000000 1.0
C      1  0.4688900000000  0.4600960000000  0.5383870000000 1.0
C      1  0.4720190000000  0.5135760000000  0.5561430000000 1.0
C      1  0.4706510000000  0.5532720000000  0.5159930000000 1.0
C      1  0.4691320000000  0.5400420000000  0.4615600000000 1.0
C      1  0.4720540000000  0.4865480000000  0.4438100000000 1.0
C      1  0.4704420000000  0.4468590000000  0.4839580000000 1.0
END
