TITL C-8696-5006-122 1.19329033841631e-05 125000 -359.327074155445 0 0 60 (C1) n - 1
REM
REM in /home/bkarasulu/CARBON/AIRSS/Generating-Clusters/EDIP-Nigel-Params/Higher-Symm/Box-15A/Only-C60/SD-CG/HFTN-CG
REM
REM
REM
REM
REM
REM ./C.cell (414f73aa93bd7a1190c7fd0f31ff2f98)
REM
REM compiler GCC version 9.2.1 20190827 (Red Hat 9.2.1-1)
REM options -cpp -mtune=generic -march=x86-64 -g -O0 -fpre-include=/usr/include/finclude/math-vector-fortran.h
REM seed 1467628413 361620996 262459054 -1300668482 -325710234 -2100586890 1884959759 1118873330 893860141 -1821975838 -1063258669 -646932789 -883517800 947370955 674757327 -1156635657 1496940436 -344715166 1791767176 -588217975 1681159750 1811379154 1755645351 1107122719 -380127327 -1151195405 14976547 2113078289 -1014620939 -379486759 -1955010470 -1766593039 1464836642
REM
CELL 1.54180   50.00000   50.00000   50.00000   90.00000   90.00000   90.00000
LATT -1
SFAC C  
C      1  0.5462670000000  0.5129920000000  0.4915540000000 1.0
C      1  0.5301880000000  0.5359710000000  0.5074230000000 1.0
C      1  0.5038710000000  0.5439030000000  0.4904720000000 1.0
C      1  0.4778510000000  0.5357930000000  0.5068350000000 1.0
C      1  0.4621200000000  0.5137120000000  0.4911180000000 1.0
C      1  0.4615600000000  0.4875390000000  0.5088410000000 1.0
C      1  0.4769180000000  0.4649650000000  0.4927480000000 1.0
C      1  0.5025020000000  0.4561320000000  0.5094520000000 1.0
C      1  0.5291750000000  0.4631710000000  0.4927800000000 1.0
C      1  0.5458640000000  0.4857270000000  0.5083980000000 1.0
C      1  0.4777760000000  0.4828380000000  0.4285590000000 1.0
C      1  0.4916570000000  0.4737790000000  0.5724560000000 1.0
C      1  0.5077040000000  0.4809050000000  0.4260850000000 1.0
C      1  0.5171240000000  0.4895090000000  0.5745180000000 1.0
C      1  0.5193830000000  0.5081870000000  0.4245270000000 1.0
C      1  0.5109380000000  0.5184060000000  0.5750540000000 1.0
C      1  0.4977610000000  0.5286910000000  0.4260210000000 1.0
C      1  0.4815580000000  0.5228290000000  0.5741940000000 1.0
C      1  0.4716500000000  0.5129370000000  0.4296620000000 1.0
C      1  0.4694330000000  0.4948760000000  0.5703000000000 1.0
C      1  0.4609190000000  0.4626880000000  0.4419020000000 1.0
C      1  0.4896530000000  0.4472820000000  0.5598710000000 1.0
C      1  0.5242700000000  0.4583230000000  0.4354300000000 1.0
C      1  0.5436880000000  0.4803540000000  0.5656920000000 1.0
C      1  0.5468050000000  0.5134030000000  0.4338090000000 1.0
C      1  0.5301730000000  0.5385280000000  0.5652180000000 1.0
C      1  0.5034690000000  0.5548110000000  0.4382700000000 1.0
C      1  0.4748190000000  0.5463780000000  0.5571520000000 1.0
C      1  0.4483640000000  0.5253120000000  0.4439980000000 1.0
C      1  0.4430780000000  0.4909200000000  0.5562680000000 1.0
C      1  0.5710250000000  0.5209910000000  0.4790790000000 1.0
C      1  0.5450760000000  0.5575770000000  0.5194270000000 1.0
C      1  0.5023710000000  0.5686410000000  0.4743560000000 1.0
C      1  0.4606000000000  0.5553770000000  0.5198140000000 1.0
C      1  0.4361600000000  0.5217780000000  0.4799440000000 1.0
C      1  0.4356810000000  0.4798570000000  0.5206160000000 1.0
C      1  0.4610360000000  0.4458520000000  0.4766940000000 1.0
C      1  0.5004620000000  0.4318140000000  0.5261430000000 1.0
C      1  0.5432890000000  0.4411160000000  0.4806150000000 1.0
C      1  0.5702560000000  0.4772100000000  0.5212610000000 1.0
C      1  0.4795080000000  0.4937590000000  0.5325860000000 1.0
C      1  0.4893040000000  0.4797530000000  0.4710720000000 1.0
C      1  0.5033680000000  0.4767710000000  0.5299470000000 1.0
C      1  0.5185070000000  0.4780450000000  0.4687260000000 1.0
C      1  0.5280070000000  0.4924290000000  0.5319140000000 1.0
C      1  0.5285480000000  0.5066830000000  0.4676870000000 1.0
C      1  0.5193690000000  0.5215090000000  0.5317430000000 1.0
C      1  0.5044630000000  0.5236910000000  0.4694790000000 1.0
C      1  0.4892560000000  0.5221530000000  0.5309300000000 1.0
C      1  0.4800330000000  0.5073710000000  0.4673520000000 1.0
C      1  0.5101890000000  0.4304050000000  0.5520740000000 1.0
C      1  0.5382310000000  0.4427940000000  0.4539670000000 1.0
C      1  0.5647520000000  0.4765910000000  0.5478380000000 1.0
C      1  0.5661140000000  0.5210570000000  0.4523790000000 1.0
C      1  0.5414680000000  0.5556670000000  0.5462750000000 1.0
C      1  0.4859010000000  0.5710670000000  0.4521790000000 1.0
C      1  0.4501490000000  0.5531380000000  0.5451530000000 1.0
C      1  0.4275440000000  0.5113260000000  0.4558210000000 1.0
C      1  0.4344910000000  0.4670630000000  0.5451160000000 1.0
C      1  0.4683020000000  0.4376540000000  0.4512050000000 1.0
END
