TITL C-8696-5006-145 -1.1864104705968e-06 125000 -364.519408598153 0 0 60 (C1) n - 1
REM
REM in /home/bkarasulu/CARBON/AIRSS/Generating-Clusters/EDIP-Nigel-Params/Higher-Symm/Box-15A/Only-C60/SD-CG/HFTN-CG
REM
REM
REM
REM
REM
REM ./C.cell (414f73aa93bd7a1190c7fd0f31ff2f98)
REM
REM compiler GCC version 9.2.1 20190827 (Red Hat 9.2.1-1)
REM options -cpp -mtune=generic -march=x86-64 -g -O0 -fpre-include=/usr/include/finclude/math-vector-fortran.h
REM seed -1383024301 2085232086 -974748686 -1897853677 169893812 -1854199354 -1925156776 -550506098 351545102 852508296 -887527725 37628961 2146913417 -1998906679 105163976 227237558 959049372 367926585 -1091056910 1438258620 136136224 902601040 1370211918 -646007978 637846678 -2115594567 697837434 1883616155 1985349418 -236861904 1949816105 1199193417 609609963
REM
CELL 1.54180   50.00000   50.00000   50.00000   90.00000   90.00000   90.00000
LATT -1
SFAC C  
C      1  0.4788650000000  0.4883820000000  0.4469990000000 1.0
C      1  0.4602670000000  0.4895830000000  0.5413910000000 1.0
C      1  0.5578170000000  0.4901110000000  0.5102300000000 1.0
C      1  0.5591820000000  0.4713210000000  0.5580300000000 1.0
C      1  0.5184470000000  0.4674000000000  0.4260300000000 1.0
C      1  0.4271970000000  0.4856540000000  0.5214570000000 1.0
C      1  0.5456070000000  0.4855110000000  0.4647880000000 1.0
C      1  0.4451720000000  0.4890770000000  0.4792220000000 1.0
C      1  0.5103910000000  0.4800730000000  0.5681860000000 1.0
C      1  0.5357650000000  0.4692270000000  0.5708200000000 1.0
C      1  0.5392470000000  0.4683820000000  0.4427190000000 1.0
C      1  0.4287450000000  0.4732240000000  0.4968900000000 1.0
C      1  0.4936810000000  0.4773070000000  0.4250900000000 1.0
C      1  0.4351250000000  0.4751770000000  0.5453190000000 1.0
C      1  0.5690280000000  0.4804330000000  0.5348370000000 1.0
C      1  0.4573600000000  0.5619560000000  0.5171580000000 1.0
C      1  0.5375420000000  0.5589630000000  0.5293010000000 1.0
C      1  0.5071130000000  0.5600310000000  0.4499360000000 1.0
C      1  0.4785190000000  0.5187600000000  0.4489720000000 1.0
C      1  0.4625180000000  0.5193220000000  0.5445230000000 1.0
C      1  0.5582450000000  0.5196700000000  0.5071100000000 1.0
C      1  0.5657900000000  0.4749910000000  0.4849980000000 1.0
C      1  0.4509200000000  0.4769930000000  0.4517620000000 1.0
C      1  0.4890890000000  0.4624130000000  0.5600590000000 1.0
C      1  0.4492410000000  0.4491160000000  0.4517940000000 1.0
C      1  0.4902240000000  0.4348380000000  0.5597180000000 1.0
C      1  0.5621910000000  0.4476500000000  0.4891580000000 1.0
C      1  0.4691090000000  0.5559470000000  0.4918590000000 1.0
C      1  0.5099170000000  0.5530450000000  0.5289140000000 1.0
C      1  0.5219900000000  0.5552830000000  0.4737530000000 1.0
C      1  0.5496180000000  0.5336870000000  0.5317570000000 1.0
C      1  0.5028890000000  0.5336120000000  0.4403950000000 1.0
C      1  0.4473430000000  0.5366710000000  0.5250790000000 1.0
C      1  0.4546690000000  0.5592200000000  0.4677020000000 1.0
C      1  0.4960600000000  0.5539380000000  0.5533650000000 1.0
C      1  0.5501470000000  0.5580670000000  0.4746340000000 1.0
C      1  0.5221910000000  0.4557840000000  0.5147870000000 1.0
C      1  0.4875140000000  0.4512640000000  0.4828760000000 1.0
C      1  0.4922840000000  0.4540580000000  0.5129850000000 1.0
C      1  0.5277010000000  0.4842770000000  0.5099320000000 1.0
C      1  0.4921840000000  0.4799350000000  0.4737700000000 1.0
C      1  0.4812300000000  0.4832650000000  0.5194720000000 1.0
C      1  0.5506440000000  0.5132350000000  0.4561330000000 1.0
C      1  0.4351670000000  0.5165490000000  0.4769460000000 1.0
C      1  0.5114570000000  0.5066660000000  0.5543860000000 1.0
C      1  0.4529410000000  0.5322820000000  0.4582590000000 1.0
C      1  0.4881870000000  0.5273440000000  0.5578400000000 1.0
C      1  0.5585570000000  0.5311200000000  0.4790670000000 1.0
C      1  0.4652360000000  0.4396890000000  0.4713000000000 1.0
C      1  0.4817500000000  0.4353440000000  0.5334050000000 1.0
C      1  0.5398340000000  0.4389020000000  0.5014780000000 1.0
C      1  0.5285270000000  0.5214340000000  0.4400630000000 1.0
C      1  0.4318110000000  0.5262600000000  0.5036530000000 1.0
C      1  0.5383940000000  0.5185380000000  0.5531640000000 1.0
C      1  0.5044280000000  0.5278470000000  0.5128170000000 1.0
C      1  0.5148610000000  0.5264080000000  0.4823950000000 1.0
C      1  0.4803720000000  0.5272190000000  0.4924830000000 1.0
C      1  0.5066950000000  0.5002800000000  0.5254590000000 1.0
C      1  0.5202500000000  0.4921470000000  0.4810120000000 1.0
C      1  0.4727520000000  0.4951170000000  0.4923600000000 1.0
END
