TITL C-8694-7203-172 -3.49587222017507e-06 125000 -372.52632813702 0 0 60 (C1) n - 1
REM
REM in /home/bkarasulu/CARBON/AIRSS/Generating-Clusters/EDIP-Nigel-Params/Higher-Symm/Box-15A/Only-C60/SD-CG/HFTN-CG
REM
REM
REM
REM
REM
REM ./C.cell (414f73aa93bd7a1190c7fd0f31ff2f98)
REM
REM compiler GCC version 9.2.1 20190827 (Red Hat 9.2.1-1)
REM options -cpp -mtune=generic -march=x86-64 -g -O0 -fpre-include=/usr/include/finclude/math-vector-fortran.h
REM seed -450677916 1112846287 -673153867 1513655729 -55343661 1691682306 1594934186 345870865 694877716 -1188305395 -1181044884 -1412533985 -466787143 1814324186 -1765677894 407410087 -1173291200 -635984015 -398801158 -1718506190 -361227450 -1251328146 844026248 1791529793 -803646368 283598109 1663638767 -736542200 -646940498 -1889299144 70255720 -888158780 837838692
REM
CELL 1.54180   50.00000   50.00000   50.00000   90.00000   90.00000   90.00000
LATT -1
SFAC C  
C      1  0.5167570000000  0.5113810000000  0.5276590000000 1.0
C      1  0.5045260000000  0.4704200000000  0.5173950000000 1.0
C      1  0.4854310000000  0.5099830000000  0.5255580000000 1.0
C      1  0.5379440000000  0.4432230000000  0.4911830000000 1.0
C      1  0.4305340000000  0.4943700000000  0.4929900000000 1.0
C      1  0.5283370000000  0.5580460000000  0.4886600000000 1.0
C      1  0.5333800000000  0.5498630000000  0.5165280000000 1.0
C      1  0.5274640000000  0.4392650000000  0.5197830000000 1.0
C      1  0.4424950000000  0.5045190000000  0.5176280000000 1.0
C      1  0.5416060000000  0.4567450000000  0.5428150000000 1.0
C      1  0.4459490000000  0.4868780000000  0.5411720000000 1.0
C      1  0.5145360000000  0.5544110000000  0.5392370000000 1.0
C      1  0.4507210000000  0.5364700000000  0.4705610000000 1.0
C      1  0.5591970000000  0.5204660000000  0.4728080000000 1.0
C      1  0.4899830000000  0.4426170000000  0.4746550000000 1.0
C      1  0.4481620000000  0.4659460000000  0.4584960000000 1.0
C      1  0.4970720000000  0.5562800000000  0.4524680000000 1.0
C      1  0.5542700000000  0.4753260000000  0.4578130000000 1.0
C      1  0.5239140000000  0.4765210000000  0.4574990000000 1.0
C      1  0.4489830000000  0.4935850000000  0.4485910000000 1.0
C      1  0.5213120000000  0.5406000000000  0.4449520000000 1.0
C      1  0.5229870000000  0.4631960000000  0.5630390000000 1.0
C      1  0.4559590000000  0.4995110000000  0.5643470000000 1.0
C      1  0.5218210000000  0.5422370000000  0.5639450000000 1.0
C      1  0.4974570000000  0.5185850000000  0.4750970000000 1.0
C      1  0.5212370000000  0.4985630000000  0.4787300000000 1.0
C      1  0.4838560000000  0.4866410000000  0.4749040000000 1.0
C      1  0.4761270000000  0.5061290000000  0.4402310000000 1.0
C      1  0.5176000000000  0.5173040000000  0.4296990000000 1.0
C      1  0.5056710000000  0.4925460000000  0.4355390000000 1.0
C      1  0.5672380000000  0.5130850000000  0.5001300000000 1.0
C      1  0.4770450000000  0.4337290000000  0.4999110000000 1.0
C      1  0.4537040000000  0.5499090000000  0.4966970000000 1.0
C      1  0.5562890000000  0.5101480000000  0.5471510000000 1.0
C      1  0.4802820000000  0.4465930000000  0.5461700000000 1.0
C      1  0.4635050000000  0.5438390000000  0.5438610000000 1.0
C      1  0.5174010000000  0.4505780000000  0.4718190000000 1.0
C      1  0.4356230000000  0.5108450000000  0.4685640000000 1.0
C      1  0.5365920000000  0.5384220000000  0.4691970000000 1.0
C      1  0.4945800000000  0.4288300000000  0.5242460000000 1.0
C      1  0.4456110000000  0.5342070000000  0.5207730000000 1.0
C      1  0.5566790000000  0.5300660000000  0.5223660000000 1.0
C      1  0.5266360000000  0.4902250000000  0.5076770000000 1.0
C      1  0.4778460000000  0.4808270000000  0.5047740000000 1.0
C      1  0.4954180000000  0.5319670000000  0.5026110000000 1.0
C      1  0.4739330000000  0.4544870000000  0.4547410000000 1.0
C      1  0.4731500000000  0.5365460000000  0.4502000000000 1.0
C      1  0.5656530000000  0.5005980000000  0.4540810000000 1.0
C      1  0.4746230000000  0.5181340000000  0.5539090000000 1.0
C      1  0.5281090000000  0.5156650000000  0.5560880000000 1.0
C      1  0.4996490000000  0.4691660000000  0.5481260000000 1.0
C      1  0.5016570000000  0.5693730000000  0.4801500000000 1.0
C      1  0.5598200000000  0.4632190000000  0.4855140000000 1.0
C      1  0.4370720000000  0.4657510000000  0.4867070000000 1.0
C      1  0.4531360000000  0.4579070000000  0.5356640000000 1.0
C      1  0.4858880000000  0.5625860000000  0.5329810000000 1.0
C      1  0.5605240000000  0.4797810000000  0.5359280000000 1.0
C      1  0.4586040000000  0.4570500000000  0.5063660000000 1.0
C      1  0.4815230000000  0.5596340000000  0.5026420000000 1.0
C      1  0.5569220000000  0.4852070000000  0.5069770000000 1.0
END
