TITL C-8692-4986-122 -2.26382748418209e-07 125000 -368.09928063141 0 0 60 (D2) n - 1
REM
REM in /home/bkarasulu/CARBON/AIRSS/Generating-Clusters/EDIP-Nigel-Params/Higher-Symm/Box-15A/Only-C60/SD-CG/HFTN-CG
REM
REM
REM
REM
REM
REM ./C.cell (414f73aa93bd7a1190c7fd0f31ff2f98)
REM
REM compiler GCC version 9.2.1 20190827 (Red Hat 9.2.1-1)
REM options -cpp -mtune=generic -march=x86-64 -g -O0 -fpre-include=/usr/include/finclude/math-vector-fortran.h
REM seed -1371490337 -1295067551 1055031565 -1648127286 -1750891011 1056902788 -1348443025 97694515 1463669637 -842399154 -1500459983 1305528372 179128421 -471000509 471794325 685737255 -344451199 416786111 -1274816675 -1461408176 380375949 482355625 -586298662 -1041618593 624775132 821856015 1107036995 -1186808122 -34247435 -51738119 -1990050388 -1410940430 -31569607
REM
CELL 1.54180   50.00000   50.00000   50.00000   90.00000   90.00000   90.00000
LATT -1
SFAC C  
C      1  0.5596890000000  0.4697370000000  0.5326800000000 1.0
C      1  0.5596730000000  0.5302760000000  0.4673040000000 1.0
C      1  0.4401030000000  0.4751090000000  0.5260720000000 1.0
C      1  0.4400910000000  0.5248780000000  0.4739450000000 1.0
C      1  0.5599040000000  0.5248770000000  0.5260680000000 1.0
C      1  0.5599020000000  0.4751360000000  0.4739150000000 1.0
C      1  0.4403200000000  0.5302460000000  0.5327120000000 1.0
C      1  0.4403180000000  0.4697410000000  0.4673050000000 1.0
C      1  0.5818250000000  0.4864700000000  0.5300330000000 1.0
C      1  0.5818140000000  0.5135480000000  0.4699440000000 1.0
C      1  0.4147640000000  0.4870530000000  0.5274150000000 1.0
C      1  0.4147540000000  0.5129280000000  0.4726090000000 1.0
C      1  0.5852430000000  0.5129330000000  0.5273980000000 1.0
C      1  0.5852390000000  0.4870860000000  0.4725780000000 1.0
C      1  0.4181830000000  0.5135140000000  0.5300630000000 1.0
C      1  0.4181780000000  0.4864680000000  0.4699600000000 1.0
C      1  0.5277860000000  0.4408620000000  0.4548760000000 1.0
C      1  0.5277850000000  0.5591440000000  0.5451160000000 1.0
C      1  0.4772820000000  0.4394940000000  0.4507390000000 1.0
C      1  0.4772830000000  0.5605010000000  0.5492680000000 1.0
C      1  0.5227040000000  0.5605310000000  0.4507640000000 1.0
C      1  0.5227310000000  0.4394740000000  0.5492300000000 1.0
C      1  0.4722020000000  0.5591620000000  0.4549150000000 1.0
C      1  0.4722270000000  0.4408320000000  0.5450930000000 1.0
C      1  0.4658820000000  0.4836880000000  0.4624970000000 1.0
C      1  0.4658890000000  0.5163040000000  0.5375120000000 1.0
C      1  0.5361890000000  0.4871800000000  0.4615150000000 1.0
C      1  0.5361970000000  0.5128280000000  0.5384750000000 1.0
C      1  0.4638010000000  0.5128400000000  0.4615310000000 1.0
C      1  0.4638140000000  0.4871520000000  0.5384790000000 1.0
C      1  0.5341070000000  0.5163310000000  0.4624960000000 1.0
C      1  0.5341210000000  0.4836760000000  0.5374940000000 1.0
C      1  0.4842080000000  0.4269150000000  0.5237260000000 1.0
C      1  0.4841860000000  0.5730820000000  0.4762780000000 1.0
C      1  0.5130350000000  0.4277180000000  0.5254240000000 1.0
C      1  0.5130130000000  0.5722840000000  0.4745730000000 1.0
C      1  0.4869720000000  0.5722680000000  0.5254650000000 1.0
C      1  0.4869800000000  0.4277290000000  0.4745390000000 1.0
C      1  0.5157980000000  0.5730730000000  0.5237600000000 1.0
C      1  0.5158070000000  0.4269300000000  0.4762360000000 1.0
C      1  0.5601760000000  0.4465130000000  0.5151310000000 1.0
C      1  0.5601600000000  0.5535000000000  0.4848520000000 1.0
C      1  0.4426820000000  0.4495450000000  0.5128870000000 1.0
C      1  0.4426680000000  0.5504420000000  0.4871290000000 1.0
C      1  0.5573210000000  0.5504480000000  0.5128980000000 1.0
C      1  0.5573290000000  0.4495640000000  0.4870860000000 1.0
C      1  0.4398290000000  0.5534790000000  0.5151760000000 1.0
C      1  0.4398360000000  0.4465080000000  0.4848410000000 1.0
C      1  0.5160030000000  0.5332370000000  0.5433170000000 1.0
C      1  0.5159980000000  0.4667670000000  0.4566790000000 1.0
C      1  0.4868410000000  0.5337720000000  0.5476950000000 1.0
C      1  0.4868350000000  0.4662250000000  0.4523090000000 1.0
C      1  0.5131720000000  0.4662030000000  0.5476740000000 1.0
C      1  0.5131520000000  0.5338000000000  0.4523230000000 1.0
C      1  0.4840090000000  0.4667410000000  0.5433040000000 1.0
C      1  0.4839900000000  0.5332560000000  0.4567010000000 1.0
C      1  0.4695240000000  0.5744680000000  0.5018840000000 1.0
C      1  0.5304770000000  0.4255310000000  0.5018370000000 1.0
C      1  0.4695390000000  0.4255250000000  0.4981250000000 1.0
C      1  0.5304600000000  0.5744760000000  0.4981550000000 1.0
END
