TITL C-8699-7882-113 2.26089767626898e-07 125000 -370.540807031258 0 0 60 (C5) n - 1
REM
REM in /home/bkarasulu/CARBON/AIRSS/Generating-Clusters/EDIP-Nigel-Params/Higher-Symm/Box-15A/Only-C60/SD-CG/HFTN-CG
REM
REM
REM
REM
REM
REM ./C.cell (414f73aa93bd7a1190c7fd0f31ff2f98)
REM
REM compiler GCC version 9.2.1 20190827 (Red Hat 9.2.1-1)
REM options -cpp -mtune=generic -march=x86-64 -g -O0 -fpre-include=/usr/include/finclude/math-vector-fortran.h
REM seed 97861975 145843191 2009117208 -726813297 1556696312 -1002738756 1900526907 722773293 510663389 -280393941 -117900062 915253573 946303632 471632557 117661414 536340996 -1740838844 -1480540137 1148604249 279288585 -2031489536 -1426829896 -293958959 402194688 -98743852 -203458384 497264694 -676542561 1540236012 -1157133363 1738761056 435168868 -1846991193
REM
CELL 1.54180   50.00000   50.00000   50.00000   90.00000   90.00000   90.00000
LATT -1
SFAC C  
C      1  0.4390830000000  0.5495760000000  0.5221460000000 1.0
C      1  0.4342010000000  0.4568360000000  0.5215960000000 1.0
C      1  0.5208730000000  0.4235470000000  0.5194520000000 1.0
C      1  0.5793210000000  0.4957130000000  0.5186760000000 1.0
C      1  0.5287730000000  0.5736030000000  0.5203410000000 1.0
C      1  0.5577340000000  0.4958740000000  0.4662220000000 1.0
C      1  0.5214980000000  0.5544850000000  0.4674350000000 1.0
C      1  0.4545650000000  0.5381170000000  0.4687930000000 1.0
C      1  0.4494340000000  0.4693910000000  0.4684190000000 1.0
C      1  0.5131960000000  0.4432830000000  0.4668300000000 1.0
C      1  0.5266200000000  0.5019000000000  0.5584970000000 1.0
C      1  0.5069240000000  0.5243830000000  0.5590900000000 1.0
C      1  0.4794560000000  0.5125920000000  0.5596110000000 1.0
C      1  0.4821760000000  0.4828200000000  0.5593400000000 1.0
C      1  0.5113250000000  0.4762130000000  0.5586510000000 1.0
C      1  0.4385480000000  0.4919760000000  0.4844030000000 1.0
C      1  0.4884880000000  0.4395010000000  0.4829310000000 1.0
C      1  0.5538230000000  0.4707990000000  0.4817140000000 1.0
C      1  0.5442630000000  0.5426170000000  0.4824340000000 1.0
C      1  0.4730190000000  0.5557050000000  0.4840960000000 1.0
C      1  0.5129310000000  0.4769110000000  0.5080130000000 1.0
C      1  0.5260240000000  0.5049500000000  0.5079240000000 1.0
C      1  0.5034100000000  0.5260660000000  0.5085710000000 1.0
C      1  0.4763410000000  0.5110770000000  0.5090610000000 1.0
C      1  0.4822250000000  0.4806970000000  0.5087160000000 1.0
C      1  0.5103800000000  0.5420220000000  0.5341920000000 1.0
C      1  0.4635410000000  0.5219720000000  0.5350810000000 1.0
C      1  0.4681250000000  0.4712230000000  0.5346200000000 1.0
C      1  0.5177970000000  0.4599090000000  0.5334460000000 1.0
C      1  0.5439120000000  0.5036650000000  0.5331810000000 1.0
C      1  0.5091830000000  0.5230200000000  0.4303700000000 1.0
C      1  0.4803610000000  0.5176430000000  0.4309660000000 1.0
C      1  0.4765630000000  0.4885650000000  0.4308440000000 1.0
C      1  0.5030380000000  0.4759710000000  0.4301720000000 1.0
C      1  0.5231980000000  0.4972660000000  0.4298790000000 1.0
C      1  0.4535530000000  0.4756840000000  0.4410860000000 1.0
C      1  0.5082550000000  0.4498500000000  0.4396980000000 1.0
C      1  0.5497310000000  0.4939070000000  0.4390970000000 1.0
C      1  0.5206620000000  0.5469690000000  0.4401130000000 1.0
C      1  0.4612220000000  0.5357070000000  0.4413420000000 1.0
C      1  0.4715840000000  0.4233570000000  0.5261550000000 1.0
C      1  0.5643120000000  0.4486230000000  0.5242920000000 1.0
C      1  0.5689550000000  0.5446350000000  0.5248710000000 1.0
C      1  0.4790980000000  0.5787080000000  0.5270910000000 1.0
C      1  0.4189200000000  0.5037540000000  0.5278850000000 1.0
C      1  0.4652480000000  0.5587700000000  0.5129460000000 1.0
C      1  0.4334740000000  0.4847900000000  0.5131210000000 1.0
C      1  0.4939950000000  0.4317140000000  0.5114120000000 1.0
C      1  0.5631730000000  0.4728920000000  0.5101810000000 1.0
C      1  0.5454060000000  0.5514170000000  0.5111280000000 1.0
C      1  0.4553860000000  0.4433690000000  0.5366330000000 1.0
C      1  0.5403600000000  0.4391380000000  0.5347320000000 1.0
C      1  0.5706540000000  0.5186630000000  0.5346290000000 1.0
C      1  0.5044030000000  0.5720440000000  0.5364660000000 1.0
C      1  0.4331640000000  0.5255090000000  0.5377050000000 1.0
C      1  0.5244000000000  0.4659880000000  0.4819540000000 1.0
C      1  0.5397380000000  0.5131520000000  0.4819500000000 1.0
C      1  0.4996340000000  0.5423100000000  0.4830400000000 1.0
C      1  0.4595110000000  0.5131660000000  0.4837170000000 1.0
C      1  0.4748170000000  0.4659970000000  0.4830460000000 1.0
END
