TITL C-8698-8182-98 -7.47222219511009e-06 125000 -369.230520036568 0 0 60 (C1) n - 1
REM
REM in /home/bkarasulu/CARBON/AIRSS/Generating-Clusters/EDIP-Nigel-Params/Higher-Symm/Box-15A/Only-C60/SD-CG/HFTN-CG
REM
REM
REM
REM
REM
REM ./C.cell (414f73aa93bd7a1190c7fd0f31ff2f98)
REM
REM compiler GCC version 9.2.1 20190827 (Red Hat 9.2.1-1)
REM options -cpp -mtune=generic -march=x86-64 -g -O0 -fpre-include=/usr/include/finclude/math-vector-fortran.h
REM seed -815378752 1521890838 -653316962 349236619 105201351 831236678 1245061722 -1237907034 -1855851849 608768889 311112428 1009975540 1818062837 -1404097419 1048234204 -1452660197 -1414841297 1596838900 -27575322 1274220035 -1938328451 -756576221 1211988733 267734220 676534155 1547407845 -925215253 -144521502 -216579115 1132266998 -281149085 -783133300 -1496567387
REM
CELL 1.54180   50.00000   50.00000   50.00000   90.00000   90.00000   90.00000
LATT -1
SFAC C  
C      1  0.5535740000000  0.5391080000000  0.4811570000000 1.0
C      1  0.5483460000000  0.4952300000000  0.5380960000000 1.0
C      1  0.5545820000000  0.4658980000000  0.4714630000000 1.0
C      1  0.4486260000000  0.4619190000000  0.4814850000000 1.0
C      1  0.4482710000000  0.5056400000000  0.5396730000000 1.0
C      1  0.4475240000000  0.5319600000000  0.4739200000000 1.0
C      1  0.4967700000000  0.5123120000000  0.5358020000000 1.0
C      1  0.5087580000000  0.4722260000000  0.5029490000000 1.0
C      1  0.5061600000000  0.5191100000000  0.4880870000000 1.0
C      1  0.5071480000000  0.4837680000000  0.5319250000000 1.0
C      1  0.4938460000000  0.5301630000000  0.5117030000000 1.0
C      1  0.4962290000000  0.4917770000000  0.4820260000000 1.0
C      1  0.5195730000000  0.5746880000000  0.5020700000000 1.0
C      1  0.5148990000000  0.4584400000000  0.5596490000000 1.0
C      1  0.5186680000000  0.4655420000000  0.4331130000000 1.0
C      1  0.4807610000000  0.4252110000000  0.5010180000000 1.0
C      1  0.4809890000000  0.5449140000000  0.5612730000000 1.0
C      1  0.4812140000000  0.5297530000000  0.4366200000000 1.0
C      1  0.4392630000000  0.5068320000000  0.4647810000000 1.0
C      1  0.4393930000000  0.5249460000000  0.5218630000000 1.0
C      1  0.4378510000000  0.4689620000000  0.5064670000000 1.0
C      1  0.5631000000000  0.4916260000000  0.4639430000000 1.0
C      1  0.5594830000000  0.4767930000000  0.5203560000000 1.0
C      1  0.5613910000000  0.5324440000000  0.5073320000000 1.0
C      1  0.4903850000000  0.4562930000000  0.4668480000000 1.0
C      1  0.4832330000000  0.5594290000000  0.4752520000000 1.0
C      1  0.4850210000000  0.4948310000000  0.5759240000000 1.0
C      1  0.5084880000000  0.5435990000000  0.4701190000000 1.0
C      1  0.5160200000000  0.4421430000000  0.4740180000000 1.0
C      1  0.5136450000000  0.5049070000000  0.5764330000000 1.0
C      1  0.4851900000000  0.5010020000000  0.4459290000000 1.0
C      1  0.4851390000000  0.5645640000000  0.5384320000000 1.0
C      1  0.4876700000000  0.4454940000000  0.5222210000000 1.0
C      1  0.5136640000000  0.4933410000000  0.4417560000000 1.0
C      1  0.5137420000000  0.4401910000000  0.5348260000000 1.0
C      1  0.5098000000000  0.5543550000000  0.5232560000000 1.0
C      1  0.4685040000000  0.5662350000000  0.5109530000000 1.0
C      1  0.4704680000000  0.4609450000000  0.5411240000000 1.0
C      1  0.4679120000000  0.4790300000000  0.4359240000000 1.0
C      1  0.5306610000000  0.4346820000000  0.5105400000000 1.0
C      1  0.5292550000000  0.5416570000000  0.5424040000000 1.0
C      1  0.5308670000000  0.5168120000000  0.4387230000000 1.0
C      1  0.5318960000000  0.4852920000000  0.5618000000000 1.0
C      1  0.5367900000000  0.4501640000000  0.4531200000000 1.0
C      1  0.5318900000000  0.5599210000000  0.4785940000000 1.0
C      1  0.4727650000000  0.5139530000000  0.5551790000000 1.0
C      1  0.4639450000000  0.5469950000000  0.4551730000000 1.0
C      1  0.4682350000000  0.4402000000000  0.4781010000000 1.0
C      1  0.4911920000000  0.5828080000000  0.4936250000000 1.0
C      1  0.4859790000000  0.4666700000000  0.5659700000000 1.0
C      1  0.4888980000000  0.4565660000000  0.4368510000000 1.0
C      1  0.5095190000000  0.4182890000000  0.4922180000000 1.0
C      1  0.5117130000000  0.5332270000000  0.5653980000000 1.0
C      1  0.5102450000000  0.5385200000000  0.4407270000000 1.0
C      1  0.4500020000000  0.4782770000000  0.5298850000000 1.0
C      1  0.4476120000000  0.4807920000000  0.4586220000000 1.0
C      1  0.4564200000000  0.5372050000000  0.5025350000000 1.0
C      1  0.5486370000000  0.5233830000000  0.5305320000000 1.0
C      1  0.5521890000000  0.5172580000000  0.4600090000000 1.0
C      1  0.5459870000000  0.4617060000000  0.5002060000000 1.0
END
