TITL C-8697-8172-263 -7.38238185321306e-07 125000 -372.312345291491 0 0 60 (C5) n - 1
REM
REM in /home/bkarasulu/CARBON/AIRSS/Generating-Clusters/EDIP-Nigel-Params/Higher-Symm/Box-15A/Only-C60/SD-CG/HFTN-CG
REM
REM
REM
REM
REM
REM ./C.cell (414f73aa93bd7a1190c7fd0f31ff2f98)
REM
REM compiler GCC version 9.2.1 20190827 (Red Hat 9.2.1-1)
REM options -cpp -mtune=generic -march=x86-64 -g -O0 -fpre-include=/usr/include/finclude/math-vector-fortran.h
REM seed -129743544 -146333102 1501211377 1929827415 -1989007480 956715013 -1629928361 1520307006 1009617643 342109860 -1451465289 1168672441 344202205 -1831791223 1005417957 1611336586 -1886358286 -67947964 -1263525232 2017467167 1081956794 1328973284 -1007550367 -1259883241 -1989896313 -1166444374 -779902806 1495438430 476456882 -327226302 -1368285223 -1613980685 -432773678
REM
CELL 1.54180   50.00000   50.00000   50.00000   90.00000   90.00000   90.00000
LATT -1
SFAC C  
C      1  0.5043810000000  0.5588110000000  0.5241750000000 1.0
C      1  0.5243460000000  0.5588110000000  0.5033040000000 1.0
C      1  0.5106660000000  0.5588110000000  0.4778670000000 1.0
C      1  0.4822460000000  0.5588110000000  0.4830170000000 1.0
C      1  0.4783620000000  0.5588110000000  0.5116370000000 1.0
C      1  0.5043810000000  0.4411890000000  0.5241750000000 1.0
C      1  0.5243460000000  0.4411890000000  0.5033040000000 1.0
C      1  0.5106660000000  0.4411890000000  0.4778670000000 1.0
C      1  0.4822460000000  0.4411890000000  0.4830170000000 1.0
C      1  0.4783620000000  0.4411890000000  0.5116370000000 1.0
C      1  0.5653750000000  0.4746470000000  0.5513690000000 1.0
C      1  0.5690570000000  0.4746470000000  0.4536980000000 1.0
C      1  0.4773040000000  0.4746470000000  0.4200150000000 1.0
C      1  0.4169160000000  0.4746470000000  0.4968680000000 1.0
C      1  0.4713470000000  0.4746470000000  0.5780500000000 1.0
C      1  0.5653750000000  0.5253530000000  0.5513690000000 1.0
C      1  0.5690570000000  0.5253530000000  0.4536980000000 1.0
C      1  0.4773040000000  0.5253530000000  0.4200150000000 1.0
C      1  0.4169160000000  0.5253530000000  0.4968680000000 1.0
C      1  0.4713470000000  0.5253530000000  0.5780500000000 1.0
C      1  0.5474250000000  0.4854320000000  0.4401570000000 1.0
C      1  0.4577410000000  0.4854320000000  0.4364030000000 1.0
C      1  0.4264570000000  0.4854320000000  0.5205380000000 1.0
C      1  0.4968070000000  0.4854320000000  0.5762900000000 1.0
C      1  0.5715700000000  0.4854320000000  0.5266110000000 1.0
C      1  0.5474250000000  0.5145680000000  0.4401570000000 1.0
C      1  0.4577410000000  0.5145680000000  0.4364030000000 1.0
C      1  0.4264570000000  0.5145680000000  0.5205380000000 1.0
C      1  0.4968070000000  0.5145680000000  0.5762900000000 1.0
C      1  0.5715700000000  0.5145680000000  0.5266110000000 1.0
C      1  0.4492880000000  0.5263890000000  0.5630250000000 1.0
C      1  0.5442690000000  0.5263890000000  0.5677060000000 1.0
C      1  0.5780720000000  0.5263890000000  0.4788200000000 1.0
C      1  0.5039820000000  0.5263890000000  0.4192040000000 1.0
C      1  0.4243890000000  0.5263890000000  0.4712460000000 1.0
C      1  0.4492880000000  0.4736110000000  0.5630250000000 1.0
C      1  0.5442690000000  0.4736110000000  0.5677060000000 1.0
C      1  0.5780720000000  0.4736110000000  0.4788200000000 1.0
C      1  0.5039820000000  0.4736110000000  0.4192040000000 1.0
C      1  0.4243890000000  0.4736110000000  0.4712460000000 1.0
C      1  0.5094770000000  0.5542750000000  0.5511470000000 1.0
C      1  0.5515720000000  0.5542750000000  0.5067920000000 1.0
C      1  0.5223960000000  0.5542750000000  0.4530510000000 1.0
C      1  0.4622690000000  0.5542750000000  0.4641920000000 1.0
C      1  0.4542850000000  0.5542750000000  0.5248190000000 1.0
C      1  0.5094770000000  0.4457250000000  0.5511470000000 1.0
C      1  0.5515720000000  0.4457250000000  0.5067920000000 1.0
C      1  0.5223960000000  0.4457250000000  0.4530510000000 1.0
C      1  0.4622690000000  0.4457250000000  0.4641920000000 1.0
C      1  0.4542850000000  0.4457250000000  0.5248190000000 1.0
C      1  0.5248310000000  0.4677520000000  0.4362260000000 1.0
C      1  0.4470210000000  0.4677520000000  0.4566770000000 1.0
C      1  0.4424260000000  0.4677520000000  0.5369990000000 1.0
C      1  0.5173960000000  0.4677520000000  0.5661900000000 1.0
C      1  0.5683260000000  0.4677520000000  0.5039090000000 1.0
C      1  0.5248310000000  0.5322480000000  0.4362260000000 1.0
C      1  0.4470210000000  0.5322480000000  0.4566770000000 1.0
C      1  0.4424260000000  0.5322480000000  0.5369990000000 1.0
C      1  0.5173960000000  0.5322480000000  0.5661900000000 1.0
C      1  0.5683260000000  0.5322480000000  0.5039090000000 1.0
END
