TITL C-8698-8182-58 -2.05339150877985e-06 125000 -369.314284282475 0 0 60 (C1) n - 1
REM
REM in /home/bkarasulu/CARBON/AIRSS/Generating-Clusters/EDIP-Nigel-Params/Higher-Symm/Box-15A/Only-C60/SD-CG/HFTN-CG
REM
REM
REM
REM
REM
REM ./C.cell (414f73aa93bd7a1190c7fd0f31ff2f98)
REM
REM compiler GCC version 9.2.1 20190827 (Red Hat 9.2.1-1)
REM options -cpp -mtune=generic -march=x86-64 -g -O0 -fpre-include=/usr/include/finclude/math-vector-fortran.h
REM seed -1756579430 -1078726580 67365027 1182568539 -688290353 -1489218702 -214981157 1080082653 1526899948 1132704261 -1983561946 -505748826 126809957 461003113 -475389258 -1011129299 15638613 409195628 -865384961 -992270662 -1899139270 1784824859 -2121201234 -281903745 485787324 -20056730 -498224108 -547061408 852895044 1226171931 821591296 678918000 -479922911
REM
CELL 1.54180   50.00000   50.00000   50.00000   90.00000   90.00000   90.00000
LATT -1
SFAC C  
C      1  0.5618140000000  0.5310110000000  0.5554500000000 1.0
C      1  0.5519130000000  0.4819120000000  0.5518140000000 1.0
C      1  0.5238510000000  0.4349740000000  0.4677680000000 1.0
C      1  0.5289280000000  0.5599100000000  0.4727080000000 1.0
C      1  0.5414440000000  0.4548290000000  0.4800070000000 1.0
C      1  0.5556600000000  0.5612780000000  0.4837840000000 1.0
C      1  0.5462500000000  0.4834200000000  0.5132380000000 1.0
C      1  0.5587920000000  0.5300400000000  0.5057760000000 1.0
C      1  0.4764510000000  0.5658280000000  0.4796640000000 1.0
C      1  0.4718130000000  0.4291180000000  0.4778840000000 1.0
C      1  0.5057360000000  0.5713560000000  0.4887530000000 1.0
C      1  0.5024010000000  0.4233510000000  0.4859270000000 1.0
C      1  0.4931760000000  0.4691490000000  0.4604500000000 1.0
C      1  0.4975680000000  0.5242920000000  0.4628850000000 1.0
C      1  0.4978520000000  0.4720900000000  0.4913270000000 1.0
C      1  0.5041430000000  0.5186200000000  0.4932660000000 1.0
C      1  0.5356990000000  0.5597390000000  0.5282990000000 1.0
C      1  0.5366620000000  0.4419340000000  0.5256130000000 1.0
C      1  0.5334080000000  0.4605490000000  0.5484370000000 1.0
C      1  0.5366510000000  0.5428550000000  0.5522120000000 1.0
C      1  0.4380750000000  0.4739420000000  0.5093640000000 1.0
C      1  0.4400740000000  0.5223230000000  0.5096790000000 1.0
C      1  0.5111380000000  0.4286750000000  0.5170760000000 1.0
C      1  0.5098300000000  0.5670900000000  0.5186600000000 1.0
C      1  0.4583450000000  0.5649710000000  0.5016130000000 1.0
C      1  0.4541510000000  0.4302030000000  0.5002020000000 1.0
C      1  0.5505150000000  0.5025830000000  0.4673620000000 1.0
C      1  0.5518030000000  0.4737150000000  0.4601590000000 1.0
C      1  0.5693610000000  0.4914270000000  0.5312080000000 1.0
C      1  0.5724040000000  0.5205510000000  0.5311070000000 1.0
C      1  0.5087500000000  0.4618490000000  0.5610850000000 1.0
C      1  0.5131060000000  0.5293360000000  0.5593360000000 1.0
C      1  0.4309890000000  0.5247640000000  0.4829130000000 1.0
C      1  0.4282090000000  0.4732030000000  0.4829070000000 1.0
C      1  0.4736640000000  0.5425890000000  0.4614290000000 1.0
C      1  0.4681070000000  0.4522580000000  0.4587650000000 1.0
C      1  0.4696070000000  0.5432990000000  0.5433150000000 1.0
C      1  0.4660300000000  0.4500210000000  0.5421610000000 1.0
C      1  0.5576010000000  0.5683420000000  0.5112560000000 1.0
C      1  0.5552880000000  0.4474920000000  0.5036740000000 1.0
C      1  0.5131340000000  0.4512790000000  0.4458870000000 1.0
C      1  0.5209820000000  0.5395930000000  0.4530040000000 1.0
C      1  0.4471270000000  0.4487450000000  0.5203690000000 1.0
C      1  0.4505780000000  0.5464460000000  0.5215540000000 1.0
C      1  0.4477140000000  0.5300740000000  0.4608110000000 1.0
C      1  0.4433190000000  0.4667270000000  0.4602200000000 1.0
C      1  0.5394580000000  0.5180880000000  0.4439200000000 1.0
C      1  0.5344050000000  0.4701030000000  0.4358670000000 1.0
C      1  0.4930020000000  0.5427340000000  0.5123230000000 1.0
C      1  0.4899210000000  0.4500160000000  0.5113890000000 1.0
C      1  0.4875160000000  0.5219430000000  0.5504980000000 1.0
C      1  0.4846450000000  0.4702760000000  0.5501950000000 1.0
C      1  0.4954170000000  0.4975070000000  0.4467770000000 1.0
C      1  0.5213560000000  0.4970180000000  0.4310660000000 1.0
C      1  0.5390960000000  0.5085500000000  0.4952060000000 1.0
C      1  0.4587370000000  0.4975190000000  0.4782280000000 1.0
C      1  0.4470260000000  0.4977770000000  0.5499720000000 1.0
C      1  0.4741110000000  0.4966230000000  0.5563940000000 1.0
C      1  0.4844230000000  0.4966330000000  0.4964690000000 1.0
C      1  0.4351420000000  0.4981960000000  0.5248750000000 1.0
END
