TITL C-8692-4986-182 -1.92720136402006e-05 125000 -357.114146794198 0 0 60 (C1) n - 1
REM
REM in /home/bkarasulu/CARBON/AIRSS/Generating-Clusters/EDIP-Nigel-Params/Higher-Symm/Box-15A/Only-C60/SD-CG/HFTN-CG
REM
REM
REM
REM
REM
REM ./C.cell (414f73aa93bd7a1190c7fd0f31ff2f98)
REM
REM compiler GCC version 9.2.1 20190827 (Red Hat 9.2.1-1)
REM options -cpp -mtune=generic -march=x86-64 -g -O0 -fpre-include=/usr/include/finclude/math-vector-fortran.h
REM seed -576800054 1646434582 1892670 -454927320 -112923576 -1689653262 -507340335 -178750233 -423072464 286535177 583954498 -358228039 1474687870 -1455119361 2083964751 108567250 -145234466 -1880997567 95356342 -1450856200 1984170649 -52596849 -179975535 471555383 1043485036 1367785075 -616234523 -2112699229 745166831 -555307315 1490691504 1527481616 852865662
REM
CELL 1.54180   50.00000   50.00000   50.00000   90.00000   90.00000   90.00000
LATT -1
SFAC C  
C      1  0.5052260000000  0.4673170000000  0.5610720000000 1.0
C      1  0.5028390000000  0.4409150000000  0.4680220000000 1.0
C      1  0.5029150000000  0.5319790000000  0.4412730000000 1.0
C      1  0.5039740000000  0.5595520000000  0.5319550000000 1.0
C      1  0.4469500000000  0.4564060000000  0.5295210000000 1.0
C      1  0.4467240000000  0.4849690000000  0.4499530000000 1.0
C      1  0.4460550000000  0.5469500000000  0.4929310000000 1.0
C      1  0.4425650000000  0.5141830000000  0.5378930000000 1.0
C      1  0.5310920000000  0.4548550000000  0.5516430000000 1.0
C      1  0.5290890000000  0.4488740000000  0.4551980000000 1.0
C      1  0.5295120000000  0.5442930000000  0.4487470000000 1.0
C      1  0.5292800000000  0.5504630000000  0.5449190000000 1.0
C      1  0.4327440000000  0.5210120000000  0.4888970000000 1.0
C      1  0.4312820000000  0.5030050000000  0.5134920000000 1.0
C      1  0.4374010000000  0.4739870000000  0.5087910000000 1.0
C      1  0.4381720000000  0.5092920000000  0.4620890000000 1.0
C      1  0.4714630000000  0.4769270000000  0.4910800000000 1.0
C      1  0.4728330000000  0.5061890000000  0.4783740000000 1.0
C      1  0.4726650000000  0.5233640000000  0.5073850000000 1.0
C      1  0.4733260000000  0.4926900000000  0.5197010000000 1.0
C      1  0.4630950000000  0.5523920000000  0.5602840000000 1.0
C      1  0.4684290000000  0.4425640000000  0.5593860000000 1.0
C      1  0.4640260000000  0.4488370000000  0.4474810000000 1.0
C      1  0.4634160000000  0.5639040000000  0.4487640000000 1.0
C      1  0.5611450000000  0.5275700000000  0.5364870000000 1.0
C      1  0.5621290000000  0.4646400000000  0.5275210000000 1.0
C      1  0.5613240000000  0.4713530000000  0.4636080000000 1.0
C      1  0.5614790000000  0.5347670000000  0.4712960000000 1.0
C      1  0.5456440000000  0.4503990000000  0.5085780000000 1.0
C      1  0.5448490000000  0.4903750000000  0.4494000000000 1.0
C      1  0.5452250000000  0.5486010000000  0.4908380000000 1.0
C      1  0.5442100000000  0.5082500000000  0.5499000000000 1.0
C      1  0.4964480000000  0.4829740000000  0.4322830000000 1.0
C      1  0.4956370000000  0.5556820000000  0.4857540000000 1.0
C      1  0.4928140000000  0.5136750000000  0.5537380000000 1.0
C      1  0.4958680000000  0.4428740000000  0.5158010000000 1.0
C      1  0.4726690000000  0.4748640000000  0.4468500000000 1.0
C      1  0.4675230000000  0.5581070000000  0.4760400000000 1.0
C      1  0.4654770000000  0.5261560000000  0.5508120000000 1.0
C      1  0.4741620000000  0.4509180000000  0.5338120000000 1.0
C      1  0.5227680000000  0.5609290000000  0.4746260000000 1.0
C      1  0.5201980000000  0.5244160000000  0.5603070000000 1.0
C      1  0.5237080000000  0.4386130000000  0.5256790000000 1.0
C      1  0.5240400000000  0.4733760000000  0.4351750000000 1.0
C      1  0.4984370000000  0.5396490000000  0.5096190000000 1.0
C      1  0.4972130000000  0.4887660000000  0.5391570000000 1.0
C      1  0.4969930000000  0.4591220000000  0.4912490000000 1.0
C      1  0.4977760000000  0.5087020000000  0.4602800000000 1.0
C      1  0.5222330000000  0.5207500000000  0.5049170000000 1.0
C      1  0.5219110000000  0.4937030000000  0.5220170000000 1.0
C      1  0.5213430000000  0.4772590000000  0.4949910000000 1.0
C      1  0.5220550000000  0.5036990000000  0.4776600000000 1.0
C      1  0.4822370000000  0.4293720000000  0.4528880000000 1.0
C      1  0.4820440000000  0.5496460000000  0.4351910000000 1.0
C      1  0.4832260000000  0.5665850000000  0.5492190000000 1.0
C      1  0.4875760000000  0.4513820000000  0.5766140000000 1.0
C      1  0.5508160000000  0.5211560000000  0.4490650000000 1.0
C      1  0.5509800000000  0.5495260000000  0.5219350000000 1.0
C      1  0.5519010000000  0.4778060000000  0.5501160000000 1.0
C      1  0.5508720000000  0.4494200000000  0.4777270000000 1.0
END
