TITL C-8691-6797-180 -6.03100345825001e-07 125000 -365.417194279795 0 0 60 (C1) n - 1
REM
REM in /home/bkarasulu/CARBON/AIRSS/Generating-Clusters/EDIP-Nigel-Params/Higher-Symm/Box-15A/Only-C60/SD-CG/HFTN-CG
REM
REM
REM
REM
REM
REM ./C.cell (414f73aa93bd7a1190c7fd0f31ff2f98)
REM
REM compiler GCC version 9.2.1 20190827 (Red Hat 9.2.1-1)
REM options -cpp -mtune=generic -march=x86-64 -g -O0 -fpre-include=/usr/include/finclude/math-vector-fortran.h
REM seed 597173582 -1157778109 241528433 -484769879 343059027 -1812864893 18291845 1054261442 57016295 -779465755 -443199471 -1098365351 -487608553 1894710458 -1180836834 -1596262671 488780211 -2098137174 -320811992 963372506 1463450292 556767288 1912007001 -1435686894 1324525795 1386633964 1978401614 1722040817 -1098405925 -2141481971 -1794737413 1323745395 1803415092
REM
CELL 1.54180   50.00000   50.00000   50.00000   90.00000   90.00000   90.00000
LATT -1
SFAC C  
C      1  0.5136180000000  0.5564410000000  0.4660610000000 1.0
C      1  0.4641890000000  0.5093660000000  0.5612810000000 1.0
C      1  0.5605590000000  0.4687280000000  0.5114720000000 1.0
C      1  0.5162590000000  0.4470960000000  0.5227070000000 1.0
C      1  0.4770580000000  0.4467440000000  0.4770100000000 1.0
C      1  0.4859060000000  0.5499380000000  0.5512390000000 1.0
C      1  0.4691970000000  0.4784910000000  0.4405590000000 1.0
C      1  0.5397150000000  0.4872300000000  0.5496460000000 1.0
C      1  0.5374700000000  0.5130310000000  0.4523890000000 1.0
C      1  0.5410890000000  0.5385780000000  0.4992710000000 1.0
C      1  0.4476090000000  0.5364430000000  0.5215900000000 1.0
C      1  0.4413590000000  0.4815290000000  0.4819430000000 1.0
C      1  0.5183380000000  0.4663490000000  0.5507660000000 1.0
C      1  0.4741340000000  0.5514990000000  0.5236060000000 1.0
C      1  0.5582110000000  0.4979270000000  0.4675910000000 1.0
C      1  0.5341850000000  0.5407120000000  0.4556210000000 1.0
C      1  0.4848410000000  0.4573690000000  0.4516620000000 1.0
C      1  0.4894440000000  0.5216450000000  0.5564780000000 1.0
C      1  0.4567430000000  0.4589180000000  0.4922260000000 1.0
C      1  0.5155130000000  0.5539850000000  0.4960130000000 1.0
C      1  0.5457190000000  0.4432850000000  0.5104290000000 1.0
C      1  0.5630820000000  0.4771030000000  0.5379340000000 1.0
C      1  0.4426790000000  0.5199620000000  0.5452780000000 1.0
C      1  0.4468660000000  0.4899640000000  0.4544730000000 1.0
C      1  0.5267790000000  0.5369250000000  0.5689190000000 1.0
C      1  0.5602280000000  0.5294170000000  0.5384170000000 1.0
C      1  0.5275660000000  0.5669190000000  0.5305710000000 1.0
C      1  0.5134720000000  0.4519630000000  0.4467010000000 1.0
C      1  0.4877870000000  0.4705900000000  0.5472260000000 1.0
C      1  0.4870560000000  0.5360190000000  0.4291430000000 1.0
C      1  0.5591660000000  0.4730230000000  0.4505130000000 1.0
C      1  0.4408630000000  0.4682510000000  0.5612770000000 1.0
C      1  0.4434960000000  0.5175500000000  0.4443320000000 1.0
C      1  0.5464170000000  0.4353940000000  0.4818180000000 1.0
C      1  0.4544050000000  0.4490460000000  0.5197330000000 1.0
C      1  0.4624030000000  0.5562930000000  0.4669190000000 1.0
C      1  0.5141290000000  0.5586010000000  0.5549260000000 1.0
C      1  0.5519730000000  0.5526590000000  0.5221920000000 1.0
C      1  0.5423480000000  0.5165250000000  0.5566660000000 1.0
C      1  0.5203800000000  0.4393750000000  0.4715970000000 1.0
C      1  0.4876320000000  0.5534530000000  0.4522730000000 1.0
C      1  0.4793160000000  0.4441850000000  0.5350310000000 1.0
C      1  0.5647280000000  0.4502680000000  0.4664440000000 1.0
C      1  0.4402720000000  0.5399030000000  0.4612000000000 1.0
C      1  0.4387400000000  0.4699680000000  0.5329990000000 1.0
C      1  0.5333610000000  0.4703750000000  0.4355940000000 1.0
C      1  0.4628060000000  0.5229130000000  0.4243590000000 1.0
C      1  0.4658930000000  0.4806320000000  0.5662290000000 1.0
C      1  0.5138680000000  0.4947030000000  0.4579510000000 1.0
C      1  0.4492560000000  0.5158890000000  0.4972050000000 1.0
C      1  0.4991780000000  0.4655670000000  0.5021670000000 1.0
C      1  0.5046490000000  0.5131670000000  0.5224820000000 1.0
C      1  0.4862250000000  0.5094260000000  0.4563280000000 1.0
C      1  0.4868310000000  0.4874260000000  0.5213090000000 1.0
C      1  0.4560510000000  0.4933700000000  0.5203860000000 1.0
C      1  0.5450840000000  0.4887670000000  0.4947540000000 1.0
C      1  0.5357790000000  0.5123510000000  0.5135520000000 1.0
C      1  0.4752980000000  0.5244780000000  0.4831630000000 1.0
C      1  0.4928460000000  0.5358140000000  0.5057090000000 1.0
C      1  0.5199350000000  0.4764620000000  0.4826700000000 1.0
END
