TITL C-8695-8180-245 4.90922977225422e-06 125000 -350.963547211732 0 0 60 (C1) n - 1
REM
REM in /home/bkarasulu/CARBON/AIRSS/Generating-Clusters/EDIP-Nigel-Params/Higher-Symm/Box-15A/Only-C60/SD-CG/HFTN-CG
REM
REM
REM
REM
REM
REM ./C.cell (414f73aa93bd7a1190c7fd0f31ff2f98)
REM
REM compiler GCC version 9.2.1 20190827 (Red Hat 9.2.1-1)
REM options -cpp -mtune=generic -march=x86-64 -g -O0 -fpre-include=/usr/include/finclude/math-vector-fortran.h
REM seed -1068174814 9118013 1851827764 -1435733775 -1148791105 -1885223567 -450482724 216174540 -507606067 1738506975 -1696497998 1927471220 -1133359715 1007277269 389853427 669521528 -432973623 8944924 93829687 -1375427012 -1245490602 1304724041 -1745712386 -1255507860 -1873994805 -246272472 371306435 1653254474 1048092885 -415551927 1942114027 -217488493 223959766
REM
CELL 1.54180   50.00000   50.00000   50.00000   90.00000   90.00000   90.00000
LATT -1
SFAC C  
C      1  0.4304850000000  0.4790750000000  0.5103400000000 1.0
C      1  0.4876520000000  0.4792100000000  0.5737720000000 1.0
C      1  0.5686980000000  0.4781380000000  0.5391920000000 1.0
C      1  0.5462440000000  0.4936720000000  0.4549130000000 1.0
C      1  0.4681780000000  0.4813320000000  0.4359540000000 1.0
C      1  0.5101600000000  0.5340870000000  0.5381480000000 1.0
C      1  0.5309060000000  0.5145750000000  0.4895040000000 1.0
C      1  0.5112110000000  0.5470170000000  0.4612580000000 1.0
C      1  0.4552050000000  0.5359170000000  0.4740880000000 1.0
C      1  0.4692020000000  0.5353170000000  0.5214100000000 1.0
C      1  0.5472200000000  0.5628680000000  0.4817260000000 1.0
C      1  0.5019200000000  0.5684920000000  0.4423550000000 1.0
C      1  0.4590270000000  0.5739770000000  0.4789000000000 1.0
C      1  0.4757940000000  0.5694360000000  0.5383690000000 1.0
C      1  0.5379170000000  0.5599260000000  0.5327180000000 1.0
C      1  0.5473490000000  0.4478270000000  0.5057330000000 1.0
C      1  0.5208320000000  0.4472050000000  0.4568370000000 1.0
C      1  0.4665240000000  0.4378310000000  0.4685720000000 1.0
C      1  0.4600780000000  0.4366970000000  0.5250000000000 1.0
C      1  0.5102630000000  0.4384330000000  0.5459430000000 1.0
C      1  0.4501180000000  0.4812390000000  0.5506240000000 1.0
C      1  0.5329160000000  0.4800060000000  0.5660540000000 1.0
C      1  0.5728630000000  0.4907000000000  0.4942740000000 1.0
C      1  0.5115790000000  0.4820750000000  0.4245250000000 1.0
C      1  0.4341630000000  0.4774080000000  0.4663830000000 1.0
C      1  0.5236190000000  0.4667440000000  0.5061680000000 1.0
C      1  0.5100940000000  0.4612520000000  0.4798420000000 1.0
C      1  0.4874080000000  0.4464210000000  0.4862430000000 1.0
C      1  0.4793710000000  0.4538160000000  0.5115690000000 1.0
C      1  0.5028570000000  0.4598120000000  0.5272960000000 1.0
C      1  0.5057600000000  0.5055510000000  0.5316450000000 1.0
C      1  0.5305980000000  0.4965140000000  0.5121840000000 1.0
C      1  0.4999390000000  0.5178840000000  0.4580280000000 1.0
C      1  0.4720480000000  0.5112780000000  0.4771270000000 1.0
C      1  0.4743120000000  0.5071720000000  0.5132040000000 1.0
C      1  0.5206630000000  0.4993050000000  0.4444490000000 1.0
C      1  0.4572590000000  0.4908840000000  0.4594450000000 1.0
C      1  0.4494880000000  0.4925650000000  0.5253940000000 1.0
C      1  0.5083120000000  0.4906020000000  0.5588830000000 1.0
C      1  0.5604440000000  0.4955240000000  0.5190420000000 1.0
C      1  0.5303250000000  0.5838030000000  0.4902640000000 1.0
C      1  0.5061220000000  0.5889740000000  0.4740090000000 1.0
C      1  0.4826700000000  0.5849370000000  0.4909400000000 1.0
C      1  0.4924040000000  0.5724310000000  0.5151570000000 1.0
C      1  0.5208850000000  0.5776750000000  0.5175650000000 1.0
C      1  0.5631880000000  0.4778340000000  0.4710940000000 1.0
C      1  0.4890120000000  0.4658020000000  0.4264280000000 1.0
C      1  0.4282200000000  0.4619830000000  0.4885980000000 1.0
C      1  0.4657350000000  0.4641390000000  0.5659410000000 1.0
C      1  0.5518510000000  0.4629650000000  0.5552310000000 1.0
C      1  0.4916100000000  0.5408540000000  0.4367340000000 1.0
C      1  0.4432420000000  0.5545200000000  0.4911200000000 1.0
C      1  0.4647670000000  0.5454430000000  0.5470380000000 1.0
C      1  0.5299940000000  0.5446130000000  0.5544070000000 1.0
C      1  0.5472620000000  0.5358640000000  0.4841900000000 1.0
C      1  0.5530240000000  0.4510120000000  0.4767500000000 1.0
C      1  0.4944680000000  0.4424720000000  0.4430680000000 1.0
C      1  0.4445550000000  0.4376980000000  0.4899630000000 1.0
C      1  0.4725200000000  0.4390500000000  0.5523150000000 1.0
C      1  0.5394730000000  0.4401440000000  0.5420810000000 1.0
END
