TITL C-8697-8172-151 -2.27984294838045e-05 125000 -366.372465138308 0 0 60 (C1) n - 1
REM
REM in /home/bkarasulu/CARBON/AIRSS/Generating-Clusters/EDIP-Nigel-Params/Higher-Symm/Box-15A/Only-C60/SD-CG/HFTN-CG
REM
REM
REM
REM
REM
REM ./C.cell (414f73aa93bd7a1190c7fd0f31ff2f98)
REM
REM compiler GCC version 9.2.1 20190827 (Red Hat 9.2.1-1)
REM options -cpp -mtune=generic -march=x86-64 -g -O0 -fpre-include=/usr/include/finclude/math-vector-fortran.h
REM seed 2022191001 1650478684 -763667739 1209850283 1307799855 1704716704 782847120 1539892139 1068840840 -88440827 -731677702 -1954482344 648305188 -669010474 -451189358 1654477568 1252103400 -1313809260 -270468428 -1840250616 1328279060 -286311539 -300707286 1221474149 -1864157408 -1733922044 1112941034 -835597510 -720071023 1534107117 -255125798 -276404681 272374929
REM
CELL 1.54180   50.00000   50.00000   50.00000   90.00000   90.00000   90.00000
LATT -1
SFAC C  
C      1  0.5632620000000  0.4823250000000  0.4448880000000 1.0
C      1  0.5132340000000  0.4827800000000  0.5826510000000 1.0
C      1  0.4237860000000  0.4802350000000  0.4720600000000 1.0
C      1  0.4309080000000  0.4913350000000  0.4968530000000 1.0
C      1  0.5377150000000  0.4930100000000  0.4403690000000 1.0
C      1  0.5300660000000  0.4907500000000  0.5616640000000 1.0
C      1  0.4460430000000  0.5173450000000  0.4930460000000 1.0
C      1  0.5332490000000  0.5182930000000  0.4563120000000 1.0
C      1  0.5209290000000  0.5170830000000  0.5500770000000 1.0
C      1  0.4870130000000  0.5298420000000  0.4407730000000 1.0
C      1  0.5575030000000  0.5274740000000  0.5181220000000 1.0
C      1  0.4556250000000  0.5297870000000  0.5404220000000 1.0
C      1  0.4458990000000  0.5324160000000  0.4664380000000 1.0
C      1  0.5560970000000  0.5335970000000  0.4697840000000 1.0
C      1  0.4983370000000  0.5327170000000  0.5633920000000 1.0
C      1  0.4800810000000  0.5059330000000  0.5222930000000 1.0
C      1  0.4912070000000  0.5064770000000  0.4713240000000 1.0
C      1  0.5293410000000  0.5034840000000  0.5058140000000 1.0
C      1  0.4607330000000  0.5589420000000  0.4751630000000 1.0
C      1  0.5408010000000  0.5597490000000  0.4784400000000 1.0
C      1  0.4988800000000  0.5589710000000  0.5461840000000 1.0
C      1  0.4632920000000  0.4856950000000  0.4440140000000 1.0
C      1  0.5671160000000  0.4882320000000  0.4925090000000 1.0
C      1  0.4694910000000  0.4870110000000  0.5612810000000 1.0
C      1  0.4468950000000  0.4459080000000  0.5049190000000 1.0
C      1  0.5238360000000  0.4468690000000  0.4473450000000 1.0
C      1  0.5306110000000  0.4427460000000  0.5486370000000 1.0
C      1  0.5229480000000  0.5620310000000  0.5038200000000 1.0
C      1  0.4859820000000  0.5623830000000  0.5171930000000 1.0
C      1  0.4918420000000  0.5624300000000  0.4783640000000 1.0
C      1  0.4441280000000  0.4717120000000  0.5159930000000 1.0
C      1  0.5150200000000  0.4730800000000  0.4424740000000 1.0
C      1  0.5370660000000  0.4692160000000  0.5414580000000 1.0
C      1  0.4573440000000  0.5618530000000  0.5056000000000 1.0
C      1  0.5161800000000  0.5623940000000  0.4602450000000 1.0
C      1  0.5268900000000  0.5611200000000  0.5337960000000 1.0
C      1  0.5719890000000  0.4716810000000  0.4692730000000 1.0
C      1  0.4876200000000  0.4714740000000  0.5790840000000 1.0
C      1  0.4403110000000  0.4688690000000  0.4523090000000 1.0
C      1  0.5623940000000  0.4457070000000  0.4736380000000 1.0
C      1  0.4884930000000  0.4449800000000  0.5696440000000 1.0
C      1  0.4503940000000  0.4434750000000  0.4590510000000 1.0
C      1  0.4897370000000  0.4790270000000  0.4593380000000 1.0
C      1  0.5372770000000  0.4740820000000  0.5109660000000 1.0
C      1  0.4703800000000  0.4786860000000  0.5310420000000 1.0
C      1  0.4642030000000  0.4411580000000  0.4832870000000 1.0
C      1  0.5348270000000  0.4407570000000  0.4723850000000 1.0
C      1  0.5026740000000  0.4414060000000  0.5456510000000 1.0
C      1  0.4707670000000  0.5183040000000  0.5627420000000 1.0
C      1  0.4602930000000  0.5175140000000  0.4431720000000 1.0
C      1  0.5686980000000  0.5180450000000  0.4930280000000 1.0
C      1  0.4429100000000  0.5378190000000  0.5155100000000 1.0
C      1  0.5149140000000  0.5384630000000  0.4426370000000 1.0
C      1  0.5425220000000  0.5367560000000  0.5413640000000 1.0
C      1  0.5089820000000  0.5092680000000  0.5252270000000 1.0
C      1  0.4734800000000  0.5087640000000  0.4946840000000 1.0
C      1  0.5183290000000  0.5089950000000  0.4792270000000 1.0
C      1  0.4919670000000  0.4577370000000  0.5232030000000 1.0
C      1  0.4884460000000  0.4592380000000  0.4845150000000 1.0
C      1  0.5190430000000  0.4525680000000  0.4953060000000 1.0
END
