TITL C-8694-7203-289 2.44518527021547e-06 125000 -364.44553098012 0 0 60 (C1) n - 1
REM
REM in /home/bkarasulu/CARBON/AIRSS/Generating-Clusters/EDIP-Nigel-Params/Higher-Symm/Box-15A/Only-C60/SD-CG/HFTN-CG
REM
REM
REM
REM
REM
REM ./C.cell (414f73aa93bd7a1190c7fd0f31ff2f98)
REM
REM compiler GCC version 9.2.1 20190827 (Red Hat 9.2.1-1)
REM options -cpp -mtune=generic -march=x86-64 -g -O0 -fpre-include=/usr/include/finclude/math-vector-fortran.h
REM seed 233727341 -1307520296 -1926830553 -785294209 2074653573 -1733593190 2020015430 -1224630613 -34989403 -1835118347 -685336559 997232906 -1904372257 -191020919 608778597 1754941217 -475528964 961328390 890549029 1258972939 -1781401583 387361046 -951760962 -1947640628 119168021 -1424300181 611518486 -1369217491 65910216 2116014843 -1748698818 -1976822906 578097743
REM
CELL 1.54180   50.00000   50.00000   50.00000   90.00000   90.00000   90.00000
LATT -1
SFAC C  
C      1  0.5755400000000  0.4973380000000  0.5143860000000 1.0
C      1  0.4270340000000  0.5020100000000  0.4819360000000 1.0
C      1  0.4796630000000  0.5755250000000  0.5206050000000 1.0
C      1  0.5224320000000  0.4311280000000  0.4801400000000 1.0
C      1  0.5168600000000  0.5443970000000  0.4569280000000 1.0
C      1  0.4850070000000  0.4535110000000  0.5537230000000 1.0
C      1  0.5431860000000  0.5654140000000  0.5179870000000 1.0
C      1  0.4561200000000  0.4325790000000  0.4875200000000 1.0
C      1  0.5490200000000  0.5095720000000  0.5568170000000 1.0
C      1  0.4512500000000  0.4946220000000  0.4394220000000 1.0
C      1  0.4857260000000  0.4993220000000  0.4927700000000 1.0
C      1  0.5129760000000  0.4980210000000  0.5059780000000 1.0
C      1  0.5426730000000  0.4454830000000  0.4678500000000 1.0
C      1  0.4659140000000  0.5546030000000  0.5320840000000 1.0
C      1  0.4558740000000  0.5351900000000  0.5137840000000 1.0
C      1  0.5495730000000  0.4658460000000  0.4880090000000 1.0
C      1  0.5599200000000  0.4892880000000  0.5398240000000 1.0
C      1  0.4406900000000  0.5132910000000  0.4579840000000 1.0
C      1  0.4961990000000  0.4802950000000  0.5509280000000 1.0
C      1  0.5050210000000  0.5173490000000  0.4486520000000 1.0
C      1  0.4146430000000  0.5144880000000  0.5050490000000 1.0
C      1  0.5771910000000  0.4789510000000  0.4889610000000 1.0
C      1  0.5343330000000  0.5707810000000  0.4917330000000 1.0
C      1  0.4645350000000  0.4376480000000  0.5141140000000 1.0
C      1  0.4336780000000  0.5116400000000  0.5513980000000 1.0
C      1  0.5645010000000  0.4865440000000  0.4421850000000 1.0
C      1  0.4929590000000  0.4412800000000  0.5250670000000 1.0
C      1  0.5084090000000  0.5584760000000  0.4834560000000 1.0
C      1  0.4473600000000  0.4552840000000  0.5308650000000 1.0
C      1  0.5545340000000  0.5649140000000  0.4726640000000 1.0
C      1  0.4433910000000  0.4828840000000  0.5180070000000 1.0
C      1  0.5537480000000  0.5157840000000  0.4780130000000 1.0
C      1  0.5181380000000  0.4911690000000  0.4537660000000 1.0
C      1  0.4804720000000  0.5053880000000  0.5449210000000 1.0
C      1  0.5130200000000  0.4747470000000  0.5272850000000 1.0
C      1  0.4871700000000  0.5231800000000  0.4719220000000 1.0
C      1  0.5248960000000  0.5208420000000  0.5631570000000 1.0
C      1  0.4737430000000  0.4798820000000  0.4352340000000 1.0
C      1  0.5321620000000  0.4925380000000  0.4822360000000 1.0
C      1  0.4665430000000  0.5052220000000  0.5164420000000 1.0
C      1  0.5454560000000  0.4495770000000  0.5136010000000 1.0
C      1  0.4570740000000  0.5511450000000  0.4878380000000 1.0
C      1  0.5199410000000  0.4354050000000  0.5079840000000 1.0
C      1  0.4815700000000  0.5685920000000  0.4931030000000 1.0
C      1  0.4306680000000  0.4732780000000  0.4839860000000 1.0
C      1  0.5649890000000  0.5237990000000  0.5046730000000 1.0
C      1  0.4606940000000  0.5345160000000  0.4633260000000 1.0
C      1  0.5408940000000  0.4669090000000  0.5365020000000 1.0
C      1  0.5460670000000  0.5404580000000  0.4614890000000 1.0
C      1  0.4569710000000  0.4552310000000  0.5574480000000 1.0
C      1  0.4546050000000  0.4582340000000  0.4760610000000 1.0
C      1  0.5446940000000  0.5372100000000  0.5224910000000 1.0
C      1  0.4216010000000  0.4998860000000  0.5289170000000 1.0
C      1  0.5751440000000  0.4979600000000  0.4652840000000 1.0
C      1  0.5387060000000  0.4852610000000  0.4343480000000 1.0
C      1  0.4583510000000  0.5109640000000  0.5630250000000 1.0
C      1  0.5031810000000  0.5257140000000  0.5455490000000 1.0
C      1  0.4947420000000  0.4722980000000  0.4524840000000 1.0
C      1  0.5172420000000  0.5249870000000  0.5195850000000 1.0
C      1  0.4813050000000  0.4721510000000  0.4785050000000 1.0
END
