TITL C-8691-6797-297 -7.58712405541189e-06 125000 -367.780800533176 0 0 60 (Ci) n - 1
REM
REM in /home/bkarasulu/CARBON/AIRSS/Generating-Clusters/EDIP-Nigel-Params/Higher-Symm/Box-15A/Only-C60/SD-CG/HFTN-CG
REM
REM
REM
REM
REM
REM ./C.cell (414f73aa93bd7a1190c7fd0f31ff2f98)
REM
REM compiler GCC version 9.2.1 20190827 (Red Hat 9.2.1-1)
REM options -cpp -mtune=generic -march=x86-64 -g -O0 -fpre-include=/usr/include/finclude/math-vector-fortran.h
REM seed -577484719 -753540454 -536934291 626716243 465964026 -107557734 1821276949 -2024002239 -971634987 -1416619431 2042262700 415756656 -1841318816 -283392370 -2027019287 991478824 -64439626 1370361429 1242971114 534587347 -946373266 765794751 -714077193 1078932114 521997690 -1698648501 898384911 1688169521 -292688944 -1343613804 -218786965 1943305524 1972344887
REM
CELL 1.54180   50.00000   50.00000   50.00000   90.00000   90.00000   90.00000
LATT -1
SFAC C  
C      1  0.4942490000000  0.5369970000000  0.5064680000000 1.0
C      1  0.5057510000000  0.4630030000000  0.4935320000000 1.0
C      1  0.5027810000000  0.5410540000000  0.5531140000000 1.0
C      1  0.4972190000000  0.4589460000000  0.4468860000000 1.0
C      1  0.5316550000000  0.4330140000000  0.4901430000000 1.0
C      1  0.4683450000000  0.5669860000000  0.5098570000000 1.0
C      1  0.4929560000000  0.4885420000000  0.5069500000000 1.0
C      1  0.5070440000000  0.5114580000000  0.4930500000000 1.0
C      1  0.4550550000000  0.5091060000000  0.4748560000000 1.0
C      1  0.5449450000000  0.4908940000000  0.5251440000000 1.0
C      1  0.4647440000000  0.4363910000000  0.5269390000000 1.0
C      1  0.5352560000000  0.5636090000000  0.4730610000000 1.0
C      1  0.5343320000000  0.5095720000000  0.5713930000000 1.0
C      1  0.4656680000000  0.4904280000000  0.4286070000000 1.0
C      1  0.5204800000000  0.5336100000000  0.5731970000000 1.0
C      1  0.4795200000000  0.4663900000000  0.4268030000000 1.0
C      1  0.5492510000000  0.4443380000000  0.5383610000000 1.0
C      1  0.4507490000000  0.5556620000000  0.4616390000000 1.0
C      1  0.4706310000000  0.4324720000000  0.4831710000000 1.0
C      1  0.5293690000000  0.5675280000000  0.5168290000000 1.0
C      1  0.4511310000000  0.5436880000000  0.5102280000000 1.0
C      1  0.5488690000000  0.4563120000000  0.4897720000000 1.0
C      1  0.4623700000000  0.4909190000000  0.4976020000000 1.0
C      1  0.5376300000000  0.5090810000000  0.5023980000000 1.0
C      1  0.4962060000000  0.5464580000000  0.4442840000000 1.0
C      1  0.5037940000000  0.4535420000000  0.5557160000000 1.0
C      1  0.5243720000000  0.5007080000000  0.4316480000000 1.0
C      1  0.4756280000000  0.4992920000000  0.5683520000000 1.0
C      1  0.4385240000000  0.4737820000000  0.5073180000000 1.0
C      1  0.5614760000000  0.5262180000000  0.4926820000000 1.0
C      1  0.4783860000000  0.5599160000000  0.4623070000000 1.0
C      1  0.5216140000000  0.4400840000000  0.5376930000000 1.0
C      1  0.5274510000000  0.4874900000000  0.5882010000000 1.0
C      1  0.4725490000000  0.5125100000000  0.4117990000000 1.0
C      1  0.4832190000000  0.4229710000000  0.5083050000000 1.0
C      1  0.5167810000000  0.5770290000000  0.4916950000000 1.0
C      1  0.5397820000000  0.4788420000000  0.4723010000000 1.0
C      1  0.4602180000000  0.5211580000000  0.5276990000000 1.0
C      1  0.5261010000000  0.4909040000000  0.5483440000000 1.0
C      1  0.4738990000000  0.5090960000000  0.4516560000000 1.0
C      1  0.5139250000000  0.5448850000000  0.5267670000000 1.0
C      1  0.4860750000000  0.4551150000000  0.4732330000000 1.0
C      1  0.5102730000000  0.4366330000000  0.5104860000000 1.0
C      1  0.4897270000000  0.5633670000000  0.4895140000000 1.0
C      1  0.5405320000000  0.5208400000000  0.4454780000000 1.0
C      1  0.4594680000000  0.4791600000000  0.5545220000000 1.0
C      1  0.4462260000000  0.5361010000000  0.4817540000000 1.0
C      1  0.5537740000000  0.4638990000000  0.5182460000000 1.0
C      1  0.4971190000000  0.4936420000000  0.5385260000000 1.0
C      1  0.5028810000000  0.5063580000000  0.4614740000000 1.0
C      1  0.4773520000000  0.5246080000000  0.5523310000000 1.0
C      1  0.5226480000000  0.4753920000000  0.4476690000000 1.0
C      1  0.5142410000000  0.4649610000000  0.5792200000000 1.0
C      1  0.4857590000000  0.5350390000000  0.4207800000000 1.0
C      1  0.5236380000000  0.5434050000000  0.4547470000000 1.0
C      1  0.4763620000000  0.4565950000000  0.5452530000000 1.0
C      1  0.5553150000000  0.5546680000000  0.4919720000000 1.0
C      1  0.4446850000000  0.4453320000000  0.5080280000000 1.0
C      1  0.4444740000000  0.4939730000000  0.5323370000000 1.0
C      1  0.5555260000000  0.5060270000000  0.4676630000000 1.0
END
