TITL C-8692-4986-54 -4.88386977475872e-07 125000 -368.396591190663 0 0 60 (C1) n - 1
REM
REM in /home/bkarasulu/CARBON/AIRSS/Generating-Clusters/EDIP-Nigel-Params/Higher-Symm/Box-15A/Only-C60/SD-CG/HFTN-CG
REM
REM
REM
REM
REM
REM ./C.cell (414f73aa93bd7a1190c7fd0f31ff2f98)
REM
REM compiler GCC version 9.2.1 20190827 (Red Hat 9.2.1-1)
REM options -cpp -mtune=generic -march=x86-64 -g -O0 -fpre-include=/usr/include/finclude/math-vector-fortran.h
REM seed 296841950 843921830 2104028615 -1437158487 -1512250077 -1107049888 731714580 2010677541 1944207967 -2001829821 -1719447024 -765106544 1570753081 339400478 -841097692 667107624 -1790269121 1617100801 322133643 1323929950 -223815389 -114514315 -1388997717 -182435703 209969381 1693914225 -1615660139 1996968702 1512859475 313807824 1638507854 1343343757 1294561142
REM
CELL 1.54180   50.00000   50.00000   50.00000   90.00000   90.00000   90.00000
LATT -1
SFAC C  
C      1  0.5285340000000  0.5070330000000  0.5576970000000 1.0
C      1  0.5620130000000  0.5310810000000  0.4941200000000 1.0
C      1  0.5653090000000  0.5062720000000  0.4798800000000 1.0
C      1  0.5406850000000  0.4585090000000  0.5297490000000 1.0
C      1  0.4711020000000  0.5192370000000  0.4281520000000 1.0
C      1  0.5141420000000  0.5225400000000  0.4468680000000 1.0
C      1  0.4400100000000  0.4770750000000  0.4813300000000 1.0
C      1  0.5058280000000  0.4981870000000  0.5095330000000 1.0
C      1  0.5305270000000  0.5551790000000  0.5234660000000 1.0
C      1  0.5523830000000  0.5332680000000  0.5216690000000 1.0
C      1  0.4859620000000  0.4540140000000  0.4828880000000 1.0
C      1  0.4411320000000  0.5111480000000  0.5454230000000 1.0
C      1  0.4899550000000  0.5234410000000  0.4942460000000 1.0
C      1  0.5396830000000  0.4374830000000  0.4825180000000 1.0
C      1  0.5066150000000  0.4300180000000  0.4475790000000 1.0
C      1  0.4674700000000  0.4722130000000  0.5284980000000 1.0
C      1  0.4310510000000  0.5216120000000  0.4996970000000 1.0
C      1  0.4468910000000  0.5246750000000  0.4736080000000 1.0
C      1  0.5538450000000  0.4832490000000  0.5222200000000 1.0
C      1  0.4270720000000  0.4914540000000  0.5042810000000 1.0
C      1  0.4563570000000  0.4548840000000  0.4894420000000 1.0
C      1  0.5360690000000  0.4677530000000  0.4792430000000 1.0
C      1  0.5131510000000  0.4929840000000  0.4459240000000 1.0
C      1  0.5333780000000  0.5342870000000  0.4681400000000 1.0
C      1  0.5191930000000  0.4590210000000  0.5485930000000 1.0
C      1  0.5410710000000  0.4338790000000  0.5127060000000 1.0
C      1  0.4955170000000  0.4251060000000  0.4978110000000 1.0
C      1  0.5388430000000  0.4809060000000  0.4519010000000 1.0
C      1  0.5117030000000  0.5541000000000  0.5472080000000 1.0
C      1  0.4741220000000  0.5392700000000  0.4734430000000 1.0
C      1  0.4908100000000  0.4903870000000  0.5362900000000 1.0
C      1  0.4419840000000  0.5335440000000  0.5251870000000 1.0
C      1  0.5369540000000  0.5623360000000  0.4626400000000 1.0
C      1  0.4871160000000  0.5348130000000  0.4456370000000 1.0
C      1  0.4873400000000  0.4496800000000  0.4527720000000 1.0
C      1  0.4792670000000  0.5144430000000  0.5490460000000 1.0
C      1  0.4972760000000  0.5829800000000  0.4740770000000 1.0
C      1  0.5155630000000  0.4222400000000  0.4732740000000 1.0
C      1  0.5415710000000  0.5077380000000  0.5317370000000 1.0
C      1  0.5244320000000  0.5807060000000  0.4794050000000 1.0
C      1  0.4593320000000  0.5125710000000  0.5681450000000 1.0
C      1  0.4743000000000  0.5688750000000  0.4810850000000 1.0
C      1  0.4538360000000  0.4971630000000  0.4655390000000 1.0
C      1  0.5166020000000  0.5317170000000  0.5638400000000 1.0
C      1  0.4780570000000  0.4294550000000  0.5479280000000 1.0
C      1  0.5583030000000  0.5020800000000  0.4528060000000 1.0
C      1  0.4895970000000  0.4759700000000  0.4376040000000 1.0
C      1  0.4401270000000  0.4845780000000  0.5307490000000 1.0
C      1  0.4671580000000  0.5483260000000  0.5229780000000 1.0
C      1  0.5314010000000  0.5783350000000  0.5063740000000 1.0
C      1  0.5061540000000  0.4325520000000  0.5468220000000 1.0
C      1  0.5585210000000  0.4817080000000  0.4938320000000 1.0
C      1  0.5151230000000  0.4822480000000  0.5649250000000 1.0
C      1  0.4837140000000  0.5609430000000  0.5426990000000 1.0
C      1  0.4682140000000  0.5723560000000  0.5085860000000 1.0
C      1  0.4706900000000  0.4420980000000  0.5228990000000 1.0
C      1  0.5182230000000  0.5312980000000  0.4950970000000 1.0
C      1  0.4649950000000  0.4935200000000  0.4385330000000 1.0
C      1  0.5157390000000  0.4205980000000  0.5211990000000 1.0
C      1  0.5079920000000  0.4748630000000  0.4904580000000 1.0
END
