TITL C-8699-7882-71 -6.19548285064098e-06 125000 -358.593329275963 0 0 60 (C1) n - 1
REM
REM in /home/bkarasulu/CARBON/AIRSS/Generating-Clusters/EDIP-Nigel-Params/Higher-Symm/Box-15A/Only-C60/SD-CG/HFTN-CG
REM
REM
REM
REM
REM
REM ./C.cell (414f73aa93bd7a1190c7fd0f31ff2f98)
REM
REM compiler GCC version 9.2.1 20190827 (Red Hat 9.2.1-1)
REM options -cpp -mtune=generic -march=x86-64 -g -O0 -fpre-include=/usr/include/finclude/math-vector-fortran.h
REM seed -1033244442 415320784 -2025581691 -1611068964 1486746204 -2065502418 850926541 1450101513 870666300 2051722858 -1676160135 -1554477790 668059492 -2102109684 235236054 749510616 -1367421960 1196767365 86811418 390834425 -2019483597 1875627208 1527074536 -626700620 -848142437 183829171 84847454 1205203591 1390640701 -1558774542 857959103 1291138909 1324458750
REM
CELL 1.54180   50.00000   50.00000   50.00000   90.00000   90.00000   90.00000
LATT -1
SFAC C  
C      1  0.4382120000000  0.5388560000000  0.4544660000000 1.0
C      1  0.4377430000000  0.4907950000000  0.4410010000000 1.0
C      1  0.4429520000000  0.4558760000000  0.4709980000000 1.0
C      1  0.4411750000000  0.4475620000000  0.5213810000000 1.0
C      1  0.4543070000000  0.4876340000000  0.5478020000000 1.0
C      1  0.4391910000000  0.5383320000000  0.5468110000000 1.0
C      1  0.4539310000000  0.5465260000000  0.4991400000000 1.0
C      1  0.4317220000000  0.4932700000000  0.5296450000000 1.0
C      1  0.4238620000000  0.5229100000000  0.5283480000000 1.0
C      1  0.4329090000000  0.5253880000000  0.4987490000000 1.0
C      1  0.4193360000000  0.5246590000000  0.4708820000000 1.0
C      1  0.4177730000000  0.4960450000000  0.4615560000000 1.0
C      1  0.4269910000000  0.4764900000000  0.4842280000000 1.0
C      1  0.4234900000000  0.4686210000000  0.5138690000000 1.0
C      1  0.5088310000000  0.4368630000000  0.4960810000000 1.0
C      1  0.5084670000000  0.4580280000000  0.5399350000000 1.0
C      1  0.5085970000000  0.5080350000000  0.5569320000000 1.0
C      1  0.5087210000000  0.5514170000000  0.5327920000000 1.0
C      1  0.5060880000000  0.5502390000000  0.4816350000000 1.0
C      1  0.5069100000000  0.5138890000000  0.4501700000000 1.0
C      1  0.5070870000000  0.4655930000000  0.4568480000000 1.0
C      1  0.5322840000000  0.5362240000000  0.4860170000000 1.0
C      1  0.5324690000000  0.5120320000000  0.4656010000000 1.0
C      1  0.5317470000000  0.4734810000000  0.4719920000000 1.0
C      1  0.5335970000000  0.4545470000000  0.4971080000000 1.0
C      1  0.5310700000000  0.4692940000000  0.5242130000000 1.0
C      1  0.5337320000000  0.5101660000000  0.5406710000000 1.0
C      1  0.5331190000000  0.5364760000000  0.5244900000000 1.0
C      1  0.5553830000000  0.5530190000000  0.4788220000000 1.0
C      1  0.5553460000000  0.5166440000000  0.4475230000000 1.0
C      1  0.5560080000000  0.4694410000000  0.4561420000000 1.0
C      1  0.5599990000000  0.4417600000000  0.4962700000000 1.0
C      1  0.5549740000000  0.4637250000000  0.5404130000000 1.0
C      1  0.5585290000000  0.5089330000000  0.5560880000000 1.0
C      1  0.5585610000000  0.5501900000000  0.5283830000000 1.0
C      1  0.5759340000000  0.5303140000000  0.5158660000000 1.0
C      1  0.5764150000000  0.5348660000000  0.4855180000000 1.0
C      1  0.5766080000000  0.5124120000000  0.4659880000000 1.0
C      1  0.5747670000000  0.4825380000000  0.4740650000000 1.0
C      1  0.5771370000000  0.4644940000000  0.4982120000000 1.0
C      1  0.5747320000000  0.4770260000000  0.5251350000000 1.0
C      1  0.5774640000000  0.5058190000000  0.5350320000000 1.0
C      1  0.4746220000000  0.4830040000000  0.5259630000000 1.0
C      1  0.4659680000000  0.5296310000000  0.5416380000000 1.0
C      1  0.4746550000000  0.5306580000000  0.5132600000000 1.0
C      1  0.4625700000000  0.5253490000000  0.4617400000000 1.0
C      1  0.4617340000000  0.4954490000000  0.4578200000000 1.0
C      1  0.4679940000000  0.4596640000000  0.4833910000000 1.0
C      1  0.4680560000000  0.4561700000000  0.5129490000000 1.0
C      1  0.4904390000000  0.5362370000000  0.4597090000000 1.0
C      1  0.4907950000000  0.4891980000000  0.4481190000000 1.0
C      1  0.4916880000000  0.4464120000000  0.4730670000000 1.0
C      1  0.4926570000000  0.4406800000000  0.5212210000000 1.0
C      1  0.4924810000000  0.4813520000000  0.5523240000000 1.0
C      1  0.4934190000000  0.5343570000000  0.5534480000000 1.0
C      1  0.4912870000000  0.5554240000000  0.5074130000000 1.0
C      1  0.5544540000000  0.5010790000000  0.5014150000000 1.0
C      1  0.5204440000000  0.4989330000000  0.5057250000000 1.0
C      1  0.4878510000000  0.5029860000000  0.5060300000000 1.0
C      1  0.4484280000000  0.4985610000000  0.4939400000000 1.0
END
