TITL C-8693-7204-335 -1.27050317614116e-05 125000 -355.7036125559 0 0 60 (Cs) n - 1
REM
REM in /home/bkarasulu/CARBON/AIRSS/Generating-Clusters/EDIP-Nigel-Params/Higher-Symm/Box-15A/Only-C60/SD-CG/HFTN-CG
REM
REM
REM
REM
REM
REM ./C.cell (414f73aa93bd7a1190c7fd0f31ff2f98)
REM
REM compiler GCC version 9.2.1 20190827 (Red Hat 9.2.1-1)
REM options -cpp -mtune=generic -march=x86-64 -g -O0 -fpre-include=/usr/include/finclude/math-vector-fortran.h
REM seed 254616235 -891759821 -1182809726 -345773079 350723340 247929821 -1400368820 112923944 -937476104 595714324 -2007756624 -1426824439 -972705940 -1820515758 -633258152 -14731614 1920061526 2081039967 -760039884 -876514488 1932549680 -397400228 -452025111 1546863291 -1381312788 -1522637557 -1197855527 2079556748 -1549831371 67690429 1503577870 2048974754 1294613917
REM
CELL 1.54180   50.00000   50.00000   50.00000   90.00000   90.00000   90.00000
LATT -1
SFAC C  
C      1  0.5848860000000  0.4788470000000  0.4864140000000 1.0
C      1  0.5426730000000  0.5751580000000  0.4864570000000 1.0
C      1  0.4425700000000  0.5653350000000  0.4863880000000 1.0
C      1  0.4201660000000  0.4665720000000  0.4864410000000 1.0
C      1  0.5071200000000  0.4134220000000  0.4864240000000 1.0
C      1  0.5848860000000  0.4788480000000  0.5135870000000 1.0
C      1  0.5426730000000  0.5751580000000  0.5135410000000 1.0
C      1  0.4425700000000  0.5653350000000  0.5136100000000 1.0
C      1  0.4201660000000  0.4665720000000  0.5135590000000 1.0
C      1  0.5071200000000  0.4134220000000  0.5135780000000 1.0
C      1  0.4994400000000  0.4486420000000  0.4490750000000 1.0
C      1  0.5491390000000  0.4834790000000  0.4487080000000 1.0
C      1  0.5298060000000  0.5420270000000  0.4492060000000 1.0
C      1  0.4683890000000  0.5421840000000  0.4468120000000 1.0
C      1  0.4507530000000  0.4858280000000  0.4497030000000 1.0
C      1  0.4994400000000  0.4486430000000  0.5509260000000 1.0
C      1  0.5491380000000  0.4834800000000  0.5512930000000 1.0
C      1  0.5298050000000  0.5420280000000  0.5507930000000 1.0
C      1  0.4683880000000  0.5421850000000  0.5531860000000 1.0
C      1  0.4507530000000  0.4858290000000  0.5502970000000 1.0
C      1  0.4506850000000  0.5433770000000  0.5293830000000 1.0
C      1  0.4438070000000  0.4671640000000  0.5288100000000 1.0
C      1  0.5145240000000  0.4356960000000  0.5291690000000 1.0
C      1  0.5665150000000  0.4932270000000  0.5294410000000 1.0
C      1  0.5243120000000  0.5604990000000  0.5288900000000 1.0
C      1  0.4506850000000  0.5433770000000  0.4706150000000 1.0
C      1  0.4438070000000  0.4671640000000  0.4711900000000 1.0
C      1  0.5145240000000  0.4356950000000  0.4708330000000 1.0
C      1  0.5665150000000  0.4932260000000  0.4705600000000 1.0
C      1  0.5243120000000  0.5604980000000  0.4711080000000 1.0
C      1  0.5240830000000  0.4832200000000  0.5214320000000 1.0
C      1  0.5246700000000  0.5167520000000  0.5213000000000 1.0
C      1  0.4914880000000  0.5261130000000  0.5263120000000 1.0
C      1  0.4726550000000  0.5002200000000  0.5214210000000 1.0
C      1  0.4919900000000  0.4731050000000  0.5214240000000 1.0
C      1  0.5240830000000  0.4832190000000  0.4785690000000 1.0
C      1  0.5246700000000  0.5167520000000  0.4787000000000 1.0
C      1  0.4914880000000  0.5261120000000  0.4736870000000 1.0
C      1  0.4726560000000  0.5002190000000  0.4785790000000 1.0
C      1  0.4919900000000  0.4731050000000  0.4785770000000 1.0
C      1  0.5140940000000  0.5208710000000  0.5636870000000 1.0
C      1  0.4837750000000  0.5210620000000  0.5680680000000 1.0
C      1  0.4755690000000  0.4920820000000  0.5645800000000 1.0
C      1  0.5001900000000  0.4748700000000  0.5643600000000 1.0
C      1  0.5241650000000  0.4927240000000  0.5641590000000 1.0
C      1  0.5140950000000  0.5208700000000  0.4363120000000 1.0
C      1  0.4837760000000  0.5210600000000  0.4319310000000 1.0
C      1  0.4755700000000  0.4920810000000  0.4354200000000 1.0
C      1  0.5001910000000  0.4748680000000  0.4356400000000 1.0
C      1  0.5241660000000  0.4927220000000  0.4358420000000 1.0
C      1  0.5002010000000  0.5529180000000  0.4854110000000 1.0
C      1  0.4494090000000  0.5184030000000  0.4855240000000 1.0
C      1  0.4669980000000  0.4566830000000  0.4854410000000 1.0
C      1  0.5316280000000  0.4543160000000  0.4854170000000 1.0
C      1  0.5542990000000  0.5152060000000  0.4853420000000 1.0
C      1  0.5002010000000  0.5529190000000  0.5145880000000 1.0
C      1  0.4494080000000  0.5184040000000  0.5144750000000 1.0
C      1  0.4669980000000  0.4566840000000  0.5145600000000 1.0
C      1  0.5316280000000  0.4543170000000  0.5145850000000 1.0
C      1  0.5542990000000  0.5152070000000  0.5146580000000 1.0
END
