TITL C-8698-8182-72 -8.59416575696845e-05 125000 -354.279649010061 0 0 60 (C2) n - 1
REM
REM in /home/bkarasulu/CARBON/AIRSS/Generating-Clusters/EDIP-Nigel-Params/Higher-Symm/Box-15A/Only-C60/SD-CG/HFTN-CG
REM
REM
REM
REM
REM
REM ./C.cell (414f73aa93bd7a1190c7fd0f31ff2f98)
REM
REM compiler GCC version 9.2.1 20190827 (Red Hat 9.2.1-1)
REM options -cpp -mtune=generic -march=x86-64 -g -O0 -fpre-include=/usr/include/finclude/math-vector-fortran.h
REM seed -290379516 2090977822 -1489448532 -908647666 -1432850656 123083048 -1514494594 1993475136 -817784149 -1189094531 -257630009 -632784408 637116957 1634756778 654966828 -1899264207 1379793426 1106200304 -130205895 634215734 -789039593 -244658501 795709285 1103067315 1795098433 -93218552 -1704474595 768443405 333980798 -1911453850 432872876 921549451 1919841123
REM
CELL 1.54180   50.00000   50.00000   50.00000   90.00000   90.00000   90.00000
LATT -1
SFAC C  
C      1  0.4610430000000  0.5382180000000  0.5419740000000 1.0
C      1  0.4499530000000  0.4835700000000  0.5487740000000 1.0
C      1  0.4514600000000  0.4496380000000  0.5124620000000 1.0
C      1  0.4618010000000  0.4612790000000  0.4577920000000 1.0
C      1  0.4500390000000  0.5157760000000  0.4509230000000 1.0
C      1  0.4508830000000  0.5497240000000  0.4872420000000 1.0
C      1  0.4295180000000  0.5294900000000  0.4931590000000 1.0
C      1  0.4342760000000  0.5195720000000  0.5213490000000 1.0
C      1  0.4294700000000  0.4904940000000  0.5284930000000 1.0
C      1  0.4298690000000  0.4695920000000  0.5064140000000 1.0
C      1  0.4346680000000  0.4795720000000  0.4782540000000 1.0
C      1  0.4295260000000  0.5085850000000  0.4710800000000 1.0
C      1  0.5589670000000  0.4723140000000  0.4930440000000 1.0
C      1  0.5586290000000  0.4923950000000  0.4721750000000 1.0
C      1  0.5589020000000  0.5205910000000  0.4793340000000 1.0
C      1  0.5585570000000  0.5284530000000  0.5073120000000 1.0
C      1  0.5583550000000  0.5083690000000  0.5281800000000 1.0
C      1  0.5590390000000  0.4801800000000  0.5210240000000 1.0
C      1  0.5452610000000  0.4612910000000  0.5390430000000 1.0
C      1  0.5448800000000  0.4469840000000  0.4859720000000 1.0
C      1  0.5443430000000  0.4840590000000  0.4470700000000 1.0
C      1  0.5449880000000  0.5392990000000  0.4612310000000 1.0
C      1  0.5440980000000  0.5535970000000  0.5142980000000 1.0
C      1  0.5438090000000  0.5165170000000  0.5531970000000 1.0
C      1  0.5011830000000  0.5129970000000  0.5556860000000 1.0
C      1  0.5013250000000  0.4577670000000  0.5411960000000 1.0
C      1  0.5011300000000  0.4448360000000  0.4845240000000 1.0
C      1  0.5016910000000  0.4870220000000  0.4443230000000 1.0
C      1  0.5010230000000  0.5422480000000  0.4588110000000 1.0
C      1  0.5003150000000  0.5551740000000  0.5154800000000 1.0
C      1  0.5140530000000  0.5073690000000  0.5281850000000 1.0
C      1  0.5149050000000  0.4779400000000  0.5217610000000 1.0
C      1  0.5146190000000  0.4706250000000  0.4923980000000 1.0
C      1  0.5143180000000  0.4928160000000  0.4719020000000 1.0
C      1  0.5147480000000  0.5222540000000  0.4783280000000 1.0
C      1  0.5141880000000  0.5295640000000  0.5076890000000 1.0
C      1  0.5057330000000  0.5692000000000  0.4705070000000 1.0
C      1  0.5054880000000  0.5575410000000  0.5515290000000 1.0
C      1  0.5017140000000  0.4891060000000  0.5746880000000 1.0
C      1  0.5064570000000  0.4308790000000  0.5295300000000 1.0
C      1  0.5065510000000  0.4425380000000  0.4485080000000 1.0
C      1  0.5020250000000  0.5109180000000  0.4253230000000 1.0
C      1  0.4735990000000  0.5093240000000  0.4687230000000 1.0
C      1  0.4734490000000  0.5302450000000  0.4915470000000 1.0
C      1  0.4730190000000  0.5202160000000  0.5213970000000 1.0
C      1  0.4735330000000  0.4903300000000  0.5311160000000 1.0
C      1  0.4737950000000  0.4694100000000  0.5082930000000 1.0
C      1  0.4734150000000  0.4794340000000  0.4784410000000 1.0
C      1  0.4860820000000  0.4328770000000  0.5076810000000 1.0
C      1  0.4853710000000  0.4612660000000  0.4399180000000 1.0
C      1  0.4831450000000  0.5302690000000  0.4371430000000 1.0
C      1  0.4852530000000  0.5669360000000  0.4922330000000 1.0
C      1  0.4845020000000  0.5385370000000  0.5599910000000 1.0
C      1  0.4831610000000  0.4695110000000  0.5627540000000 1.0
C      1  0.5348990000000  0.4377040000000  0.5206770000000 1.0
C      1  0.5337310000000  0.4537870000000  0.4561110000000 1.0
C      1  0.5312030000000  0.5127640000000  0.4366520000000 1.0
C      1  0.5342070000000  0.5627470000000  0.4795320000000 1.0
C      1  0.5328570000000  0.5466480000000  0.5440910000000 1.0
C      1  0.5309820000000  0.4876420000000  0.5635370000000 1.0
END
