TITL C-8699-7882-11 1.6217682801642e-06 125000 -354.198324109442 0 0 60 (C1) n - 1
REM
REM in /home/bkarasulu/CARBON/AIRSS/Generating-Clusters/EDIP-Nigel-Params/Higher-Symm/Box-15A/Only-C60/SD-CG/HFTN-CG
REM
REM
REM
REM
REM
REM ./C.cell (414f73aa93bd7a1190c7fd0f31ff2f98)
REM
REM compiler GCC version 9.2.1 20190827 (Red Hat 9.2.1-1)
REM options -cpp -mtune=generic -march=x86-64 -g -O0 -fpre-include=/usr/include/finclude/math-vector-fortran.h
REM seed -802467254 1687412281 -30438241 1746154216 -1392451076 -1743723486 1924680762 94110826 1076402951 415250460 860423438 2018651932 -1032071852 1560608569 1684643625 547270673 -1404421215 401600496 515111715 -1796706888 492843648 1639774664 -1634447537 1613949745 920038570 -895379206 2114908833 -1619264364 -676395336 588167677 -631392594 -1182333991 -434109066
REM
CELL 1.54180   50.00000   50.00000   50.00000   90.00000   90.00000   90.00000
LATT -1
SFAC C  
C      1  0.4851830000000  0.5556740000000  0.5034290000000 1.0
C      1  0.5588350000000  0.5348400000000  0.4960510000000 1.0
C      1  0.5834890000000  0.4808440000000  0.4945730000000 1.0
C      1  0.5148150000000  0.4445440000000  0.5030740000000 1.0
C      1  0.4413100000000  0.4654280000000  0.4954490000000 1.0
C      1  0.4165090000000  0.5193110000000  0.4951960000000 1.0
C      1  0.5152720000000  0.5558810000000  0.5032620000000 1.0
C      1  0.4413270000000  0.5344650000000  0.4962000000000 1.0
C      1  0.4164100000000  0.4805610000000  0.4944500000000 1.0
C      1  0.4847280000000  0.4443330000000  0.5028970000000 1.0
C      1  0.5585320000000  0.4658020000000  0.4956450000000 1.0
C      1  0.5835980000000  0.5195970000000  0.4951420000000 1.0
C      1  0.4104570000000  0.5137780000000  0.4658180000000 1.0
C      1  0.4736850000000  0.5644330000000  0.4780370000000 1.0
C      1  0.5531130000000  0.5535030000000  0.4747200000000 1.0
C      1  0.5901900000000  0.4849220000000  0.4649020000000 1.0
C      1  0.5262900000000  0.4355670000000  0.4777560000000 1.0
C      1  0.4469420000000  0.4464800000000  0.4743440000000 1.0
C      1  0.5896310000000  0.5138960000000  0.4657930000000 1.0
C      1  0.5265470000000  0.5647740000000  0.4778150000000 1.0
C      1  0.4471350000000  0.5531410000000  0.4749380000000 1.0
C      1  0.4097480000000  0.4848130000000  0.4648000000000 1.0
C      1  0.4734980000000  0.4352240000000  0.4775140000000 1.0
C      1  0.5528320000000  0.4468420000000  0.4746030000000 1.0
C      1  0.4322700000000  0.5183860000000  0.4463590000000 1.0
C      1  0.4856400000000  0.5536320000000  0.4533690000000 1.0
C      1  0.5497460000000  0.5407860000000  0.4488640000000 1.0
C      1  0.5683520000000  0.4806780000000  0.4453230000000 1.0
C      1  0.5143830000000  0.4461410000000  0.4529570000000 1.0
C      1  0.4502090000000  0.4587770000000  0.4482880000000 1.0
C      1  0.5678410000000  0.5185280000000  0.4463160000000 1.0
C      1  0.5145370000000  0.5537760000000  0.4532660000000 1.0
C      1  0.4504800000000  0.5405380000000  0.4490190000000 1.0
C      1  0.4315830000000  0.4805430000000  0.4452220000000 1.0
C      1  0.4854810000000  0.4459990000000  0.4528450000000 1.0
C      1  0.5496090000000  0.4590250000000  0.4484830000000 1.0
C      1  0.4415970000000  0.5428500000000  0.5232160000000 1.0
C      1  0.5158490000000  0.5688520000000  0.5320240000000 1.0
C      1  0.5816210000000  0.5266700000000  0.5334780000000 1.0
C      1  0.5583060000000  0.4576030000000  0.5227180000000 1.0
C      1  0.4841430000000  0.4314720000000  0.5317070000000 1.0
C      1  0.4184200000000  0.4738420000000  0.5327660000000 1.0
C      1  0.5584900000000  0.5432090000000  0.5230830000000 1.0
C      1  0.4849010000000  0.5684190000000  0.5324170000000 1.0
C      1  0.4183990000000  0.5263400000000  0.5335390000000 1.0
C      1  0.4415860000000  0.4572460000000  0.5225410000000 1.0
C      1  0.5150910000000  0.4319120000000  0.5321070000000 1.0
C      1  0.5815300000000  0.4741690000000  0.5328930000000 1.0
C      1  0.4361970000000  0.5147240000000  0.5562540000000 1.0
C      1  0.4812480000000  0.5485340000000  0.5536990000000 1.0
C      1  0.5391430000000  0.5307160000000  0.5433550000000 1.0
C      1  0.5638190000000  0.4854720000000  0.5559580000000 1.0
C      1  0.5187320000000  0.4518670000000  0.5533150000000 1.0
C      1  0.4608230000000  0.4696640000000  0.5429460000000 1.0
C      1  0.5637840000000  0.5151580000000  0.5562060000000 1.0
C      1  0.5186980000000  0.5489690000000  0.5535030000000 1.0
C      1  0.4608660000000  0.5303070000000  0.5434880000000 1.0
C      1  0.4361480000000  0.4850390000000  0.5558610000000 1.0
C      1  0.4812750000000  0.4514300000000  0.5531040000000 1.0
C      1  0.5391300000000  0.4700720000000  0.5431050000000 1.0
END
