TITL C-8692-4986-13 -1.33152234444896 125000 -340.071934403232 0 0 60 (C1) n - 1
REM
REM in /home/bkarasulu/CARBON/AIRSS/Generating-Clusters/EDIP-Nigel-Params/Higher-Symm/Box-15A/Only-C60/SD-CG/HFTN-CG
REM
REM
REM
REM
REM
REM ./C.cell (414f73aa93bd7a1190c7fd0f31ff2f98)
REM
REM compiler GCC version 9.2.1 20190827 (Red Hat 9.2.1-1)
REM options -cpp -mtune=generic -march=x86-64 -g -O0 -fpre-include=/usr/include/finclude/math-vector-fortran.h
REM seed -704531459 1317271733 -1023928123 -1047511614 -854363993 -610195279 2022270443 1421315079 962736076 1891589176 -968674409 540695550 -649000105 -2061919040 1568836222 1674691343 970340485 1217002647 -1509451144 1876642869 -1993049531 477744618 -950779592 1755425800 1625306952 -584790766 -572805527 -1058593104 -510199542 -1015072436 -1464383500 -397703574 -1154764075
REM
CELL 1.54180   50.00000   50.00000   50.00000   90.00000   90.00000   90.00000
LATT -1
SFAC C  
C      1  0.3957490000000  0.6105880000000  0.5298500000000 1.0
C      1  0.6030870000000  0.3894960000000  0.4707780000000 1.0
C      1  0.5660570000000  0.4998650000000  0.5100550000000 1.0
C      1  0.4338130000000  0.5006060000000  0.4904840000000 1.0
C      1  0.5329000000000  0.5342000000000  0.5183780000000 1.0
C      1  0.4664960000000  0.4660360000000  0.4813850000000 1.0
C      1  0.5588210000000  0.4999380000000  0.4399280000000 1.0
C      1  0.4409180000000  0.5004270000000  0.5605420000000 1.0
C      1  0.4846920000000  0.4466420000000  0.4927350000000 1.0
C      1  0.5138530000000  0.5535610000000  0.5066100000000 1.0
C      1  0.5132030000000  0.4934380000000  0.5474200000000 1.0
C      1  0.4861820000000  0.5067890000000  0.4522620000000 1.0
C      1  0.5151250000000  0.5734310000000  0.4600330000000 1.0
C      1  0.4837500000000  0.4264720000000  0.5397140000000 1.0
C      1  0.5167250000000  0.5178740000000  0.4154470000000 1.0
C      1  0.4830090000000  0.4823150000000  0.5845040000000 1.0
C      1  0.5701460000000  0.5250470000000  0.4467890000000 1.0
C      1  0.4298890000000  0.4752150000000  0.5535640000000 1.0
C      1  0.5365220000000  0.5000860000000  0.4237160000000 1.0
C      1  0.4632940000000  0.5003940000000  0.5766570000000 1.0
C      1  0.4790570000000  0.4552900000000  0.5774870000000 1.0
C      1  0.5202830000000  0.5450270000000  0.4221510000000 1.0
C      1  0.5423260000000  0.4304690000000  0.5560930000000 1.0
C      1  0.4566130000000  0.5694160000000  0.4426850000000 1.0
C      1  0.4253990000000  0.5235300000000  0.5011410000000 1.0
C      1  0.5742970000000  0.4768550000000  0.4994370000000 1.0
C      1  0.4888970000000  0.5102380000000  0.4227830000000 1.0
C      1  0.5108220000000  0.4897560000000  0.5769030000000 1.0
C      1  0.5671230000000  0.5390290000000  0.4825360000000 1.0
C      1  0.4331250000000  0.4612910000000  0.5178210000000 1.0
C      1  0.4905640000000  0.4041790000000  0.4956410000000 1.0
C      1  0.5180140000000  0.5929510000000  0.5057590000000 1.0
C      1  0.4459550000000  0.4770430000000  0.4980070000000 1.0
C      1  0.5540390000000  0.5234200000000  0.5022980000000 1.0
C      1  0.4765570000000  0.4826020000000  0.4617650000000 1.0
C      1  0.5229040000000  0.5176120000000  0.5380070000000 1.0
C      1  0.5236930000000  0.4694660000000  0.5363820000000 1.0
C      1  0.4753670000000  0.5307700000000  0.4629700000000 1.0
C      1  0.4950600000000  0.4390190000000  0.5615190000000 1.0
C      1  0.5040290000000  0.5612620000000  0.4379170000000 1.0
C      1  0.4986510000000  0.4250180000000  0.4768230000000 1.0
C      1  0.5061260000000  0.5755080000000  0.5248310000000 1.0
C      1  0.5850500000000  0.4381670000000  0.4737580000000 1.0
C      1  0.4142030000000  0.5620760000000  0.5268480000000 1.0
C      1  0.5756250000000  0.4638070000000  0.4753080000000 1.0
C      1  0.4238460000000  0.5365180000000  0.5252870000000 1.0
C      1  0.5942580000000  0.4134500000000  0.4722330000000 1.0
C      1  0.4047820000000  0.5867120000000  0.5283850000000 1.0
C      1  0.5670680000000  0.4770180000000  0.4527710000000 1.0
C      1  0.4324100000000  0.5233240000000  0.5478290000000 1.0
C      1  0.5882190000000  0.5293000000000  0.4673190000000 1.0
C      1  0.4119030000000  0.4708070000000  0.5330000000000 1.0
C      1  0.5225370000000  0.4507220000000  0.5588520000000 1.0
C      1  0.4766200000000  0.5493240000000  0.4403430000000 1.0
C      1  0.5259780000000  0.5729210000000  0.4853690000000 1.0
C      1  0.4760220000000  0.4241230000000  0.5131990000000 1.0
C      1  0.5592810000000  0.4114090000000  0.5535590000000 1.0
C      1  0.4394790000000  0.5883610000000  0.4448560000000 1.0
C      1  0.5275910000000  0.4669760000000  0.5828960000000 1.0
C      1  0.4719990000000  0.5328130000000  0.4163850000000 1.0
END
