TITL C-8695-8180-109 -1.79363769590167e-06 125000 -354.310846368417 0 0 60 (C1) n - 1
REM
REM in /home/bkarasulu/CARBON/AIRSS/Generating-Clusters/EDIP-Nigel-Params/Higher-Symm/Box-15A/Only-C60/SD-CG/HFTN-CG
REM
REM
REM
REM
REM
REM ./C.cell (414f73aa93bd7a1190c7fd0f31ff2f98)
REM
REM compiler GCC version 9.2.1 20190827 (Red Hat 9.2.1-1)
REM options -cpp -mtune=generic -march=x86-64 -g -O0 -fpre-include=/usr/include/finclude/math-vector-fortran.h
REM seed 1306651382 836323950 422538001 -498091253 -738937934 338155641 1131776862 -457873144 824732797 2101365754 -1037626649 647384581 -1437459622 742377624 -83305243 -1012832785 248855502 -1877634898 371066399 -336318326 -1958760622 727976380 -1762251225 411569811 -392341405 1729128790 -279753247 466318990 1832718792 -248585091 -1981641187 -1485344935 2121372984
REM
CELL 1.54180   50.00000   50.00000   50.00000   90.00000   90.00000   90.00000
LATT -1
SFAC C  
C      1  0.4587430000000  0.5141920000000  0.4642700000000 1.0
C      1  0.5376310000000  0.4858830000000  0.4584620000000 1.0
C      1  0.5413830000000  0.5138110000000  0.5353480000000 1.0
C      1  0.4637130000000  0.4859320000000  0.5414930000000 1.0
C      1  0.5004100000000  0.5461110000000  0.5362570000000 1.0
C      1  0.4638190000000  0.4538450000000  0.5004530000000 1.0
C      1  0.4991910000000  0.5470950000000  0.4641710000000 1.0
C      1  0.5364120000000  0.4539330000000  0.4995530000000 1.0
C      1  0.4516530000000  0.5345550000000  0.5270620000000 1.0
C      1  0.4716380000000  0.4651980000000  0.4518920000000 1.0
C      1  0.5481330000000  0.5339400000000  0.4729870000000 1.0
C      1  0.5281690000000  0.4650220000000  0.5476790000000 1.0
C      1  0.5476360000000  0.5528400000000  0.5129700000000 1.0
C      1  0.4872480000000  0.4480170000000  0.5477050000000 1.0
C      1  0.4522480000000  0.5532030000000  0.4869960000000 1.0
C      1  0.5128310000000  0.4488070000000  0.4528060000000 1.0
C      1  0.5091330000000  0.4324400000000  0.5374630000000 1.0
C      1  0.4628790000000  0.5676960000000  0.5094250000000 1.0
C      1  0.4910210000000  0.4328780000000  0.4624050000000 1.0
C      1  0.5373230000000  0.5672940000000  0.4903420000000 1.0
C      1  0.4793570000000  0.4341540000000  0.4876780000000 1.0
C      1  0.5116320000000  0.5669500000000  0.4796320000000 1.0
C      1  0.5207280000000  0.4343080000000  0.5122090000000 1.0
C      1  0.4883090000000  0.5660680000000  0.5206000000000 1.0
C      1  0.5236460000000  0.5178360000000  0.4866850000000 1.0
C      1  0.5124280000000  0.4821210000000  0.5235240000000 1.0
C      1  0.4763020000000  0.5176010000000  0.5127070000000 1.0
C      1  0.4876670000000  0.4816880000000  0.4759110000000 1.0
C      1  0.5553210000000  0.4557220000000  0.5424490000000 1.0
C      1  0.4567330000000  0.5442970000000  0.5541190000000 1.0
C      1  0.4445970000000  0.4560220000000  0.4575000000000 1.0
C      1  0.5430010000000  0.5422580000000  0.4455720000000 1.0
C      1  0.4725950000000  0.4862500000000  0.5706690000000 1.0
C      1  0.4298890000000  0.5139580000000  0.4740300000000 1.0
C      1  0.5276410000000  0.4863370000000  0.4287600000000 1.0
C      1  0.5703400000000  0.5137830000000  0.5260080000000 1.0
C      1  0.5719350000000  0.5378510000000  0.5105530000000 1.0
C      1  0.4878250000000  0.4620770000000  0.5727440000000 1.0
C      1  0.4281360000000  0.5379730000000  0.4895340000000 1.0
C      1  0.5142810000000  0.4610690000000  0.4270370000000 1.0
C      1  0.5109740000000  0.4995800000000  0.4667610000000 1.0
C      1  0.5310180000000  0.5009970000000  0.5102950000000 1.0
C      1  0.4887510000000  0.4986960000000  0.5314510000000 1.0
C      1  0.4697430000000  0.5013330000000  0.4884550000000 1.0
C      1  0.5341300000000  0.4586810000000  0.4707170000000 1.0
C      1  0.5296380000000  0.5417930000000  0.5343340000000 1.0
C      1  0.4655200000000  0.4579570000000  0.5296930000000 1.0
C      1  0.4702140000000  0.5422440000000  0.4658320000000 1.0
C      1  0.5099430000000  0.5102320000000  0.4298120000000 1.0
C      1  0.5731220000000  0.4883450000000  0.5132780000000 1.0
C      1  0.4853030000000  0.5117710000000  0.5733100000000 1.0
C      1  0.4275190000000  0.4885780000000  0.4868950000000 1.0
C      1  0.5158270000000  0.5360100000000  0.4425860000000 1.0
C      1  0.5591320000000  0.4635490000000  0.5159070000000 1.0
C      1  0.4831830000000  0.5361930000000  0.5584320000000 1.0
C      1  0.4411160000000  0.4636270000000  0.4841410000000 1.0
C      1  0.4692700000000  0.4942890000000  0.4439780000000 1.0
C      1  0.5574610000000  0.5054740000000  0.4702470000000 1.0
C      1  0.5309710000000  0.4939870000000  0.5557620000000 1.0
C      1  0.4435890000000  0.5056490000000  0.5304560000000 1.0
END
