TITL C-8694-7203-310 -0.00687635038066768 125000 -363.440021892961 0 0 60 (C2) n - 1
REM
REM in /home/bkarasulu/CARBON/AIRSS/Generating-Clusters/EDIP-Nigel-Params/Higher-Symm/Box-15A/Only-C60/SD-CG/HFTN-CG
REM
REM
REM
REM
REM
REM ./C.cell (414f73aa93bd7a1190c7fd0f31ff2f98)
REM
REM compiler GCC version 9.2.1 20190827 (Red Hat 9.2.1-1)
REM options -cpp -mtune=generic -march=x86-64 -g -O0 -fpre-include=/usr/include/finclude/math-vector-fortran.h
REM seed -171328501 1440313487 28723278 -2127588336 -399193166 -1623167212 1941776753 1324207229 1396602019 -2064501639 -1249834342 -1939339913 1402598607 581020689 -75510048 1551516466 614788620 2132947297 -1740828052 573315207 1261242663 1605153575 -1177157185 766125998 -94060031 -613553901 761893985 607190522 -2066938809 -1473197458 -927797022 590799509 188569306
REM
CELL 1.54180   50.00000   50.00000   50.00000   90.00000   90.00000   90.00000
LATT -1
SFAC C  
C      1  0.5174570000000  0.4692820000000  0.4927130000000 1.0
C      1  0.4963130000000  0.4696650000000  0.5222110000000 1.0
C      1  0.4815900000000  0.4713840000000  0.4873490000000 1.0
C      1  0.4825440000000  0.5307190000000  0.4927150000000 1.0
C      1  0.5036860000000  0.5303330000000  0.5222130000000 1.0
C      1  0.5184110000000  0.5286170000000  0.4873520000000 1.0
C      1  0.5318010000000  0.5011570000000  0.5566510000000 1.0
C      1  0.4350340000000  0.5018100000000  0.4982140000000 1.0
C      1  0.5322770000000  0.5019570000000  0.4446350000000 1.0
C      1  0.4681960000000  0.4988380000000  0.5566490000000 1.0
C      1  0.5649660000000  0.4981900000000  0.4982170000000 1.0
C      1  0.4677260000000  0.4980470000000  0.4446330000000 1.0
C      1  0.4384930000000  0.4720800000000  0.4971910000000 1.0
C      1  0.5316640000000  0.4731160000000  0.4510480000000 1.0
C      1  0.5275410000000  0.4720100000000  0.5535780000000 1.0
C      1  0.5615080000000  0.5279200000000  0.4971960000000 1.0
C      1  0.4683390000000  0.5268880000000  0.4510490000000 1.0
C      1  0.4724560000000  0.5279860000000  0.5535790000000 1.0
C      1  0.5385350000000  0.4885220000000  0.5096360000000 1.0
C      1  0.4708710000000  0.4885880000000  0.5283160000000 1.0
C      1  0.4907210000000  0.4873490000000  0.4611070000000 1.0
C      1  0.4614640000000  0.5114770000000  0.5096350000000 1.0
C      1  0.5291270000000  0.5114100000000  0.5283190000000 1.0
C      1  0.5092810000000  0.5126540000000  0.4611080000000 1.0
C      1  0.4538710000000  0.4575090000000  0.5179420000000 1.0
C      1  0.5084760000000  0.4557000000000  0.4511920000000 1.0
C      1  0.5378040000000  0.4578250000000  0.5301830000000 1.0
C      1  0.5461280000000  0.5424890000000  0.5179480000000 1.0
C      1  0.4915270000000  0.5443040000000  0.4511950000000 1.0
C      1  0.4621950000000  0.5421720000000  0.5301840000000 1.0
C      1  0.4438360000000  0.5355320000000  0.4635090000000 1.0
C      1  0.5583440000000  0.5355700000000  0.4692370000000 1.0
C      1  0.4975500000000  0.5355150000000  0.5658030000000 1.0
C      1  0.5561660000000  0.4644710000000  0.4635090000000 1.0
C      1  0.4416580000000  0.4644320000000  0.4692310000000 1.0
C      1  0.5024460000000  0.4644800000000  0.5658000000000 1.0
C      1  0.5516760000000  0.4465170000000  0.4842600000000 1.0
C      1  0.4876490000000  0.4441650000000  0.5536420000000 1.0
C      1  0.4610100000000  0.4454930000000  0.4627440000000 1.0
C      1  0.4483250000000  0.5534840000000  0.4842610000000 1.0
C      1  0.5123480000000  0.5558310000000  0.5536470000000 1.0
C      1  0.5389920000000  0.5545100000000  0.4627500000000 1.0
C      1  0.5283040000000  0.5648240000000  0.5099820000000 1.0
C      1  0.4772880000000  0.5652360000000  0.5197350000000 1.0
C      1  0.4936680000000  0.5665910000000  0.4701190000000 1.0
C      1  0.4716950000000  0.4351750000000  0.5099760000000 1.0
C      1  0.5227110000000  0.4347620000000  0.5197310000000 1.0
C      1  0.5063330000000  0.4334110000000  0.4701140000000 1.0
C      1  0.5714530000000  0.4890720000000  0.4700290000000 1.0
C      1  0.4892240000000  0.4889870000000  0.5761040000000 1.0
C      1  0.4399580000000  0.4886150000000  0.4522320000000 1.0
C      1  0.4285480000000  0.5109310000000  0.4700270000000 1.0
C      1  0.5107720000000  0.5110070000000  0.5761050000000 1.0
C      1  0.5600440000000  0.5113890000000  0.4522360000000 1.0
C      1  0.4784570000000  0.4321910000000  0.4805470000000 1.0
C      1  0.5285080000000  0.4314910000000  0.4907500000000 1.0
C      1  0.4938940000000  0.4307840000000  0.5293230000000 1.0
C      1  0.5215440000000  0.5678100000000  0.4805540000000 1.0
C      1  0.4714920000000  0.5685100000000  0.4907540000000 1.0
C      1  0.5061050000000  0.5692140000000  0.5293290000000 1.0
END
