TITL C-8695-8180-147 0.000263995326984926 125000 -356.721709012593 0 0 60 (C1) n - 1
REM
REM in /home/bkarasulu/CARBON/AIRSS/Generating-Clusters/EDIP-Nigel-Params/Higher-Symm/Box-15A/Only-C60/SD-CG/HFTN-CG
REM
REM
REM
REM
REM
REM ./C.cell (414f73aa93bd7a1190c7fd0f31ff2f98)
REM
REM compiler GCC version 9.2.1 20190827 (Red Hat 9.2.1-1)
REM options -cpp -mtune=generic -march=x86-64 -g -O0 -fpre-include=/usr/include/finclude/math-vector-fortran.h
REM seed 397476865 281019440 1833812171 1665806776 -1950101865 -2038125498 -1493795124 -759615115 -2025309072 181432135 -1149687416 -1134821714 -1594098073 -338739777 907030618 -938788092 1011694961 382701980 72380707 -1110012818 254426434 668468603 94698145 587946708 -1835785790 1999267387 -1029861273 -1711381139 616703246 1360637755 -2132168149 588622023 1817388112
REM
CELL 1.54180   50.00000   50.00000   50.00000   90.00000   90.00000   90.00000
LATT -1
SFAC C  
C      1  0.4343620000000  0.5191540000000  0.5374020000000 1.0
C      1  0.5031330000000  0.5199820000000  0.4243430000000 1.0
C      1  0.5690180000000  0.5139900000000  0.5397500000000 1.0
C      1  0.5091170000000  0.5643060000000  0.4889420000000 1.0
C      1  0.5017160000000  0.5668160000000  0.5181370000000 1.0
C      1  0.4794870000000  0.5667110000000  0.4970510000000 1.0
C      1  0.4980370000000  0.5068610000000  0.5428050000000 1.0
C      1  0.4565580000000  0.4988700000000  0.4738390000000 1.0
C      1  0.5401290000000  0.4845300000000  0.4621520000000 1.0
C      1  0.5465020000000  0.4463280000000  0.4926090000000 1.0
C      1  0.4714680000000  0.4376630000000  0.5413150000000 1.0
C      1  0.4783000000000  0.4384010000000  0.4561730000000 1.0
C      1  0.5404700000000  0.4886870000000  0.4239200000000 1.0
C      1  0.5358090000000  0.4797640000000  0.5528850000000 1.0
C      1  0.4283280000000  0.4804550000000  0.5074940000000 1.0
C      1  0.5033490000000  0.5019740000000  0.4922060000000 1.0
C      1  0.5144290000000  0.4977100000000  0.5189280000000 1.0
C      1  0.4749410000000  0.5013110000000  0.4983690000000 1.0
C      1  0.5592050000000  0.5057580000000  0.4360240000000 1.0
C      1  0.5222340000000  0.4988990000000  0.5705420000000 1.0
C      1  0.4273390000000  0.4961620000000  0.4828940000000 1.0
C      1  0.5358680000000  0.5600050000000  0.4828120000000 1.0
C      1  0.4974970000000  0.5662650000000  0.5457440000000 1.0
C      1  0.4600760000000  0.5640100000000  0.4770730000000 1.0
C      1  0.4355800000000  0.4915260000000  0.5327980000000 1.0
C      1  0.5130150000000  0.4942120000000  0.4280550000000 1.0
C      1  0.5611080000000  0.4871850000000  0.5408270000000 1.0
C      1  0.4848530000000  0.4820970000000  0.5536510000000 1.0
C      1  0.4547420000000  0.4541890000000  0.4485640000000 1.0
C      1  0.5605090000000  0.4663630000000  0.4753940000000 1.0
C      1  0.4473710000000  0.5412270000000  0.5464410000000 1.0
C      1  0.4855490000000  0.5397390000000  0.4295250000000 1.0
C      1  0.5698750000000  0.5367790000000  0.5252640000000 1.0
C      1  0.5183830000000  0.5277610000000  0.5672740000000 1.0
C      1  0.4300890000000  0.5260010000000  0.4814810000000 1.0
C      1  0.5521580000000  0.5244810000000  0.4549530000000 1.0
C      1  0.4547960000000  0.5028670000000  0.4351000000000 1.0
C      1  0.5847670000000  0.5064860000000  0.4923130000000 1.0
C      1  0.4611930000000  0.5113740000000  0.5802940000000 1.0
C      1  0.4464150000000  0.4457720000000  0.5490660000000 1.0
C      1  0.5007960000000  0.4454380000000  0.4396460000000 1.0
C      1  0.5595130000000  0.4431020000000  0.5179260000000 1.0
C      1  0.4662250000000  0.4726070000000  0.5070170000000 1.0
C      1  0.5106150000000  0.4773620000000  0.4756930000000 1.0
C      1  0.5145430000000  0.4668320000000  0.5238850000000 1.0
C      1  0.4795690000000  0.4627970000000  0.4773530000000 1.0
C      1  0.5189530000000  0.4559430000000  0.4960210000000 1.0
C      1  0.4835690000000  0.4624400000000  0.5313160000000 1.0
C      1  0.5797620000000  0.4790140000000  0.4944670000000 1.0
C      1  0.4625860000000  0.4843440000000  0.5726640000000 1.0
C      1  0.4673670000000  0.4772630000000  0.4373620000000 1.0
C      1  0.5527700000000  0.5386500000000  0.4787730000000 1.0
C      1  0.4945870000000  0.5448070000000  0.5633260000000 1.0
C      1  0.4490710000000  0.5413680000000  0.4653130000000 1.0
C      1  0.4635980000000  0.5289240000000  0.4429600000000 1.0
C      1  0.5717400000000  0.5301100000000  0.4983050000000 1.0
C      1  0.4680840000000  0.5322630000000  0.5630450000000 1.0
C      1  0.4952820000000  0.4727560000000  0.4341850000000 1.0
C      1  0.5723450000000  0.4682650000000  0.5211450000000 1.0
C      1  0.4412490000000  0.4730380000000  0.5551880000000 1.0
END
