TITL C-8696-5006-22 1.15474036342611e-05 125000 -360.926101224339 0 0 60 (C2) n - 1
REM
REM in /home/bkarasulu/CARBON/AIRSS/Generating-Clusters/EDIP-Nigel-Params/Higher-Symm/Box-15A/Only-C60/SD-CG/HFTN-CG
REM
REM
REM
REM
REM
REM ./C.cell (414f73aa93bd7a1190c7fd0f31ff2f98)
REM
REM compiler GCC version 9.2.1 20190827 (Red Hat 9.2.1-1)
REM options -cpp -mtune=generic -march=x86-64 -g -O0 -fpre-include=/usr/include/finclude/math-vector-fortran.h
REM seed -189753351 -1204578191 722087447 1234895561 -284027511 518960563 -158654089 -190525913 245078790 -914591660 -818250196 -1858595211 -935102738 -1412955474 1138569575 1306778412 -1625627346 -734921154 -2083363929 256971204 1749767240 1128873251 1046113305 -553470636 1143671723 2060050467 -243818910 -1322272553 648668774 -2014764831 -2072705467 1782974686 -985501709
REM
CELL 1.54180   50.00000   50.00000   50.00000   90.00000   90.00000   90.00000
LATT -1
SFAC C  
C      1  0.5754270000000  0.4880640000000  0.4477220000000 1.0
C      1  0.4457200000000  0.4877790000000  0.4295290000000 1.0
C      1  0.4245720000000  0.4880720000000  0.5522790000000 1.0
C      1  0.5542800000000  0.4877820000000  0.5704720000000 1.0
C      1  0.4251110000000  0.4901890000000  0.4470930000000 1.0
C      1  0.5549260000000  0.4890660000000  0.4298820000000 1.0
C      1  0.5748880000000  0.4901900000000  0.5529080000000 1.0
C      1  0.4450740000000  0.4890750000000  0.5701180000000 1.0
C      1  0.5145430000000  0.4442790000000  0.5337310000000 1.0
C      1  0.5337500000000  0.4442670000000  0.4855140000000 1.0
C      1  0.4854550000000  0.4442770000000  0.4662740000000 1.0
C      1  0.4662470000000  0.4442700000000  0.5144900000000 1.0
C      1  0.4868230000000  0.4510330000000  0.5331530000000 1.0
C      1  0.4666850000000  0.4509990000000  0.4867590000000 1.0
C      1  0.5131750000000  0.4510290000000  0.4668510000000 1.0
C      1  0.5333130000000  0.4509990000000  0.5132450000000 1.0
C      1  0.5176380000000  0.5039780000000  0.5430080000000 1.0
C      1  0.5432950000000  0.5040140000000  0.4822900000000 1.0
C      1  0.4823630000000  0.5039750000000  0.4569910000000 1.0
C      1  0.4567050000000  0.5040180000000  0.5177100000000 1.0
C      1  0.4820220000000  0.5051240000000  0.5425460000000 1.0
C      1  0.4574450000000  0.5051890000000  0.4822450000000 1.0
C      1  0.5179780000000  0.5051190000000  0.4574530000000 1.0
C      1  0.5425560000000  0.5051880000000  0.5177540000000 1.0
C      1  0.5552940000000  0.5323320000000  0.5218500000000 1.0
C      1  0.5220580000000  0.5320990000000  0.4441320000000 1.0
C      1  0.4447080000000  0.5323330000000  0.4781470000000 1.0
C      1  0.4779440000000  0.5321050000000  0.5558650000000 1.0
C      1  0.4413520000000  0.5297810000000  0.5222360000000 1.0
C      1  0.4778610000000  0.5298820000000  0.4416430000000 1.0
C      1  0.5586500000000  0.5297760000000  0.4777610000000 1.0
C      1  0.5221410000000  0.5298860000000  0.5583540000000 1.0
C      1  0.5585520000000  0.4585960000000  0.5222020000000 1.0
C      1  0.5219250000000  0.4586340000000  0.4415370000000 1.0
C      1  0.4414460000000  0.4585970000000  0.4778010000000 1.0
C      1  0.4780730000000  0.4586400000000  0.5584670000000 1.0
C      1  0.4422480000000  0.4554390000000  0.5235610000000 1.0
C      1  0.4765540000000  0.4555800000000  0.4422220000000 1.0
C      1  0.5577500000000  0.4554340000000  0.4764430000000 1.0
C      1  0.5234440000000  0.4555840000000  0.5577820000000 1.0
C      1  0.4534860000000  0.5398600000000  0.5669630000000 1.0
C      1  0.5635230000000  0.5409690000000  0.5468590000000 1.0
C      1  0.5465160000000  0.5398520000000  0.4330340000000 1.0
C      1  0.4364800000000  0.5409680000000  0.4531370000000 1.0
C      1  0.5471070000000  0.5381240000000  0.5679570000000 1.0
C      1  0.4349350000000  0.5390700000000  0.5475460000000 1.0
C      1  0.4528950000000  0.5381200000000  0.4320390000000 1.0
C      1  0.5650670000000  0.5390620000000  0.4524500000000 1.0
C      1  0.4719970000000  0.4854270000000  0.5634940000000 1.0
C      1  0.5640670000000  0.4855660000000  0.5272690000000 1.0
C      1  0.5280030000000  0.4854200000000  0.4365070000000 1.0
C      1  0.4359320000000  0.4855670000000  0.4727320000000 1.0
C      1  0.5277590000000  0.4828920000000  0.5630570000000 1.0
C      1  0.4362720000000  0.4827430000000  0.5271460000000 1.0
C      1  0.4722400000000  0.4828880000000  0.4369440000000 1.0
C      1  0.5637270000000  0.4827370000000  0.4728550000000 1.0
C      1  0.4996480000000  0.5456360000000  0.4356440000000 1.0
C      1  0.5003540000000  0.5456410000000  0.5643520000000 1.0
C      1  0.4346610000000  0.5452030000000  0.5003600000000 1.0
C      1  0.5653410000000  0.5452000000000  0.4996360000000 1.0
END
