TITL C-8699-7882-240 -2.32639023931613e-06 125000 -370.141613766706 0 0 60 (C1) n - 1
REM
REM in /home/bkarasulu/CARBON/AIRSS/Generating-Clusters/EDIP-Nigel-Params/Higher-Symm/Box-15A/Only-C60/SD-CG/HFTN-CG
REM
REM
REM
REM
REM
REM ./C.cell (414f73aa93bd7a1190c7fd0f31ff2f98)
REM
REM compiler GCC version 9.2.1 20190827 (Red Hat 9.2.1-1)
REM options -cpp -mtune=generic -march=x86-64 -g -O0 -fpre-include=/usr/include/finclude/math-vector-fortran.h
REM seed -294067786 -1039220396 188693420 -866487595 1673057504 -783681879 569714259 1577654754 1318782709 1649812654 -1570605664 1140446800 49892715 -2002190292 871202978 -1915376234 1424177733 -1848108326 -1153655717 168256186 -92232528 -594147140 164196896 1727260220 -1856350283 -1996125736 1111421389 -2018224803 510132510 -680884588 -1544678488 1880697134 -426032455
REM
CELL 1.54180   50.00000   50.00000   50.00000   90.00000   90.00000   90.00000
LATT -1
SFAC C  
C      1  0.5262660000000  0.4967000000000  0.4958770000000 1.0
C      1  0.5115010000000  0.4958280000000  0.5233780000000 1.0
C      1  0.4810070000000  0.4956320000000  0.5182360000000 1.0
C      1  0.4766800000000  0.4951400000000  0.4876480000000 1.0
C      1  0.5042320000000  0.4970300000000  0.4737630000000 1.0
C      1  0.5473130000000  0.5192000000000  0.4877280000000 1.0
C      1  0.5234660000000  0.5195090000000  0.5393600000000 1.0
C      1  0.4693810000000  0.5208090000000  0.5335590000000 1.0
C      1  0.4568130000000  0.5180790000000  0.4826480000000 1.0
C      1  0.5027340000000  0.5218570000000  0.4530670000000 1.0
C      1  0.5692250000000  0.5196120000000  0.5069180000000 1.0
C      1  0.5137400000000  0.5187950000000  0.5672720000000 1.0
C      1  0.4396810000000  0.5184010000000  0.5395890000000 1.0
C      1  0.4468480000000  0.5166590000000  0.4546900000000 1.0
C      1  0.5262470000000  0.5185180000000  0.4348520000000 1.0
C      1  0.4364320000000  0.5312280000000  0.5129890000000 1.0
C      1  0.4698910000000  0.5289490000000  0.4406560000000 1.0
C      1  0.5483650000000  0.5287630000000  0.4504950000000 1.0
C      1  0.5586530000000  0.5316990000000  0.5312050000000 1.0
C      1  0.4864940000000  0.5304490000000  0.5613480000000 1.0
C      1  0.5414490000000  0.4724180000000  0.4508900000000 1.0
C      1  0.5593510000000  0.4718680000000  0.5244590000000 1.0
C      1  0.4954960000000  0.4699670000000  0.5638970000000 1.0
C      1  0.4379560000000  0.4705440000000  0.5157320000000 1.0
C      1  0.4659280000000  0.4694340000000  0.4457240000000 1.0
C      1  0.5427980000000  0.4705420000000  0.5487480000000 1.0
C      1  0.4675950000000  0.4684040000000  0.5558580000000 1.0
C      1  0.4369600000000  0.4682090000000  0.4865870000000 1.0
C      1  0.4933580000000  0.4693460000000  0.4358150000000 1.0
C      1  0.5594880000000  0.4708280000000  0.4741820000000 1.0
C      1  0.5254390000000  0.4463920000000  0.4989160000000 1.0
C      1  0.5092080000000  0.4457260000000  0.5232970000000 1.0
C      1  0.4809060000000  0.4454490000000  0.5153830000000 1.0
C      1  0.4799030000000  0.4453710000000  0.4861340000000 1.0
C      1  0.5073750000000  0.4465630000000  0.4760000000000 1.0
C      1  0.5096350000000  0.5494550000000  0.4649180000000 1.0
C      1  0.5384070000000  0.5475330000000  0.4912800000000 1.0
C      1  0.5152120000000  0.5467610000000  0.5285140000000 1.0
C      1  0.4700220000000  0.5634270000000  0.5300060000000 1.0
C      1  0.4706400000000  0.5445410000000  0.4847830000000 1.0
C      1  0.4353440000000  0.4906920000000  0.4483870000000 1.0
C      1  0.5283280000000  0.4926920000000  0.4222940000000 1.0
C      1  0.5820920000000  0.4937000000000  0.5049190000000 1.0
C      1  0.5201290000000  0.4931340000000  0.5796150000000 1.0
C      1  0.4312880000000  0.4916500000000  0.5461430000000 1.0
C      1  0.5839440000000  0.4837980000000  0.4785060000000 1.0
C      1  0.5460030000000  0.4836100000000  0.5733660000000 1.0
C      1  0.4452400000000  0.4802750000000  0.5678590000000 1.0
C      1  0.4189320000000  0.4802400000000  0.4688400000000 1.0
C      1  0.5038250000000  0.4820730000000  0.4131710000000 1.0
C      1  0.5431680000000  0.5565910000000  0.5284260000000 1.0
C      1  0.4923940000000  0.5553290000000  0.5450220000000 1.0
C      1  0.4553300000000  0.5540370000000  0.5079460000000 1.0
C      1  0.4718600000000  0.5534040000000  0.4570810000000 1.0
C      1  0.5395290000000  0.5541140000000  0.4618420000000 1.0
C      1  0.4663530000000  0.4693140000000  0.5265790000000 1.0
C      1  0.4644500000000  0.4687990000000  0.4761670000000 1.0
C      1  0.5118650000000  0.4706990000000  0.4586250000000 1.0
C      1  0.5430440000000  0.4705050000000  0.4985050000000 1.0
C      1  0.5147880000000  0.4697070000000  0.5403020000000 1.0
END
