TITL C-8695-8180-71 1.55823954000675e-06 125000 -356.539105146365 0 0 60 (C1) n - 1
REM
REM in /home/bkarasulu/CARBON/AIRSS/Generating-Clusters/EDIP-Nigel-Params/Higher-Symm/Box-15A/Only-C60/SD-CG/HFTN-CG
REM
REM
REM
REM
REM
REM ./C.cell (414f73aa93bd7a1190c7fd0f31ff2f98)
REM
REM compiler GCC version 9.2.1 20190827 (Red Hat 9.2.1-1)
REM options -cpp -mtune=generic -march=x86-64 -g -O0 -fpre-include=/usr/include/finclude/math-vector-fortran.h
REM seed -196771934 893024388 1223822249 356486348 -644606844 1143666184 327290104 -2102542526 -153888535 -430158109 188626685 -732524021 664951985 1624519203 -1538238954 -641645169 -852242951 -23916341 995468508 740937639 1378605681 -935042780 -1860230406 1956382929 1652290556 1324712395 206415999 631409326 887776008 1006495611 2051048744 -958873018 -823908994
REM
CELL 1.54180   50.00000   50.00000   50.00000   90.00000   90.00000   90.00000
LATT -1
SFAC C  
C      1  0.4846440000000  0.4951280000000  0.5693360000000 1.0
C      1  0.4926750000000  0.5503220000000  0.5399630000000 1.0
C      1  0.4950540000000  0.5516770000000  0.4810280000000 1.0
C      1  0.4883580000000  0.5243340000000  0.4425530000000 1.0
C      1  0.4835900000000  0.4733280000000  0.4398490000000 1.0
C      1  0.4892620000000  0.4406660000000  0.4885000000000 1.0
C      1  0.4839320000000  0.4450490000000  0.5402740000000 1.0
C      1  0.4488840000000  0.5245280000000  0.5536250000000 1.0
C      1  0.4546790000000  0.5566060000000  0.5114970000000 1.0
C      1  0.4491900000000  0.5455940000000  0.4625680000000 1.0
C      1  0.4431680000000  0.5011820000000  0.4373840000000 1.0
C      1  0.4462660000000  0.4501350000000  0.4621400000000 1.0
C      1  0.4442270000000  0.4402790000000  0.5118970000000 1.0
C      1  0.4451000000000  0.4728420000000  0.5521860000000 1.0
C      1  0.4426700000000  0.5317180000000  0.5068010000000 1.0
C      1  0.4397500000000  0.5249700000000  0.4788290000000 1.0
C      1  0.4374290000000  0.4995290000000  0.4647510000000 1.0
C      1  0.4346570000000  0.4717170000000  0.4767030000000 1.0
C      1  0.4303080000000  0.4641700000000  0.5063160000000 1.0
C      1  0.4322950000000  0.4848110000000  0.5300910000000 1.0
C      1  0.4370350000000  0.5150010000000  0.5301610000000 1.0
C      1  0.5421400000000  0.5687960000000  0.4940310000000 1.0
C      1  0.5361940000000  0.5443310000000  0.4537840000000 1.0
C      1  0.5320810000000  0.4996240000000  0.4406810000000 1.0
C      1  0.5410930000000  0.4539190000000  0.4731110000000 1.0
C      1  0.5409430000000  0.4437460000000  0.5178680000000 1.0
C      1  0.5342860000000  0.4820700000000  0.5608600000000 1.0
C      1  0.5391950000000  0.5369340000000  0.5513500000000 1.0
C      1  0.5146990000000  0.4687470000000  0.5424460000000 1.0
C      1  0.5132020000000  0.5174760000000  0.5450100000000 1.0
C      1  0.5263380000000  0.5507030000000  0.5121050000000 1.0
C      1  0.5140150000000  0.5242070000000  0.4790070000000 1.0
C      1  0.4980390000000  0.4981500000000  0.4700790000000 1.0
C      1  0.5162540000000  0.4646740000000  0.4634270000000 1.0
C      1  0.5032040000000  0.4625390000000  0.5058300000000 1.0
C      1  0.5225100000000  0.5662260000000  0.4712080000000 1.0
C      1  0.5185000000000  0.5257710000000  0.4355320000000 1.0
C      1  0.5154700000000  0.4750890000000  0.4366000000000 1.0
C      1  0.5280150000000  0.4353880000000  0.4928520000000 1.0
C      1  0.5219440000000  0.4403380000000  0.5393210000000 1.0
C      1  0.5134710000000  0.4961700000000  0.5767430000000 1.0
C      1  0.5224230000000  0.5599230000000  0.5410410000000 1.0
C      1  0.5524510000000  0.4911380000000  0.5367950000000 1.0
C      1  0.5545800000000  0.5222290000000  0.5294360000000 1.0
C      1  0.5612750000000  0.5428910000000  0.4968910000000 1.0
C      1  0.5568600000000  0.5290860000000  0.4704690000000 1.0
C      1  0.5491280000000  0.5011710000000  0.4657320000000 1.0
C      1  0.5524530000000  0.4785100000000  0.4850740000000 1.0
C      1  0.5480080000000  0.4726180000000  0.5136890000000 1.0
C      1  0.4726380000000  0.4706990000000  0.5548690000000 1.0
C      1  0.4753890000000  0.5233140000000  0.5618360000000 1.0
C      1  0.4826090000000  0.5555930000000  0.5112570000000 1.0
C      1  0.4765110000000  0.5475680000000  0.4574740000000 1.0
C      1  0.4709870000000  0.5002330000000  0.4357120000000 1.0
C      1  0.4735940000000  0.4547000000000  0.4640010000000 1.0
C      1  0.4714430000000  0.4347680000000  0.5140350000000 1.0
C      1  0.5071540000000  0.5047630000000  0.5181360000000 1.0
C      1  0.4894320000000  0.4894540000000  0.4987440000000 1.0
C      1  0.4576100000000  0.4922760000000  0.5013120000000 1.0
C      1  0.5316620000000  0.5128140000000  0.5043250000000 1.0
END
