TITL C-8698-8182-254 -3.36453018382956e-05 125000 -357.121963383708 0 0 60 (D2d) n - 1
REM
REM in /home/bkarasulu/CARBON/AIRSS/Generating-Clusters/EDIP-Nigel-Params/Higher-Symm/Box-15A/Only-C60/SD-CG/HFTN-CG
REM
REM
REM
REM
REM
REM ./C.cell (414f73aa93bd7a1190c7fd0f31ff2f98)
REM
REM compiler GCC version 9.2.1 20190827 (Red Hat 9.2.1-1)
REM options -cpp -mtune=generic -march=x86-64 -g -O0 -fpre-include=/usr/include/finclude/math-vector-fortran.h
REM seed -2034856393 739493369 -2080797971 1521933357 -1798677621 1853009833 -962700053 -136487110 1637857833 2114282210 -1535774545 666098400 -1776577 1439134986 -1441047861 -1993022761 -660706084 -1457453780 -1863497855 -573818614 -634854619 1914590822 269907191 -2119919233 1184629888 324774527 -780958858 2004301525 -1898475761 -1313888726 649732792 -2026339233 26784174
REM
CELL 1.54180   50.00000   50.00000   50.00000   90.00000   90.00000   90.00000
LATT -1
SFAC C  
C      1  0.5684840000000  0.5078940000000  0.5288450000000 1.0
C      1  0.4314930000000  0.5212800000000  0.5209400000000 1.0
C      1  0.5690060000000  0.5288240000000  0.5075250000000 1.0
C      1  0.4314940000000  0.5288000000000  0.4921310000000 1.0
C      1  0.5684850000000  0.5209850000000  0.4786950000000 1.0
C      1  0.4309780000000  0.5074790000000  0.4712020000000 1.0
C      1  0.5685010000000  0.4921760000000  0.4711750000000 1.0
C      1  0.4315210000000  0.4786500000000  0.4790400000000 1.0
C      1  0.5690380000000  0.4712480000000  0.4924950000000 1.0
C      1  0.4315210000000  0.4711290000000  0.5078490000000 1.0
C      1  0.5685000000000  0.4790850000000  0.5213250000000 1.0
C      1  0.4309780000000  0.4924500000000  0.5287780000000 1.0
C      1  0.5053260000000  0.4836400000000  0.5626850000000 1.0
C      1  0.4947640000000  0.5144670000000  0.5612880000000 1.0
C      1  0.5051890000000  0.5463990000000  0.5425810000000 1.0
C      1  0.4946390000000  0.5626810000000  0.5163620000000 1.0
C      1  0.5051900000000  0.5612910000000  0.4855310000000 1.0
C      1  0.4947650000000  0.5425770000000  0.4536030000000 1.0
C      1  0.5053270000000  0.5163660000000  0.4373170000000 1.0
C      1  0.4947970000000  0.4855270000000  0.4387110000000 1.0
C      1  0.5052490000000  0.4536060000000  0.4574210000000 1.0
C      1  0.4947080000000  0.4373130000000  0.4836360000000 1.0
C      1  0.5052490000000  0.4387140000000  0.5144710000000 1.0
C      1  0.4947960000000  0.4574180000000  0.5463950000000 1.0
C      1  0.4544860000000  0.4517300000000  0.5134360000000 1.0
C      1  0.5455500000000  0.4647140000000  0.5355270000000 1.0
C      1  0.4538420000000  0.4873830000000  0.5482360000000 1.0
C      1  0.5455230000000  0.5134660000000  0.5482540000000 1.0
C      1  0.4544390000000  0.5354970000000  0.5353030000000 1.0
C      1  0.5461300000000  0.5482660000000  0.5126000000000 1.0
C      1  0.4544400000000  0.5482240000000  0.4865510000000 1.0
C      1  0.5455240000000  0.5353330000000  0.4644860000000 1.0
C      1  0.4538430000000  0.5125690000000  0.4517510000000 1.0
C      1  0.5455510000000  0.4865810000000  0.4517600000000 1.0
C      1  0.4544860000000  0.4644560000000  0.4646840000000 1.0
C      1  0.5461840000000  0.4517810000000  0.4874140000000 1.0
C      1  0.4639840000000  0.4560150000000  0.5456900000000 1.0
C      1  0.5358960000000  0.4838060000000  0.5621120000000 1.0
C      1  0.4639510000000  0.5160040000000  0.5613490000000 1.0
C      1  0.5360020000000  0.5457140000000  0.5439710000000 1.0
C      1  0.4640690000000  0.5620890000000  0.5162070000000 1.0
C      1  0.5360020000000  0.5613730000000  0.4839830000000 1.0
C      1  0.4639520000000  0.5439480000000  0.4543000000000 1.0
C      1  0.5358970000000  0.5162310000000  0.4378980000000 1.0
C      1  0.4639850000000  0.4839590000000  0.4386400000000 1.0
C      1  0.5360620000000  0.4543230000000  0.4560390000000 1.0
C      1  0.4641380000000  0.4378740000000  0.4837830000000 1.0
C      1  0.5360610000000  0.4386640000000  0.5160270000000 1.0
C      1  0.5206860000000  0.5283040000000  0.5073890000000 1.0
C      1  0.4798920000000  0.5294900000000  0.4922260000000 1.0
C      1  0.5200870000000  0.5212090000000  0.4780650000000 1.0
C      1  0.4792990000000  0.5073750000000  0.4717040000000 1.0
C      1  0.5201030000000  0.4922390000000  0.4705030000000 1.0
C      1  0.4799200000000  0.4780520000000  0.4787990000000 1.0
C      1  0.5207170000000  0.4717180000000  0.4926170000000 1.0
C      1  0.4799200000000  0.4704900000000  0.5077680000000 1.0
C      1  0.5201020000000  0.4788120000000  0.5219410000000 1.0
C      1  0.4792980000000  0.4926040000000  0.5282900000000 1.0
C      1  0.5200860000000  0.5077810000000  0.5295030000000 1.0
C      1  0.4798910000000  0.5219280000000  0.5211950000000 1.0
END
