TITL C-8697-8172-305 -4.22612702912212e-07 125000 -368.177965039758 0 0 60 (C1) n - 1
REM
REM in /home/bkarasulu/CARBON/AIRSS/Generating-Clusters/EDIP-Nigel-Params/Higher-Symm/Box-15A/Only-C60/SD-CG/HFTN-CG
REM
REM
REM
REM
REM
REM ./C.cell (414f73aa93bd7a1190c7fd0f31ff2f98)
REM
REM compiler GCC version 9.2.1 20190827 (Red Hat 9.2.1-1)
REM options -cpp -mtune=generic -march=x86-64 -g -O0 -fpre-include=/usr/include/finclude/math-vector-fortran.h
REM seed 1943339914 878186223 1174367031 69106973 -376069584 -1579821775 412499161 696114112 -297232958 1037958129 455667032 854599754 -978531060 891848665 1100825260 -439784291 371837712 -1821577157 586612940 1671294404 1927736023 -1737743941 1702885175 -331383405 1967030792 805835555 1337442068 -1582328942 681368050 461172845 -520475046 -1571256441 -2120517737
REM
CELL 1.54180   50.00000   50.00000   50.00000   90.00000   90.00000   90.00000
LATT -1
SFAC C  
C      1  0.5369110000000  0.4958770000000  0.5514740000000 1.0
C      1  0.4628860000000  0.5054450000000  0.5497470000000 1.0
C      1  0.5657410000000  0.4838360000000  0.4765460000000 1.0
C      1  0.4376110000000  0.5188340000000  0.4749490000000 1.0
C      1  0.5289990000000  0.4920500000000  0.4836370000000 1.0
C      1  0.4737740000000  0.5135400000000  0.4858430000000 1.0
C      1  0.4893530000000  0.4588720000000  0.5502460000000 1.0
C      1  0.5108630000000  0.5384050000000  0.5484020000000 1.0
C      1  0.5423080000000  0.4427100000000  0.5332530000000 1.0
C      1  0.4572700000000  0.5573700000000  0.5345960000000 1.0
C      1  0.4792610000000  0.5726780000000  0.5255770000000 1.0
C      1  0.5198540000000  0.4300230000000  0.5220620000000 1.0
C      1  0.5690270000000  0.5107160000000  0.4863570000000 1.0
C      1  0.4323910000000  0.4916950000000  0.4835130000000 1.0
C      1  0.4690630000000  0.4391280000000  0.5128640000000 1.0
C      1  0.5327530000000  0.5631110000000  0.5130990000000 1.0
C      1  0.5082750000000  0.4716540000000  0.4412920000000 1.0
C      1  0.4906200000000  0.5183470000000  0.4599600000000 1.0
C      1  0.5131460000000  0.5367710000000  0.4936340000000 1.0
C      1  0.4859710000000  0.4684720000000  0.4851270000000 1.0
C      1  0.5621610000000  0.5272890000000  0.4652110000000 1.0
C      1  0.4367270000000  0.4737700000000  0.4626460000000 1.0
C      1  0.5229930000000  0.4200240000000  0.4960240000000 1.0
C      1  0.4752260000000  0.5838310000000  0.4997400000000 1.0
C      1  0.4833220000000  0.4801760000000  0.4565920000000 1.0
C      1  0.5194440000000  0.5042740000000  0.4569670000000 1.0
C      1  0.4415780000000  0.5384980000000  0.5200430000000 1.0
C      1  0.5563020000000  0.4632960000000  0.5197980000000 1.0
C      1  0.4457110000000  0.4858230000000  0.5101130000000 1.0
C      1  0.5549170000000  0.5156760000000  0.5126830000000 1.0
C      1  0.5533580000000  0.5438240000000  0.5264700000000 1.0
C      1  0.4481460000000  0.4572650000000  0.5252050000000 1.0
C      1  0.5102540000000  0.4447150000000  0.4537570000000 1.0
C      1  0.4897910000000  0.5500630000000  0.4587270000000 1.0
C      1  0.4691390000000  0.4336660000000  0.4842960000000 1.0
C      1  0.5322700000000  0.5678560000000  0.4823410000000 1.0
C      1  0.5580270000000  0.4601330000000  0.4906100000000 1.0
C      1  0.4417070000000  0.5433120000000  0.4904390000000 1.0
C      1  0.4602540000000  0.4615120000000  0.5528990000000 1.0
C      1  0.5405270000000  0.5398610000000  0.5538950000000 1.0
C      1  0.5478500000000  0.5160620000000  0.5678310000000 1.0
C      1  0.4528140000000  0.4853150000000  0.5666090000000 1.0
C      1  0.5065040000000  0.5609080000000  0.5297220000000 1.0
C      1  0.4940910000000  0.4422200000000  0.5276880000000 1.0
C      1  0.4750650000000  0.4893920000000  0.5040070000000 1.0
C      1  0.5257540000000  0.5124770000000  0.5059150000000 1.0
C      1  0.5280760000000  0.4437650000000  0.4798450000000 1.0
C      1  0.4700830000000  0.5591150000000  0.4843560000000 1.0
C      1  0.5575110000000  0.4908230000000  0.5312660000000 1.0
C      1  0.4420660000000  0.5099430000000  0.5294780000000 1.0
C      1  0.5136840000000  0.5088770000000  0.5355130000000 1.0
C      1  0.4863510000000  0.4924700000000  0.5344070000000 1.0
C      1  0.5407020000000  0.5242200000000  0.4475360000000 1.0
C      1  0.4579740000000  0.4694110000000  0.4450200000000 1.0
C      1  0.5320430000000  0.5483290000000  0.4364030000000 1.0
C      1  0.4634270000000  0.4428430000000  0.4373440000000 1.0
C      1  0.4817010000000  0.4341610000000  0.4575420000000 1.0
C      1  0.5175730000000  0.5609250000000  0.4572060000000 1.0
C      1  0.5144530000000  0.4676190000000  0.4914720000000 1.0
C      1  0.4843500000000  0.5367250000000  0.5002060000000 1.0
END
