TITL C-8698-8182-258 1.72699874984518e-05 125000 -338.98073110298 0 0 60 (C1) n - 1
REM
REM in /home/bkarasulu/CARBON/AIRSS/Generating-Clusters/EDIP-Nigel-Params/Higher-Symm/Box-15A/Only-C60/SD-CG/HFTN-CG
REM
REM
REM
REM
REM
REM ./C.cell (414f73aa93bd7a1190c7fd0f31ff2f98)
REM
REM compiler GCC version 9.2.1 20190827 (Red Hat 9.2.1-1)
REM options -cpp -mtune=generic -march=x86-64 -g -O0 -fpre-include=/usr/include/finclude/math-vector-fortran.h
REM seed -1933060074 957736678 -1060238895 -1906353051 1677821708 1236419522 1250140924 867660248 570695909 1564238754 2066536746 -991773784 97826642 1554644157 494133253 532968814 -772145103 -2090415105 -937725808 -1325324182 1955337683 983991707 937664696 1031818232 642127535 162346159 314869310 104050962 -2143562852 -1475983609 -1860796131 418394627 975587219
REM
CELL 1.54180   50.00000   50.00000   50.00000   90.00000   90.00000   90.00000
LATT -1
SFAC C  
C      1  0.4553660000000  0.5433550000000  0.5371790000000 1.0
C      1  0.4542180000000  0.4950150000000  0.5538350000000 1.0
C      1  0.4550610000000  0.4520410000000  0.5293000000000 1.0
C      1  0.4515080000000  0.4440340000000  0.4818260000000 1.0
C      1  0.4557040000000  0.4848470000000  0.4503240000000 1.0
C      1  0.4548970000000  0.5293440000000  0.4528000000000 1.0
C      1  0.4529300000000  0.5600440000000  0.4961780000000 1.0
C      1  0.4344300000000  0.5260700000000  0.5238070000000 1.0
C      1  0.4383660000000  0.4973970000000  0.5293510000000 1.0
C      1  0.4329070000000  0.4696800000000  0.5191860000000 1.0
C      1  0.4323310000000  0.4660860000000  0.4894070000000 1.0
C      1  0.4398630000000  0.4905460000000  0.4744000000000 1.0
C      1  0.4352140000000  0.5197310000000  0.4730880000000 1.0
C      1  0.4324470000000  0.5378140000000  0.4963410000000 1.0
C      1  0.5034230000000  0.4486320000000  0.5292630000000 1.0
C      1  0.5002560000000  0.4358490000000  0.4797270000000 1.0
C      1  0.5014710000000  0.4709850000000  0.4403400000000 1.0
C      1  0.5020080000000  0.5431110000000  0.4481810000000 1.0
C      1  0.5008540000000  0.5692380000000  0.4939010000000 1.0
C      1  0.5049880000000  0.5433500000000  0.5439540000000 1.0
C      1  0.5017800000000  0.4932630000000  0.5620140000000 1.0
C      1  0.4563710000000  0.5076690000000  0.4333570000000 1.0
C      1  0.4473190000000  0.5528440000000  0.4411360000000 1.0
C      1  0.4530590000000  0.5693790000000  0.5232260000000 1.0
C      1  0.4516640000000  0.5461190000000  0.5641270000000 1.0
C      1  0.4496360000000  0.4724710000000  0.5674620000000 1.0
C      1  0.4518320000000  0.4263910000000  0.5219700000000 1.0
C      1  0.4465630000000  0.4332870000000  0.4577860000000 1.0
C      1  0.5411240000000  0.4451850000000  0.5343120000000 1.0
C      1  0.5374710000000  0.4442160000000  0.4816990000000 1.0
C      1  0.5384610000000  0.4799110000000  0.4448520000000 1.0
C      1  0.5385780000000  0.5319110000000  0.4441060000000 1.0
C      1  0.5388760000000  0.5676860000000  0.4871410000000 1.0
C      1  0.5429270000000  0.5478590000000  0.5385910000000 1.0
C      1  0.5399550000000  0.4886860000000  0.5649220000000 1.0
C      1  0.5586500000000  0.4898650000000  0.5429730000000 1.0
C      1  0.5582290000000  0.4657600000000  0.5214750000000 1.0
C      1  0.5474670000000  0.4694380000000  0.4918230000000 1.0
C      1  0.5472540000000  0.4904920000000  0.4701880000000 1.0
C      1  0.5458850000000  0.5203540000000  0.4693670000000 1.0
C      1  0.5463590000000  0.5402520000000  0.4907940000000 1.0
C      1  0.5545080000000  0.5320750000000  0.5171890000000 1.0
C      1  0.5226020000000  0.5099060000000  0.5703410000000 1.0
C      1  0.5198470000000  0.4513130000000  0.5516360000000 1.0
C      1  0.5212100000000  0.4260810000000  0.4954760000000 1.0
C      1  0.5248890000000  0.4558500000000  0.4408400000000 1.0
C      1  0.5154900000000  0.5280050000000  0.4292380000000 1.0
C      1  0.5170660000000  0.5769250000000  0.4725660000000 1.0
C      1  0.5208210000000  0.5645760000000  0.5352790000000 1.0
C      1  0.4826810000000  0.4787570000000  0.4622070000000 1.0
C      1  0.4826550000000  0.5311860000000  0.4672670000000 1.0
C      1  0.4806000000000  0.5475680000000  0.4942590000000 1.0
C      1  0.4832080000000  0.5299330000000  0.5290730000000 1.0
C      1  0.4812980000000  0.4977270000000  0.5407190000000 1.0
C      1  0.4812840000000  0.4656370000000  0.5189920000000 1.0
C      1  0.4795530000000  0.4565900000000  0.4855330000000 1.0
C      1  0.4991730000000  0.5006930000000  0.5008530000000 1.0
C      1  0.5471170000000  0.5032200000000  0.5187520000000 1.0
C      1  0.4920860000000  0.5038400000000  0.4747980000000 1.0
C      1  0.5189040000000  0.5021830000000  0.5188570000000 1.0
END
