TITL C-8695-8180-192 2.04381124950507e-05 125000 -363.662740887084 0 0 60 (C1) n - 1
REM
REM in /home/bkarasulu/CARBON/AIRSS/Generating-Clusters/EDIP-Nigel-Params/Higher-Symm/Box-15A/Only-C60/SD-CG/HFTN-CG
REM
REM
REM
REM
REM
REM ./C.cell (414f73aa93bd7a1190c7fd0f31ff2f98)
REM
REM compiler GCC version 9.2.1 20190827 (Red Hat 9.2.1-1)
REM options -cpp -mtune=generic -march=x86-64 -g -O0 -fpre-include=/usr/include/finclude/math-vector-fortran.h
REM seed -701165740 1895635489 1261182414 974875291 -386443765 1015959949 -223135398 -229660378 933288854 217244286 1870088706 -797489762 -1231985321 1292199088 -1212055773 377706407 -926835758 1071612985 -285558990 1442166942 -1365181078 -592351701 1904427107 764236547 -404242818 1507451596 -1813120823 323560860 -1661725609 126902146 -1782933450 -1943254836 -385150120
REM
CELL 1.54180   50.00000   50.00000   50.00000   90.00000   90.00000   90.00000
LATT -1
SFAC C  
C      1  0.4278600000000  0.4794850000000  0.4975030000000 1.0
C      1  0.4620470000000  0.5235740000000  0.5620550000000 1.0
C      1  0.5377210000000  0.4785840000000  0.5562960000000 1.0
C      1  0.5744170000000  0.5209890000000  0.5027250000000 1.0
C      1  0.5381310000000  0.4767230000000  0.4379630000000 1.0
C      1  0.4617880000000  0.5232480000000  0.4426050000000 1.0
C      1  0.4920910000000  0.4558040000000  0.4414790000000 1.0
C      1  0.4421900000000  0.5424030000000  0.4823760000000 1.0
C      1  0.4487780000000  0.4600720000000  0.5393080000000 1.0
C      1  0.5071910000000  0.5456710000000  0.5559480000000 1.0
C      1  0.5594030000000  0.4584500000000  0.5180060000000 1.0
C      1  0.5523240000000  0.5404500000000  0.4624760000000 1.0
C      1  0.5332790000000  0.5038320000000  0.4400340000000 1.0
C      1  0.4726970000000  0.4984350000000  0.4548660000000 1.0
C      1  0.4278080000000  0.5057410000000  0.5061930000000 1.0
C      1  0.4691840000000  0.4967250000000  0.5605020000000 1.0
C      1  0.5223620000000  0.5013000000000  0.5448620000000 1.0
C      1  0.5695540000000  0.4955600000000  0.4921060000000 1.0
C      1  0.5636940000000  0.5443560000000  0.4879250000000 1.0
C      1  0.5187110000000  0.4587480000000  0.4500400000000 1.0
C      1  0.4600930000000  0.5464210000000  0.4615730000000 1.0
C      1  0.4438840000000  0.4607610000000  0.5119820000000 1.0
C      1  0.4801550000000  0.5429830000000  0.5501470000000 1.0
C      1  0.5402640000000  0.4552940000000  0.5378120000000 1.0
C      1  0.5521940000000  0.4726390000000  0.4942540000000 1.0
C      1  0.5284940000000  0.5246270000000  0.4591460000000 1.0
C      1  0.4773690000000  0.4695850000000  0.4625680000000 1.0
C      1  0.4465460000000  0.5274390000000  0.5064730000000 1.0
C      1  0.4735850000000  0.4750650000000  0.5419360000000 1.0
C      1  0.5199740000000  0.5297460000000  0.5352350000000 1.0
C      1  0.5472440000000  0.5595860000000  0.5072680000000 1.0
C      1  0.5334080000000  0.4385760000000  0.4655570000000 1.0
C      1  0.4877660000000  0.5503720000000  0.4700110000000 1.0
C      1  0.4535750000000  0.4403360000000  0.4942540000000 1.0
C      1  0.4650060000000  0.5624080000000  0.5342000000000 1.0
C      1  0.5126760000000  0.4493520000000  0.5300510000000 1.0
C      1  0.5048710000000  0.4300260000000  0.5092730000000 1.0
C      1  0.5220020000000  0.5689160000000  0.4985210000000 1.0
C      1  0.5227770000000  0.4263630000000  0.4883350000000 1.0
C      1  0.4952190000000  0.5700070000000  0.4905010000000 1.0
C      1  0.4780880000000  0.4283720000000  0.5012810000000 1.0
C      1  0.4766490000000  0.5737080000000  0.5111750000000 1.0
C      1  0.4768330000000  0.5149090000000  0.5076850000000 1.0
C      1  0.4858060000000  0.4866450000000  0.5136340000000 1.0
C      1  0.5035150000000  0.5296750000000  0.5057220000000 1.0
C      1  0.5199140000000  0.4844270000000  0.4970550000000 1.0
C      1  0.5200000000000  0.5128570000000  0.4868240000000 1.0
C      1  0.4934650000000  0.4676740000000  0.4887820000000 1.0
C      1  0.5474260000000  0.5419510000000  0.5309680000000 1.0
C      1  0.5577660000000  0.4542760000000  0.4706200000000 1.0
C      1  0.5056510000000  0.5408240000000  0.4490220000000 1.0
C      1  0.4509750000000  0.4553120000000  0.4683420000000 1.0
C      1  0.4406850000000  0.5456290000000  0.5301070000000 1.0
C      1  0.4953630000000  0.4578060000000  0.5520010000000 1.0
C      1  0.5638030000000  0.4688790000000  0.4469120000000 1.0
C      1  0.4889700000000  0.5249100000000  0.4315310000000 1.0
C      1  0.4288320000000  0.4733760000000  0.4700350000000 1.0
C      1  0.4359070000000  0.5302730000000  0.5536880000000 1.0
C      1  0.5121750000000  0.4733000000000  0.5698810000000 1.0
C      1  0.5698450000000  0.5245460000000  0.5303680000000 1.0
END
