TITL C-8698-8182-271 -6.07395921271081e-05 125000 -354.711906565418 0 0 60 (C1) n - 1
REM
REM in /home/bkarasulu/CARBON/AIRSS/Generating-Clusters/EDIP-Nigel-Params/Higher-Symm/Box-15A/Only-C60/SD-CG/HFTN-CG
REM
REM
REM
REM
REM
REM ./C.cell (414f73aa93bd7a1190c7fd0f31ff2f98)
REM
REM compiler GCC version 9.2.1 20190827 (Red Hat 9.2.1-1)
REM options -cpp -mtune=generic -march=x86-64 -g -O0 -fpre-include=/usr/include/finclude/math-vector-fortran.h
REM seed 734593744 1856530530 282600168 139730282 1878453357 -1900202726 -492663178 1184722721 2014762179 -1861064985 -1553708501 -635881653 -974958588 799587189 974307776 1572574298 1869854529 -246125198 -902984632 1837297095 -679865554 -1968779260 563858314 1297452840 1447061305 273483658 -1879335144 1955061366 -692198800 -548709848 156508377 1180385254 -288229075
REM
CELL 1.54180   50.00000   50.00000   50.00000   90.00000   90.00000   90.00000
LATT -1
SFAC C  
C      1  0.4572110000000  0.4631480000000  0.4516860000000 1.0
C      1  0.4869730000000  0.5507210000000  0.4562450000000 1.0
C      1  0.5546490000000  0.4827210000000  0.4537850000000 1.0
C      1  0.4592590000000  0.5384800000000  0.5425600000000 1.0
C      1  0.4913120000000  0.4440310000000  0.5465310000000 1.0
C      1  0.5515820000000  0.5161820000000  0.5496350000000 1.0
C      1  0.4910820000000  0.4402650000000  0.4870890000000 1.0
C      1  0.4381380000000  0.5322430000000  0.4966590000000 1.0
C      1  0.5553880000000  0.5103850000000  0.4967080000000 1.0
C      1  0.5016540000000  0.5647720000000  0.5010860000000 1.0
C      1  0.4612540000000  0.4609490000000  0.5119360000000 1.0
C      1  0.5555180000000  0.4629070000000  0.5029720000000 1.0
C      1  0.5383800000000  0.5279040000000  0.4782280000000 1.0
C      1  0.5048120000000  0.4583530000000  0.4681330000000 1.0
C      1  0.4495540000000  0.5161020000000  0.4748040000000 1.0
C      1  0.5373720000000  0.4728080000000  0.5248210000000 1.0
C      1  0.5112880000000  0.5482140000000  0.5230460000000 1.0
C      1  0.4645460000000  0.4845790000000  0.5297020000000 1.0
C      1  0.5176550000000  0.4406630000000  0.5547660000000 1.0
C      1  0.4411460000000  0.5193780000000  0.5523160000000 1.0
C      1  0.5481890000000  0.5433720000000  0.5534260000000 1.0
C      1  0.5128350000000  0.5577110000000  0.4480120000000 1.0
C      1  0.4363800000000  0.4799420000000  0.4442320000000 1.0
C      1  0.5465470000000  0.4587810000000  0.4424560000000 1.0
C      1  0.4310550000000  0.5062700000000  0.4515340000000 1.0
C      1  0.5385970000000  0.5522470000000  0.4572380000000 1.0
C      1  0.5236950000000  0.4443560000000  0.4487900000000 1.0
C      1  0.4400030000000  0.4924100000000  0.5455240000000 1.0
C      1  0.5391120000000  0.4576950000000  0.5504730000000 1.0
C      1  0.5282480000000  0.5608390000000  0.5455160000000 1.0
C      1  0.5136290000000  0.5087790000000  0.5901590000000 1.0
C      1  0.4923830000000  0.4877390000000  0.5877640000000 1.0
C      1  0.4871420000000  0.5159270000000  0.5773290000000 1.0
C      1  0.5159410000000  0.5027850000000  0.4153080000000 1.0
C      1  0.4906600000000  0.5199080000000  0.4177970000000 1.0
C      1  0.4888910000000  0.4908690000000  0.4089770000000 1.0
C      1  0.5164590000000  0.4821120000000  0.4847550000000 1.0
C      1  0.4712910000000  0.4972810000000  0.4838090000000 1.0
C      1  0.5098440000000  0.5191070000000  0.4853850000000 1.0
C      1  0.5116870000000  0.5174700000000  0.5171370000000 1.0
C      1  0.4764980000000  0.5070240000000  0.5117380000000 1.0
C      1  0.5099340000000  0.4731300000000  0.5128320000000 1.0
C      1  0.5487150000000  0.4730230000000  0.5712230000000 1.0
C      1  0.4494560000000  0.4717420000000  0.5636800000000 1.0
C      1  0.5025280000000  0.5593720000000  0.5594210000000 1.0
C      1  0.5538330000000  0.5322370000000  0.4429230000000 1.0
C      1  0.4464610000000  0.5269460000000  0.4375760000000 1.0
C      1  0.5010480000000  0.4443390000000  0.4310030000000 1.0
C      1  0.5461640000000  0.5004510000000  0.5731200000000 1.0
C      1  0.4764830000000  0.4618880000000  0.5645940000000 1.0
C      1  0.4851600000000  0.5365780000000  0.5566190000000 1.0
C      1  0.5431300000000  0.5060740000000  0.4411580000000 1.0
C      1  0.4750480000000  0.5286330000000  0.4410380000000 1.0
C      1  0.4794380000000  0.4627940000000  0.4327750000000 1.0
C      1  0.4650140000000  0.4678560000000  0.4812640000000 1.0
C      1  0.4891200000000  0.5438330000000  0.4854040000000 1.0
C      1  0.5479040000000  0.4836670000000  0.4829680000000 1.0
C      1  0.4622850000000  0.5344550000000  0.5125680000000 1.0
C      1  0.4898550000000  0.4506680000000  0.5159760000000 1.0
C      1  0.5405640000000  0.5048830000000  0.5237890000000 1.0
END
