TITL C-8696-5006-69 -0.00122774985669448 125000 -366.477695140121 0 0 60 (C2) n - 1
REM
REM in /home/bkarasulu/CARBON/AIRSS/Generating-Clusters/EDIP-Nigel-Params/Higher-Symm/Box-15A/Only-C60/SD-CG/HFTN-CG
REM
REM
REM
REM
REM
REM ./C.cell (414f73aa93bd7a1190c7fd0f31ff2f98)
REM
REM compiler GCC version 9.2.1 20190827 (Red Hat 9.2.1-1)
REM options -cpp -mtune=generic -march=x86-64 -g -O0 -fpre-include=/usr/include/finclude/math-vector-fortran.h
REM seed -1263474845 1271193083 139828823 -957092471 1186935907 1707646574 -1976906252 -1190628273 -288855099 -1254771470 843323633 -361977048 -354273718 -135121509 -1111972731 -748058770 -122005425 2060950081 834203578 1460861141 1996970114 1848831345 432601035 1934216225 -1725968753 -1893807833 797919225 1808426994 732146675 111794949 -873440852 1937636717 -403718246
REM
CELL 1.54180   50.00000   50.00000   50.00000   90.00000   90.00000   90.00000
LATT -1
SFAC C  
C      1  0.5538840000000  0.5368750000000  0.5404650000000 1.0
C      1  0.5542700000000  0.4635350000000  0.4596800000000 1.0
C      1  0.5006150000000  0.5297630000000  0.5074410000000 1.0
C      1  0.5008610000000  0.4702430000000  0.4925610000000 1.0
C      1  0.4897940000000  0.5386340000000  0.4591850000000 1.0
C      1  0.4899770000000  0.4612900000000  0.5407880000000 1.0
C      1  0.5579680000000  0.4818230000000  0.4810990000000 1.0
C      1  0.5577780000000  0.5186160000000  0.5190570000000 1.0
C      1  0.4419010000000  0.4617400000000  0.5077880000000 1.0
C      1  0.4416340000000  0.5378190000000  0.4920550000000 1.0
C      1  0.4727020000000  0.4523120000000  0.4563580000000 1.0
C      1  0.4722240000000  0.5474790000000  0.5435680000000 1.0
C      1  0.5624330000000  0.5286230000000  0.4915010000000 1.0
C      1  0.5626250000000  0.4718500000000  0.5086670000000 1.0
C      1  0.5261150000000  0.5470200000000  0.5082850000000 1.0
C      1  0.5264920000000  0.4531790000000  0.4917860000000 1.0
C      1  0.5404960000000  0.5474240000000  0.4811980000000 1.0
C      1  0.5408030000000  0.4528840000000  0.5189110000000 1.0
C      1  0.4485370000000  0.4916040000000  0.4644380000000 1.0
C      1  0.4483800000000  0.5080050000000  0.5354230000000 1.0
C      1  0.5643050000000  0.5147130000000  0.4454270000000 1.0
C      1  0.5642680000000  0.4857740000000  0.5547460000000 1.0
C      1  0.4702010000000  0.5266050000000  0.4380610000000 1.0
C      1  0.4702370000000  0.4731700000000  0.5618590000000 1.0
C      1  0.4300720000000  0.4621350000000  0.5332150000000 1.0
C      1  0.4298770000000  0.5373340000000  0.4665970000000 1.0
C      1  0.4642070000000  0.4427760000000  0.5054420000000 1.0
C      1  0.4637890000000  0.5569510000000  0.4944610000000 1.0
C      1  0.4356100000000  0.5156480000000  0.5104360000000 1.0
C      1  0.4357590000000  0.4838650000000  0.4893910000000 1.0
C      1  0.4780440000000  0.4371770000000  0.5293580000000 1.0
C      1  0.4776480000000  0.5626550000000  0.4705830000000 1.0
C      1  0.5034200000000  0.4243280000000  0.4818720000000 1.0
C      1  0.5027980000000  0.5756950000000  0.5181360000000 1.0
C      1  0.4931320000000  0.5183440000000  0.4807140000000 1.0
C      1  0.4932190000000  0.4816050000000  0.5192670000000 1.0
C      1  0.5360420000000  0.5141940000000  0.4435890000000 1.0
C      1  0.5359970000000  0.4860790000000  0.5565080000000 1.0
C      1  0.4737220000000  0.5198490000000  0.5443990000000 1.0
C      1  0.4739920000000  0.4799530000000  0.4555310000000 1.0
C      1  0.5311290000000  0.5496790000000  0.5511210000000 1.0
C      1  0.5316420000000  0.4505580000000  0.4489630000000 1.0
C      1  0.4829360000000  0.5536590000000  0.5165830000000 1.0
C      1  0.4833870000000  0.4462130000000  0.4833720000000 1.0
C      1  0.4449300000000  0.5180810000000  0.4522770000000 1.0
C      1  0.4449410000000  0.4815020000000  0.5475750000000 1.0
C      1  0.4989330000000  0.4904710000000  0.4704950000000 1.0
C      1  0.4987820000000  0.5095200000000  0.5295020000000 1.0
C      1  0.5690070000000  0.5073490000000  0.4724560000000 1.0
C      1  0.5689870000000  0.4931730000000  0.5277300000000 1.0
C      1  0.5241950000000  0.5124030000000  0.5468740000000 1.0
C      1  0.5244140000000  0.4877810000000  0.4531920000000 1.0
C      1  0.4796350000000  0.5067540000000  0.4203270000000 1.0
C      1  0.4794730000000  0.4930910000000  0.5796190000000 1.0
C      1  0.5240240000000  0.5385440000000  0.4564090000000 1.0
C      1  0.5241980000000  0.4616390000000  0.5436550000000 1.0
C      1  0.5241740000000  0.5732300000000  0.5365210000000 1.0
C      1  0.5248260000000  0.4269550000000  0.4635450000000 1.0
C      1  0.4774510000000  0.4805070000000  0.4280800000000 1.0
C      1  0.4771110000000  0.5193210000000  0.5718590000000 1.0
END
