TITL C-8696-5006-157 0.000325072841372926 125000 -358.985187491735 0 0 60 (C1) n - 1
REM
REM in /home/bkarasulu/CARBON/AIRSS/Generating-Clusters/EDIP-Nigel-Params/Higher-Symm/Box-15A/Only-C60/SD-CG/HFTN-CG
REM
REM
REM
REM
REM
REM ./C.cell (414f73aa93bd7a1190c7fd0f31ff2f98)
REM
REM compiler GCC version 9.2.1 20190827 (Red Hat 9.2.1-1)
REM options -cpp -mtune=generic -march=x86-64 -g -O0 -fpre-include=/usr/include/finclude/math-vector-fortran.h
REM seed 507325336 -1162477445 -851316756 -1518340486 -1718084177 511477197 -1407695207 1454326165 1573760036 1774615092 -1310005801 -1531122354 -302422256 681947346 -867689348 -1461543084 1591973635 -1083152756 -828112072 2068894437 765705806 -968629982 -439623153 876756958 750585007 1404539119 -2137975149 1477937429 1924457603 34915416 -1132141631 -515221560 -1101391954
REM
CELL 1.54180   50.00000   50.00000   50.00000   90.00000   90.00000   90.00000
LATT -1
SFAC C  
C      1  0.4603090000000  0.4701730000000  0.5560270000000 1.0
C      1  0.4684750000000  0.4734700000000  0.4376480000000 1.0
C      1  0.5720090000000  0.4747140000000  0.5034110000000 1.0
C      1  0.4573840000000  0.5236940000000  0.5526540000000 1.0
C      1  0.4698480000000  0.5267170000000  0.4342660000000 1.0
C      1  0.5734640000000  0.5306780000000  0.5081590000000 1.0
C      1  0.5127250000000  0.4920510000000  0.4704140000000 1.0
C      1  0.5314350000000  0.4875770000000  0.5359550000000 1.0
C      1  0.4631360000000  0.4871390000000  0.5018070000000 1.0
C      1  0.5277550000000  0.5167550000000  0.4754870000000 1.0
C      1  0.5224730000000  0.5138850000000  0.5328080000000 1.0
C      1  0.4609570000000  0.5141010000000  0.4899380000000 1.0
C      1  0.5353110000000  0.4419230000000  0.5452270000000 1.0
C      1  0.4438330000000  0.4490950000000  0.5142940000000 1.0
C      1  0.5110540000000  0.4513480000000  0.4516610000000 1.0
C      1  0.5442320000000  0.5506230000000  0.5449120000000 1.0
C      1  0.4409210000000  0.5489720000000  0.5116030000000 1.0
C      1  0.5180980000000  0.5433620000000  0.4398480000000 1.0
C      1  0.4441410000000  0.4860250000000  0.4487670000000 1.0
C      1  0.5680600000000  0.4895600000000  0.4784300000000 1.0
C      1  0.4829570000000  0.4843710000000  0.5680270000000 1.0
C      1  0.4454010000000  0.5159770000000  0.4484970000000 1.0
C      1  0.5716560000000  0.5195810000000  0.4801140000000 1.0
C      1  0.4807950000000  0.5138770000000  0.5676280000000 1.0
C      1  0.5163030000000  0.4328660000000  0.5247870000000 1.0
C      1  0.4791480000000  0.4593940000000  0.4959350000000 1.0
C      1  0.5080260000000  0.4646670000000  0.4872630000000 1.0
C      1  0.5114290000000  0.5405480000000  0.5180230000000 1.0
C      1  0.4751580000000  0.5412980000000  0.4946640000000 1.0
C      1  0.5175070000000  0.5434070000000  0.4863580000000 1.0
C      1  0.5534380000000  0.4548000000000  0.5130560000000 1.0
C      1  0.4633480000000  0.4491160000000  0.5355460000000 1.0
C      1  0.4817730000000  0.4519640000000  0.4523530000000 1.0
C      1  0.5550020000000  0.5519360000000  0.5182750000000 1.0
C      1  0.4594110000000  0.5472860000000  0.5352510000000 1.0
C      1  0.4903850000000  0.5446010000000  0.4461260000000 1.0
C      1  0.5292520000000  0.5294030000000  0.5567680000000 1.0
C      1  0.4339170000000  0.5268910000000  0.4930680000000 1.0
C      1  0.5389950000000  0.5276420000000  0.4509160000000 1.0
C      1  0.5301560000000  0.4682250000000  0.5560280000000 1.0
C      1  0.4374050000000  0.4729930000000  0.4995140000000 1.0
C      1  0.5266880000000  0.4759920000000  0.4497570000000 1.0
C      1  0.5041810000000  0.5299750000000  0.5699060000000 1.0
C      1  0.4279510000000  0.5311600000000  0.4657660000000 1.0
C      1  0.5646020000000  0.5365660000000  0.4579550000000 1.0
C      1  0.5072670000000  0.4710670000000  0.5718650000000 1.0
C      1  0.4323980000000  0.4735330000000  0.4715640000000 1.0
C      1  0.5539800000000  0.4770420000000  0.4571700000000 1.0
C      1  0.4364930000000  0.4846390000000  0.5562530000000 1.0
C      1  0.4795450000000  0.4828970000000  0.4135900000000 1.0
C      1  0.5870660000000  0.4883070000000  0.5225160000000 1.0
C      1  0.4324270000000  0.5112370000000  0.5555340000000 1.0
C      1  0.4792350000000  0.5097420000000  0.4143040000000 1.0
C      1  0.5868150000000  0.5148270000000  0.5270130000000 1.0
C      1  0.4846400000000  0.5565370000000  0.4713280000000 1.0
C      1  0.5373690000000  0.5621150000000  0.4981810000000 1.0
C      1  0.4870070000000  0.5554220000000  0.5286760000000 1.0
C      1  0.4685800000000  0.4418710000000  0.4751170000000 1.0
C      1  0.5280540000000  0.4468640000000  0.5017850000000 1.0
C      1  0.4886180000000  0.4375040000000  0.5302050000000 1.0
END
