TITL C-8693-7204-39 -1.47961999334204e-06 125000 -356.694675483301 0 0 60 (Cs) n - 1
REM
REM in /home/bkarasulu/CARBON/AIRSS/Generating-Clusters/EDIP-Nigel-Params/Higher-Symm/Box-15A/Only-C60/SD-CG/HFTN-CG
REM
REM
REM
REM
REM
REM ./C.cell (414f73aa93bd7a1190c7fd0f31ff2f98)
REM
REM compiler GCC version 9.2.1 20190827 (Red Hat 9.2.1-1)
REM options -cpp -mtune=generic -march=x86-64 -g -O0 -fpre-include=/usr/include/finclude/math-vector-fortran.h
REM seed -312646904 -1600764014 546227344 575708814 -2084208832 489762870 783441288 -1087025431 -1947294243 -476663844 -609221514 1665908960 -2016966240 1478092359 1132761482 83176524 1459183772 -6482327 -309596456 -1326662192 1188142856 1965870168 247221245 -764243774 248848604 1366836371 1097237596 1547939793 593836888 -1430168317 633915782 -1736707477 -64696267
REM
CELL 1.54180   50.00000   50.00000   50.00000   90.00000   90.00000   90.00000
LATT -1
SFAC C  
C      1  0.5134820000000  0.5364570000000  0.4233690000000 1.0
C      1  0.4864760000000  0.5366920000000  0.5763710000000 1.0
C      1  0.4870040000000  0.5364400000000  0.4232780000000 1.0
C      1  0.5129500000000  0.5367090000000  0.5764630000000 1.0
C      1  0.4243620000000  0.4679810000000  0.4890360000000 1.0
C      1  0.5778920000000  0.4653770000000  0.5160030000000 1.0
C      1  0.5757510000000  0.4680740000000  0.4895600000000 1.0
C      1  0.4220410000000  0.4652820000000  0.5154640000000 1.0
C      1  0.4845850000000  0.4741610000000  0.5708780000000 1.0
C      1  0.5154730000000  0.4741920000000  0.4286490000000 1.0
C      1  0.5149560000000  0.4741800000000  0.5709830000000 1.0
C      1  0.4850520000000  0.4741730000000  0.4285440000000 1.0
C      1  0.5131870000000  0.5658460000000  0.5263560000000 1.0
C      1  0.4867340000000  0.5660050000000  0.4731340000000 1.0
C      1  0.4865510000000  0.5658300000000  0.5262640000000 1.0
C      1  0.5133710000000  0.5660210000000  0.4732260000000 1.0
C      1  0.4851970000000  0.4513800000000  0.4711100000000 1.0
C      1  0.5148750000000  0.4512840000000  0.5282840000000 1.0
C      1  0.5150620000000  0.4513980000000  0.4712140000000 1.0
C      1  0.4849890000000  0.4512650000000  0.5281810000000 1.0
C      1  0.4764730000000  0.4504260000000  0.4434650000000 1.0
C      1  0.5236420000000  0.4505770000000  0.5559440000000 1.0
C      1  0.5239780000000  0.4504550000000  0.4436300000000 1.0
C      1  0.4760320000000  0.4505480000000  0.5557800000000 1.0
C      1  0.5607970000000  0.5092860000000  0.5320110000000 1.0
C      1  0.4393130000000  0.5091260000000  0.4677620000000 1.0
C      1  0.4389720000000  0.5092120000000  0.5315890000000 1.0
C      1  0.5608970000000  0.5092010000000  0.4681820000000 1.0
C      1  0.4626500000000  0.5216530000000  0.5172580000000 1.0
C      1  0.5373200000000  0.5218330000000  0.4824330000000 1.0
C      1  0.5372030000000  0.5216990000000  0.5175160000000 1.0
C      1  0.4627760000000  0.5217880000000  0.4821750000000 1.0
C      1  0.5471920000000  0.4793140000000  0.5664610000000 1.0
C      1  0.4527730000000  0.4791910000000  0.4334840000000 1.0
C      1  0.4523750000000  0.4792560000000  0.5661330000000 1.0
C      1  0.5477120000000  0.4792490000000  0.4338120000000 1.0
C      1  0.4717930000000  0.4753430000000  0.5151550000000 1.0
C      1  0.5281410000000  0.4756060000000  0.4841510000000 1.0
C      1  0.5281320000000  0.4753780000000  0.5153500000000 1.0
C      1  0.4720000000000  0.4755720000000  0.4839570000000 1.0
C      1  0.5145460000000  0.5015850000000  0.5220230000000 1.0
C      1  0.4854810000000  0.5018460000000  0.4774360000000 1.0
C      1  0.4853000000000  0.5015670000000  0.5219220000000 1.0
C      1  0.5146730000000  0.5018640000000  0.4775370000000 1.0
C      1  0.4447550000000  0.5081380000000  0.4384200000000 1.0
C      1  0.5552300000000  0.5084050000000  0.5614620000000 1.0
C      1  0.5556600000000  0.5082060000000  0.4388040000000 1.0
C      1  0.4443360000000  0.5083370000000  0.5610790000000 1.0
C      1  0.5344970000000  0.5525490000000  0.5147330000000 1.0
C      1  0.4653890000000  0.5526910000000  0.4846770000000 1.0
C      1  0.4653370000000  0.5525070000000  0.5144940000000 1.0
C      1  0.5346510000000  0.5527330000000  0.4849160000000 1.0
C      1  0.4437500000000  0.4790230000000  0.5280810000000 1.0
C      1  0.5563260000000  0.4791300000000  0.4721390000000 1.0
C      1  0.5560800000000  0.4790910000000  0.5284700000000 1.0
C      1  0.4438940000000  0.4790610000000  0.4717500000000 1.0
C      1  0.4624440000000  0.5275430000000  0.5698220000000 1.0
C      1  0.5375480000000  0.5273600000000  0.4298990000000 1.0
C      1  0.5370380000000  0.5275880000000  0.5700800000000 1.0
C      1  0.4629040000000  0.5273140000000  0.4296410000000 1.0
END
