TITL C-8691-6797-37 -5.43807622936745e-06 125000 -364.239620536808 0 0 60 (C1) n - 1
REM
REM in /home/bkarasulu/CARBON/AIRSS/Generating-Clusters/EDIP-Nigel-Params/Higher-Symm/Box-15A/Only-C60/SD-CG/HFTN-CG
REM
REM
REM
REM
REM
REM ./C.cell (414f73aa93bd7a1190c7fd0f31ff2f98)
REM
REM compiler GCC version 9.2.1 20190827 (Red Hat 9.2.1-1)
REM options -cpp -mtune=generic -march=x86-64 -g -O0 -fpre-include=/usr/include/finclude/math-vector-fortran.h
REM seed 608287598 -1750233894 -267612979 -334995162 319902417 627302279 28218340 824236920 1103472244 1020588950 -977235846 210477462 1671499198 1072574482 -853410500 -1504705060 835670589 153363060 -1651539833 -434055898 1981702088 -370543761 1172494242 739139965 2093744906 1799589836 -743009486 1947304765 1855273523 -141792872 -1639719869 2036529964 -575669879
REM
CELL 1.54180   50.00000   50.00000   50.00000   90.00000   90.00000   90.00000
LATT -1
SFAC C  
C      1  0.5467290000000  0.5439730000000  0.4595690000000 1.0
C      1  0.4635810000000  0.5555500000000  0.4614900000000 1.0
C      1  0.4316800000000  0.4860150000000  0.4628300000000 1.0
C      1  0.4922370000000  0.4407000000000  0.4633430000000 1.0
C      1  0.5699050000000  0.4738100000000  0.4583050000000 1.0
C      1  0.5461110000000  0.4572150000000  0.4604550000000 1.0
C      1  0.4636160000000  0.4454540000000  0.4619090000000 1.0
C      1  0.4303870000000  0.5149640000000  0.4630770000000 1.0
C      1  0.4922900000000  0.5598980000000  0.4627290000000 1.0
C      1  0.5685980000000  0.5250760000000  0.4570190000000 1.0
C      1  0.5422510000000  0.5409690000000  0.5343680000000 1.0
C      1  0.4632790000000  0.5617070000000  0.5428860000000 1.0
C      1  0.4290180000000  0.4843500000000  0.5396930000000 1.0
C      1  0.4942230000000  0.4369280000000  0.5411670000000 1.0
C      1  0.5661100000000  0.4727190000000  0.5478890000000 1.0
C      1  0.5421940000000  0.4583370000000  0.5353390000000 1.0
C      1  0.4634630000000  0.4373660000000  0.5441350000000 1.0
C      1  0.4294100000000  0.5145480000000  0.5395150000000 1.0
C      1  0.4942220000000  0.5627970000000  0.5403810000000 1.0
C      1  0.5661340000000  0.5264600000000  0.5467500000000 1.0
C      1  0.4493460000000  0.5526330000000  0.4373510000000 1.0
C      1  0.4338040000000  0.4701340000000  0.4399440000000 1.0
C      1  0.5077920000000  0.4390790000000  0.4404170000000 1.0
C      1  0.5764590000000  0.4875290000000  0.4346650000000 1.0
C      1  0.5335720000000  0.5548080000000  0.4376140000000 1.0
C      1  0.4499380000000  0.4484830000000  0.4375030000000 1.0
C      1  0.4331560000000  0.5310620000000  0.4403820000000 1.0
C      1  0.5076560000000  0.5618460000000  0.4396890000000 1.0
C      1  0.5769720000000  0.5145930000000  0.4321790000000 1.0
C      1  0.5337290000000  0.4460220000000  0.4382260000000 1.0
C      1  0.5827150000000  0.4855020000000  0.4825610000000 1.0
C      1  0.5348420000000  0.5481620000000  0.4854270000000 1.0
C      1  0.4477120000000  0.5541640000000  0.4861980000000 1.0
C      1  0.4308950000000  0.4712860000000  0.4879170000000 1.0
C      1  0.5070680000000  0.4428650000000  0.4881800000000 1.0
C      1  0.5826560000000  0.5148450000000  0.4811500000000 1.0
C      1  0.5347520000000  0.4518150000000  0.4862910000000 1.0
C      1  0.4474950000000  0.4469150000000  0.4864530000000 1.0
C      1  0.4317600000000  0.5291840000000  0.4885800000000 1.0
C      1  0.5072540000000  0.5573620000000  0.4874790000000 1.0
C      1  0.4925640000000  0.4487700000000  0.5127140000000 1.0
C      1  0.5712310000000  0.4801810000000  0.5101460000000 1.0
C      1  0.5450800000000  0.5327710000000  0.5074310000000 1.0
C      1  0.4625780000000  0.5502120000000  0.5128720000000 1.0
C      1  0.4442790000000  0.4828030000000  0.5125960000000 1.0
C      1  0.4930350000000  0.5505520000000  0.5119810000000 1.0
C      1  0.5711020000000  0.5191070000000  0.5089990000000 1.0
C      1  0.5451860000000  0.4666900000000  0.5084790000000 1.0
C      1  0.4621420000000  0.4481820000000  0.5135390000000 1.0
C      1  0.4446840000000  0.5156250000000  0.5126820000000 1.0
C      1  0.4637170000000  0.4580740000000  0.5651440000000 1.0
C      1  0.5228610000000  0.4717720000000  0.5543940000000 1.0
C      1  0.5473870000000  0.5147660000000  0.5689870000000 1.0
C      1  0.5013540000000  0.5448870000000  0.5624440000000 1.0
C      1  0.4464630000000  0.5183890000000  0.5627200000000 1.0
C      1  0.4639510000000  0.5413120000000  0.5642960000000 1.0
C      1  0.5229750000000  0.5279530000000  0.5537720000000 1.0
C      1  0.5472440000000  0.4851440000000  0.5694980000000 1.0
C      1  0.5011990000000  0.4549760000000  0.5631260000000 1.0
C      1  0.4459600000000  0.4807070000000  0.5631240000000 1.0
END
