TITL C-8699-7882-43 -6.87837452744876e-05 125000 -357.130812508571 0 0 60 (C1) n - 1
REM
REM in /home/bkarasulu/CARBON/AIRSS/Generating-Clusters/EDIP-Nigel-Params/Higher-Symm/Box-15A/Only-C60/SD-CG/HFTN-CG
REM
REM
REM
REM
REM
REM ./C.cell (414f73aa93bd7a1190c7fd0f31ff2f98)
REM
REM compiler GCC version 9.2.1 20190827 (Red Hat 9.2.1-1)
REM options -cpp -mtune=generic -march=x86-64 -g -O0 -fpre-include=/usr/include/finclude/math-vector-fortran.h
REM seed -974479274 1572779202 -1085589474 1855687519 1381725626 -1052050451 -1464061203 999552895 1660774245 -1758899903 -891610522 -1812968394 1746364777 1391080990 -1506334001 -387214449 1299825942 -1116568636 1870997417 -2036170097 -1347246186 1337343169 1916886853 -1593887640 1244926302 1908440668 941815867 1409860127 799330196 1453355398 559651058 -817191182 -1020892329
REM
CELL 1.54180   50.00000   50.00000   50.00000   90.00000   90.00000   90.00000
LATT -1
SFAC C  
C      1  0.4621010000000  0.5206190000000  0.5632620000000 1.0
C      1  0.5185610000000  0.5200080000000  0.5588580000000 1.0
C      1  0.5614030000000  0.5191480000000  0.5166030000000 1.0
C      1  0.5519350000000  0.5215380000000  0.4618150000000 1.0
C      1  0.4998330000000  0.5233070000000  0.4230350000000 1.0
C      1  0.4484770000000  0.5250830000000  0.4530540000000 1.0
C      1  0.4278140000000  0.5226150000000  0.5050960000000 1.0
C      1  0.4303700000000  0.4745370000000  0.4802220000000 1.0
C      1  0.4290110000000  0.4800550000000  0.5317010000000 1.0
C      1  0.4824890000000  0.4822610000000  0.5823200000000 1.0
C      1  0.5542730000000  0.4818930000000  0.5580090000000 1.0
C      1  0.5753590000000  0.4757690000000  0.4988190000000 1.0
C      1  0.5493120000000  0.4853930000000  0.4288030000000 1.0
C      1  0.4772600000000  0.4809600000000  0.4235910000000 1.0
C      1  0.4641930000000  0.5080290000000  0.4705120000000 1.0
C      1  0.4564480000000  0.5107270000000  0.5006770000000 1.0
C      1  0.4803350000000  0.5089560000000  0.5251150000000 1.0
C      1  0.5130830000000  0.5024770000000  0.5341500000000 1.0
C      1  0.5342960000000  0.5087220000000  0.5087570000000 1.0
C      1  0.5311990000000  0.5037110000000  0.4758150000000 1.0
C      1  0.4992500000000  0.5097140000000  0.4641560000000 1.0
C      1  0.5155700000000  0.4608710000000  0.4533980000000 1.0
C      1  0.4874130000000  0.4561150000000  0.4622350000000 1.0
C      1  0.4663480000000  0.4446020000000  0.5096910000000 1.0
C      1  0.4725320000000  0.4548540000000  0.5377970000000 1.0
C      1  0.5012210000000  0.4567600000000  0.5470110000000 1.0
C      1  0.5216090000000  0.4600120000000  0.5266070000000 1.0
C      1  0.5331410000000  0.4596850000000  0.4771870000000 1.0
C      1  0.4496760000000  0.4677690000000  0.5018670000000 1.0
C      1  0.4553610000000  0.4783490000000  0.5442130000000 1.0
C      1  0.5062520000000  0.4718440000000  0.5718820000000 1.0
C      1  0.5466000000000  0.4734630000000  0.5326640000000 1.0
C      1  0.5607060000000  0.4714490000000  0.4751420000000 1.0
C      1  0.5223750000000  0.4836350000000  0.4371190000000 1.0
C      1  0.4657680000000  0.4677380000000  0.4451690000000 1.0
C      1  0.4611730000000  0.4933700000000  0.5681100000000 1.0
C      1  0.5284820000000  0.4921160000000  0.5684090000000 1.0
C      1  0.5705960000000  0.4899260000000  0.5234240000000 1.0
C      1  0.5619420000000  0.4932140000000  0.4534200000000 1.0
C      1  0.5008720000000  0.4956170000000  0.4222090000000 1.0
C      1  0.4459690000000  0.4863990000000  0.4576850000000 1.0
C      1  0.4187370000000  0.4928840000000  0.5059030000000 1.0
C      1  0.5517100000000  0.5496810000000  0.4646910000000 1.0
C      1  0.5043690000000  0.5439570000000  0.4398440000000 1.0
C      1  0.4569020000000  0.5505010000000  0.4586740000000 1.0
C      1  0.4415170000000  0.5475340000000  0.5089100000000 1.0
C      1  0.4717140000000  0.5423320000000  0.5506810000000 1.0
C      1  0.5250650000000  0.5472920000000  0.5555750000000 1.0
C      1  0.5606330000000  0.5474810000000  0.5175030000000 1.0
C      1  0.5038100000000  0.5533610000000  0.4661320000000 1.0
C      1  0.4773410000000  0.5542140000000  0.4773280000000 1.0
C      1  0.4689760000000  0.5529210000000  0.5048200000000 1.0
C      1  0.4852530000000  0.5524760000000  0.5285950000000 1.0
C      1  0.5143320000000  0.5535970000000  0.5302800000000 1.0
C      1  0.5340750000000  0.5532100000000  0.5091600000000 1.0
C      1  0.5290540000000  0.5545330000000  0.4805930000000 1.0
C      1  0.5116980000000  0.4622020000000  0.4991810000000 1.0
C      1  0.4951090000000  0.4896430000000  0.4961910000000 1.0
C      1  0.4897010000000  0.4421210000000  0.4913080000000 1.0
C      1  0.5021670000000  0.5247040000000  0.4991250000000 1.0
END
