TITL C-8698-8182-51 -9.20173483934744e-07 125000 -359.860631909976 0 0 60 (C1) n - 1
REM
REM in /home/bkarasulu/CARBON/AIRSS/Generating-Clusters/EDIP-Nigel-Params/Higher-Symm/Box-15A/Only-C60/SD-CG/HFTN-CG
REM
REM
REM
REM
REM
REM ./C.cell (414f73aa93bd7a1190c7fd0f31ff2f98)
REM
REM compiler GCC version 9.2.1 20190827 (Red Hat 9.2.1-1)
REM options -cpp -mtune=generic -march=x86-64 -g -O0 -fpre-include=/usr/include/finclude/math-vector-fortran.h
REM seed 1278490687 1454609679 -171478437 1469555539 -967003381 1813719462 1251483241 231523035 1602680512 871584687 -2011442807 -1490130130 338637320 -597169067 -735309634 195846880 700847802 960325075 1734634004 1617889602 1531495959 -1966166953 769785547 -308745491 1511156141 -488651174 1252120347 1271979323 1469503442 -1943572506 1030895058 1187472553 581333090
REM
CELL 1.54180   50.00000   50.00000   50.00000   90.00000   90.00000   90.00000
LATT -1
SFAC C  
C      1  0.5274400000000  0.4318740000000  0.4865190000000 1.0
C      1  0.4315320000000  0.4873050000000  0.5253590000000 1.0
C      1  0.4853160000000  0.5255990000000  0.4299260000000 1.0
C      1  0.4747530000000  0.5689750000000  0.4864970000000 1.0
C      1  0.5264360000000  0.5684770000000  0.5139460000000 1.0
C      1  0.4749960000000  0.4332130000000  0.5124750000000 1.0
C      1  0.5697080000000  0.5129040000000  0.5264690000000 1.0
C      1  0.4301240000000  0.5155780000000  0.4740120000000 1.0
C      1  0.5675990000000  0.4842510000000  0.4756560000000 1.0
C      1  0.5105140000000  0.4708400000000  0.4256660000000 1.0
C      1  0.4866130000000  0.4743400000000  0.5684970000000 1.0
C      1  0.5143080000000  0.5257840000000  0.5689400000000 1.0
C      1  0.5230330000000  0.4258010000000  0.5147070000000 1.0
C      1  0.4248130000000  0.4871020000000  0.4771190000000 1.0
C      1  0.4858240000000  0.5227200000000  0.5738580000000 1.0
C      1  0.4780180000000  0.5740460000000  0.5149520000000 1.0
C      1  0.5232570000000  0.5729820000000  0.4854030000000 1.0
C      1  0.4792720000000  0.4293010000000  0.4839560000000 1.0
C      1  0.5720270000000  0.5129460000000  0.4776680000000 1.0
C      1  0.4264540000000  0.5158210000000  0.5227020000000 1.0
C      1  0.5747560000000  0.4843660000000  0.5240590000000 1.0
C      1  0.5150700000000  0.4772480000000  0.5737820000000 1.0
C      1  0.4802060000000  0.4782190000000  0.4211860000000 1.0
C      1  0.5137310000000  0.5201850000000  0.4264450000000 1.0
C      1  0.5594140000000  0.5544530000000  0.5012770000000 1.0
C      1  0.5564630000000  0.5008840000000  0.5600490000000 1.0
C      1  0.5016400000000  0.5592160000000  0.5559700000000 1.0
C      1  0.4420090000000  0.4462370000000  0.4991070000000 1.0
C      1  0.5608300000000  0.4427170000000  0.5010310000000 1.0
C      1  0.4410210000000  0.5569980000000  0.4993120000000 1.0
C      1  0.4448130000000  0.4995230000000  0.5587780000000 1.0
C      1  0.5519950000000  0.4952540000000  0.4431220000000 1.0
C      1  0.4422800000000  0.5029040000000  0.4404280000000 1.0
C      1  0.4992220000000  0.4410030000000  0.5553670000000 1.0
C      1  0.5037360000000  0.4444570000000  0.4441750000000 1.0
C      1  0.4998200000000  0.5571980000000  0.4449470000000 1.0
C      1  0.5495860000000  0.5658920000000  0.4766140000000 1.0
C      1  0.5635020000000  0.5206370000000  0.4513690000000 1.0
C      1  0.5241920000000  0.5456440000000  0.4345420000000 1.0
C      1  0.4531320000000  0.4361390000000  0.4743980000000 1.0
C      1  0.5494520000000  0.4306120000000  0.5246430000000 1.0
C      1  0.4514290000000  0.5682390000000  0.5238120000000 1.0
C      1  0.4301790000000  0.4785430000000  0.4502990000000 1.0
C      1  0.5685410000000  0.4763080000000  0.5508310000000 1.0
C      1  0.4333330000000  0.5242570000000  0.5491830000000 1.0
C      1  0.4774320000000  0.4518990000000  0.4334950000000 1.0
C      1  0.5236670000000  0.4506660000000  0.5674370000000 1.0
C      1  0.4771380000000  0.5492890000000  0.5676390000000 1.0
C      1  0.5239150000000  0.4952040000000  0.4372520000000 1.0
C      1  0.4729140000000  0.4989480000000  0.5637750000000 1.0
C      1  0.4360590000000  0.4741460000000  0.5003900000000 1.0
C      1  0.4702790000000  0.5017970000000  0.4346970000000 1.0
C      1  0.5037340000000  0.4399670000000  0.4726760000000 1.0
C      1  0.5637750000000  0.5262630000000  0.5019260000000 1.0
C      1  0.4357120000000  0.5289630000000  0.4986690000000 1.0
C      1  0.5643910000000  0.4709620000000  0.5006800000000 1.0
C      1  0.5282310000000  0.5012290000000  0.5644280000000 1.0
C      1  0.4991850000000  0.5630350000000  0.4729100000000 1.0
C      1  0.5018860000000  0.5640300000000  0.5278300000000 1.0
C      1  0.4992910000000  0.4366110000000  0.5271400000000 1.0
END
