TITL C-8698-8182-238 -6.19416178109821e-07 125000 -368.928575504865 0 0 60 (C3) n - 1
REM
REM in /home/bkarasulu/CARBON/AIRSS/Generating-Clusters/EDIP-Nigel-Params/Higher-Symm/Box-15A/Only-C60/SD-CG/HFTN-CG
REM
REM
REM
REM
REM
REM ./C.cell (414f73aa93bd7a1190c7fd0f31ff2f98)
REM
REM compiler GCC version 9.2.1 20190827 (Red Hat 9.2.1-1)
REM options -cpp -mtune=generic -march=x86-64 -g -O0 -fpre-include=/usr/include/finclude/math-vector-fortran.h
REM seed 1121987571 -521940158 1749860891 1134752903 8657985 -308730593 -1083751236 -468086238 333221354 1756597951 1753925425 -962444851 1376726846 126828476 2084760892 957027921 -1207999082 1364426215 1370299219 -1130847245 -2142813768 -765729641 174952880 -1168247538 2082864373 -1683448103 281298044 -7080595 -1888582344 -1675034046 -1580762403 1288538338 659355680
REM
CELL 1.54180   50.00000   50.00000   50.00000   90.00000   90.00000   90.00000
LATT -1
SFAC C  
C      1  0.5092970000000  0.5663070000000  0.4778410000000 1.0
C      1  0.4379300000000  0.4748980000000  0.4778380000000 1.0
C      1  0.5527760000000  0.4587960000000  0.4778410000000 1.0
C      1  0.5005920000000  0.5402290000000  0.4660400000000 1.0
C      1  0.4648670000000  0.4803980000000  0.4660390000000 1.0
C      1  0.5345440000000  0.4793740000000  0.4660410000000 1.0
C      1  0.5739640000000  0.4723900000000  0.4896890000000 1.0
C      1  0.4869290000000  0.5778600000000  0.4896870000000 1.0
C      1  0.4391080000000  0.4497510000000  0.4896840000000 1.0
C      1  0.5384710000000  0.4400900000000  0.4949800000000 1.0
C      1  0.5326490000000  0.5632720000000  0.4949810000000 1.0
C      1  0.4288810000000  0.4966380000000  0.4949770000000 1.0
C      1  0.4684830000000  0.5213760000000  0.4374260000000 1.0
C      1  0.4972500000000  0.4620170000000  0.4374270000000 1.0
C      1  0.5342730000000  0.5166090000000  0.4374280000000 1.0
C      1  0.5506570000000  0.5011800000000  0.5235660000000 1.0
C      1  0.4736480000000  0.5432810000000  0.5235630000000 1.0
C      1  0.4756920000000  0.4555380000000  0.5235630000000 1.0
C      1  0.5401940000000  0.4654740000000  0.5553500000000 1.0
C      1  0.5098000000000  0.5520730000000  0.5553500000000 1.0
C      1  0.4500000000000  0.4824520000000  0.5553470000000 1.0
C      1  0.4807530000000  0.5551020000000  0.5502450000000 1.0
C      1  0.4619000000000  0.4557810000000  0.5502430000000 1.0
C      1  0.5573410000000  0.4891150000000  0.5502470000000 1.0
C      1  0.4620940000000  0.4389210000000  0.5017800000000 1.0
C      1  0.5718490000000  0.4977120000000  0.5017840000000 1.0
C      1  0.4660570000000  0.5633670000000  0.5017810000000 1.0
C      1  0.4900690000000  0.5288330000000  0.4202750000000 1.0
C      1  0.4800000000000  0.4769820000000  0.4202740000000 1.0
C      1  0.5299390000000  0.4941880000000  0.4202760000000 1.0
C      1  0.4917810000000  0.4724230000000  0.5675340000000 1.0
C      1  0.5279880000000  0.5066720000000  0.5675350000000 1.0
C      1  0.4802240000000  0.5209030000000  0.5675340000000 1.0
C      1  0.4645780000000  0.4922870000000  0.4383490000000 1.0
C      1  0.5243950000000  0.4731790000000  0.4383510000000 1.0
C      1  0.5110340000000  0.5345360000000  0.4383510000000 1.0
C      1  0.4489620000000  0.5258560000000  0.5267840000000 1.0
C      1  0.5031260000000  0.4428720000000  0.5267850000000 1.0
C      1  0.5479090000000  0.5312710000000  0.5267870000000 1.0
C      1  0.4996690000000  0.5292490000000  0.5154460000000 1.0
C      1  0.4748340000000  0.4850890000000  0.5154450000000 1.0
C      1  0.5254950000000  0.4856610000000  0.5154460000000 1.0
C      1  0.5133680000000  0.4847010000000  0.4879340000000 1.0
C      1  0.5065660000000  0.5192270000000  0.4879350000000 1.0
C      1  0.4800670000000  0.4960730000000  0.4879330000000 1.0
C      1  0.5289500000000  0.4591160000000  0.5273740000000 1.0
C      1  0.5209300000000  0.5455140000000  0.5273740000000 1.0
C      1  0.4501170000000  0.4953700000000  0.5273710000000 1.0
C      1  0.4343580000000  0.5260460000000  0.5003330000000 1.0
C      1  0.5102640000000  0.4301290000000  0.5003340000000 1.0
C      1  0.5553780000000  0.5438250000000  0.5003370000000 1.0
C      1  0.4720930000000  0.4932710000000  0.5718080000000 1.0
C      1  0.5197760000000  0.4791980000000  0.5718100000000 1.0
C      1  0.5081230000000  0.5275290000000  0.5718100000000 1.0
C      1  0.4860330000000  0.4589630000000  0.4645810000000 1.0
C      1  0.5425250000000  0.5084220000000  0.4645830000000 1.0
C      1  0.4714460000000  0.5326160000000  0.4645810000000 1.0
C      1  0.5634670000000  0.5195840000000  0.4826660000000 1.0
C      1  0.4513070000000  0.5451710000000  0.4826630000000 1.0
C      1  0.4852280000000  0.4352450000000  0.4826630000000 1.0
END
