TITL C-8699-7882-246 1.94889883762006e-06 125000 -369.98692834053 0 0 60 (C1) n - 1
REM
REM in /home/bkarasulu/CARBON/AIRSS/Generating-Clusters/EDIP-Nigel-Params/Higher-Symm/Box-15A/Only-C60/SD-CG/HFTN-CG
REM
REM
REM
REM
REM
REM ./C.cell (414f73aa93bd7a1190c7fd0f31ff2f98)
REM
REM compiler GCC version 9.2.1 20190827 (Red Hat 9.2.1-1)
REM options -cpp -mtune=generic -march=x86-64 -g -O0 -fpre-include=/usr/include/finclude/math-vector-fortran.h
REM seed 1690381862 589694654 1353797471 -1084855302 1971564553 -1790999355 -906904366 509083146 -1193675381 1982816394 -1433528647 436347916 522682169 1071886290 -1471170805 -385883512 -1489913662 588191164 -436620238 43101611 -519582524 74333126 111422156 540983361 -1103450228 1709365625 1456870058 853944880 596806047 708960089 2100876143 108914156 -432646569
REM
CELL 1.54180   50.00000   50.00000   50.00000   90.00000   90.00000   90.00000
LATT -1
SFAC C  
C      1  0.5011050000000  0.4975930000000  0.4578520000000 1.0
C      1  0.4778640000000  0.5497820000000  0.4523540000000 1.0
C      1  0.5573780000000  0.4840670000000  0.4569550000000 1.0
C      1  0.5262870000000  0.4860270000000  0.5062160000000 1.0
C      1  0.4240160000000  0.5563890000000  0.5135010000000 1.0
C      1  0.4521500000000  0.5252840000000  0.4823660000000 1.0
C      1  0.5300120000000  0.4412210000000  0.5332700000000 1.0
C      1  0.4706960000000  0.5610340000000  0.5000840000000 1.0
C      1  0.5455840000000  0.5098190000000  0.4541490000000 1.0
C      1  0.4880720000000  0.4629850000000  0.5265430000000 1.0
C      1  0.5024580000000  0.4369790000000  0.5208970000000 1.0
C      1  0.4372140000000  0.4994860000000  0.4862600000000 1.0
C      1  0.4415390000000  0.5534680000000  0.5357640000000 1.0
C      1  0.5415340000000  0.5218450000000  0.5259450000000 1.0
C      1  0.4915270000000  0.5277980000000  0.5447880000000 1.0
C      1  0.4539920000000  0.4826840000000  0.4692840000000 1.0
C      1  0.5138130000000  0.5668000000000  0.5293090000000 1.0
C      1  0.5144800000000  0.5480300000000  0.4822800000000 1.0
C      1  0.4672560000000  0.4872990000000  0.5592320000000 1.0
C      1  0.5457370000000  0.4360770000000  0.4614680000000 1.0
C      1  0.4424540000000  0.4522840000000  0.5385810000000 1.0
C      1  0.5069480000000  0.4300390000000  0.4911150000000 1.0
C      1  0.5509290000000  0.5457130000000  0.5111540000000 1.0
C      1  0.4892140000000  0.5620260000000  0.4753820000000 1.0
C      1  0.4802400000000  0.5250370000000  0.4973020000000 1.0
C      1  0.5660990000000  0.5406120000000  0.4878250000000 1.0
C      1  0.4605920000000  0.5272810000000  0.4536360000000 1.0
C      1  0.5566340000000  0.4964440000000  0.5165160000000 1.0
C      1  0.4288620000000  0.4609780000000  0.5157120000000 1.0
C      1  0.5729960000000  0.4533570000000  0.5102530000000 1.0
C      1  0.5093050000000  0.4682380000000  0.4572700000000 1.0
C      1  0.4335820000000  0.4470220000000  0.4918560000000 1.0
C      1  0.5636620000000  0.4872700000000  0.5428120000000 1.0
C      1  0.4238040000000  0.5073770000000  0.5340390000000 1.0
C      1  0.5311970000000  0.5515580000000  0.4571880000000 1.0
C      1  0.4414150000000  0.5534690000000  0.4914950000000 1.0
C      1  0.5278620000000  0.5621120000000  0.5057230000000 1.0
C      1  0.5563460000000  0.5362960000000  0.4617470000000 1.0
C      1  0.5158610000000  0.5124160000000  0.5403360000000 1.0
C      1  0.4484710000000  0.4544890000000  0.4694840000000 1.0
C      1  0.5173960000000  0.5402350000000  0.4347180000000 1.0
C      1  0.5063960000000  0.5102630000000  0.4872180000000 1.0
C      1  0.4679110000000  0.5679670000000  0.5306760000000 1.0
C      1  0.4425770000000  0.5254660000000  0.5448090000000 1.0
C      1  0.5204450000000  0.5123750000000  0.4396240000000 1.0
C      1  0.4920430000000  0.5568370000000  0.5433630000000 1.0
C      1  0.5117270000000  0.4819660000000  0.5337600000000 1.0
C      1  0.5797820000000  0.4821880000000  0.4732210000000 1.0
C      1  0.4685680000000  0.4379980000000  0.4599600000000 1.0
C      1  0.5772050000000  0.4795240000000  0.5007950000000 1.0
C      1  0.4298870000000  0.4898850000000  0.5126930000000 1.0
C      1  0.4675430000000  0.5147430000000  0.5546880000000 1.0
C      1  0.4711220000000  0.4992250000000  0.4505810000000 1.0
C      1  0.4672530000000  0.4627110000000  0.5465230000000 1.0
C      1  0.5439060000000  0.4514850000000  0.5084370000000 1.0
C      1  0.5379890000000  0.4625740000000  0.4565270000000 1.0
C      1  0.4923320000000  0.4481410000000  0.4716560000000 1.0
C      1  0.5523820000000  0.4727420000000  0.5625160000000 1.0
C      1  0.5278480000000  0.4635810000000  0.5525090000000 1.0
C      1  0.5365040000000  0.4314100000000  0.4877800000000 1.0
END
