TITL C-8697-8172-179 -3.71939111722414e-06 125000 -362.819245768797 0 0 60 (C1) n - 1
REM
REM in /home/bkarasulu/CARBON/AIRSS/Generating-Clusters/EDIP-Nigel-Params/Higher-Symm/Box-15A/Only-C60/SD-CG/HFTN-CG
REM
REM
REM
REM
REM
REM ./C.cell (414f73aa93bd7a1190c7fd0f31ff2f98)
REM
REM compiler GCC version 9.2.1 20190827 (Red Hat 9.2.1-1)
REM options -cpp -mtune=generic -march=x86-64 -g -O0 -fpre-include=/usr/include/finclude/math-vector-fortran.h
REM seed 304353329 -489234754 1000483390 -61451069 245353248 -1144103236 1522462997 -1058647525 1392563176 -696342357 771575226 -639857798 709832604 344695116 1311442847 -1416082439 1013111556 2125349879 -2114574342 -1887914666 92309093 1816229383 -797209716 -1922053571 773902844 -1584528265 -675297182 776492266 -1336397259 328366849 1726097529 615632858 1733653635
REM
CELL 1.54180   50.00000   50.00000   50.00000   90.00000   90.00000   90.00000
LATT -1
SFAC C  
C      1  0.5287700000000  0.4594080000000  0.5382070000000 1.0
C      1  0.5379930000000  0.5448000000000  0.4949440000000 1.0
C      1  0.4777060000000  0.4859710000000  0.4933650000000 1.0
C      1  0.5518330000000  0.5046180000000  0.5623960000000 1.0
C      1  0.4957120000000  0.4270780000000  0.5124770000000 1.0
C      1  0.4558460000000  0.4441540000000  0.4938020000000 1.0
C      1  0.5290430000000  0.4913050000000  0.4947050000000 1.0
C      1  0.5485930000000  0.4875930000000  0.4428130000000 1.0
C      1  0.4771580000000  0.5460020000000  0.5582080000000 1.0
C      1  0.5254650000000  0.5116890000000  0.5571080000000 1.0
C      1  0.5086250000000  0.5671950000000  0.4607350000000 1.0
C      1  0.5663910000000  0.5346180000000  0.4953330000000 1.0
C      1  0.4467420000000  0.5022210000000  0.4603760000000 1.0
C      1  0.5005590000000  0.4647980000000  0.4963720000000 1.0
C      1  0.4819740000000  0.4993840000000  0.5230360000000 1.0
C      1  0.5589320000000  0.4830810000000  0.4905370000000 1.0
C      1  0.4541460000000  0.5490530000000  0.5424430000000 1.0
C      1  0.4690700000000  0.4355380000000  0.4706430000000 1.0
C      1  0.4840820000000  0.4980240000000  0.5764240000000 1.0
C      1  0.5134180000000  0.4654440000000  0.5599440000000 1.0
C      1  0.5340190000000  0.5122480000000  0.4393130000000 1.0
C      1  0.4660530000000  0.5553290000000  0.4852210000000 1.0
C      1  0.5683970000000  0.4936080000000  0.4643400000000 1.0
C      1  0.5334470000000  0.4637480000000  0.4447300000000 1.0
C      1  0.4522970000000  0.5028870000000  0.5319430000000 1.0
C      1  0.5029380000000  0.4924210000000  0.5546810000000 1.0
C      1  0.5200710000000  0.5207600000000  0.4994730000000 1.0
C      1  0.5770970000000  0.4890430000000  0.5113870000000 1.0
C      1  0.4710650000000  0.4397060000000  0.5179240000000 1.0
C      1  0.4317750000000  0.4593080000000  0.5363630000000 1.0
C      1  0.4843230000000  0.5533980000000  0.4632000000000 1.0
C      1  0.5596100000000  0.5227960000000  0.5430490000000 1.0
C      1  0.4843800000000  0.5287110000000  0.4481100000000 1.0
C      1  0.4954100000000  0.5330660000000  0.4222690000000 1.0
C      1  0.4603080000000  0.5302820000000  0.4981050000000 1.0
C      1  0.5144620000000  0.5679050000000  0.5347900000000 1.0
C      1  0.4765000000000  0.5001700000000  0.4593500000000 1.0
C      1  0.5066190000000  0.4600840000000  0.4530280000000 1.0
C      1  0.4963990000000  0.4350450000000  0.4643550000000 1.0
C      1  0.4995250000000  0.4883060000000  0.4170400000000 1.0
C      1  0.4358200000000  0.4815100000000  0.5195220000000 1.0
C      1  0.4421350000000  0.5261040000000  0.4755110000000 1.0
C      1  0.5482350000000  0.5361360000000  0.4495100000000 1.0
C      1  0.5339330000000  0.5561820000000  0.4672070000000 1.0
C      1  0.4751390000000  0.5243780000000  0.5761540000000 1.0
C      1  0.4661370000000  0.4529040000000  0.5670350000000 1.0
C      1  0.4450000000000  0.5304610000000  0.5238110000000 1.0
C      1  0.5099520000000  0.4275500000000  0.4883990000000 1.0
C      1  0.5325030000000  0.5641870000000  0.5153180000000 1.0
C      1  0.5007240000000  0.5439770000000  0.5399920000000 1.0
C      1  0.5184730000000  0.4749350000000  0.5171440000000 1.0
C      1  0.4871820000000  0.4780790000000  0.4403570000000 1.0
C      1  0.5715390000000  0.5157920000000  0.5177870000000 1.0
C      1  0.4494530000000  0.4729980000000  0.4939210000000 1.0
C      1  0.4337570000000  0.4798280000000  0.4705030000000 1.0
C      1  0.4682730000000  0.4757370000000  0.5813670000000 1.0
C      1  0.5704180000000  0.5242720000000  0.4668170000000 1.0
C      1  0.5135300000000  0.5124310000000  0.4190030000000 1.0
C      1  0.4556160000000  0.4457690000000  0.5422400000000 1.0
C      1  0.4954300000000  0.5259730000000  0.5158660000000 1.0
END
