TITL C-8691-6797-25 -3.60416872121908e-07 125000 -368.460042406806 0 0 60 (C1) n - 1
REM
REM in /home/bkarasulu/CARBON/AIRSS/Generating-Clusters/EDIP-Nigel-Params/Higher-Symm/Box-15A/Only-C60/SD-CG/HFTN-CG
REM
REM
REM
REM
REM
REM ./C.cell (414f73aa93bd7a1190c7fd0f31ff2f98)
REM
REM compiler GCC version 9.2.1 20190827 (Red Hat 9.2.1-1)
REM options -cpp -mtune=generic -march=x86-64 -g -O0 -fpre-include=/usr/include/finclude/math-vector-fortran.h
REM seed -1641702175 -950035737 1230476303 990072453 1066080567 -1110763036 -949909319 1002606238 -1554904021 -863958346 -1907627486 1454443210 1005003890 -1923576184 962214260 -686100127 -1831243315 -2040911696 1906724548 -497569908 -364557875 -331128745 1618956238 -432407618 -282546276 310683783 -472655849 1886977730 1688612405 -110933501 1906346505 -78322842 -523302117
REM
CELL 1.54180   50.00000   50.00000   50.00000   90.00000   90.00000   90.00000
LATT -1
SFAC C  
C      1  0.4712050000000  0.4419790000000  0.5206890000000 1.0
C      1  0.5141630000000  0.5346880000000  0.5552050000000 1.0
C      1  0.5066000000000  0.4886040000000  0.5468800000000 1.0
C      1  0.4839080000000  0.4761280000000  0.4512800000000 1.0
C      1  0.4917240000000  0.4286120000000  0.4549430000000 1.0
C      1  0.5666650000000  0.4951490000000  0.4676540000000 1.0
C      1  0.5749230000000  0.4722650000000  0.5068160000000 1.0
C      1  0.4529430000000  0.5122810000000  0.5439340000000 1.0
C      1  0.5111450000000  0.5053060000000  0.4779180000000 1.0
C      1  0.5442930000000  0.4535050000000  0.5399940000000 1.0
C      1  0.5155280000000  0.4332420000000  0.4690240000000 1.0
C      1  0.4689040000000  0.4920840000000  0.4324980000000 1.0
C      1  0.5604630000000  0.5449460000000  0.5009870000000 1.0
C      1  0.5059210000000  0.4757750000000  0.5183250000000 1.0
C      1  0.4412300000000  0.5212830000000  0.4924480000000 1.0
C      1  0.4798500000000  0.5644780000000  0.5405390000000 1.0
C      1  0.5469440000000  0.4729110000000  0.4823360000000 1.0
C      1  0.5586840000000  0.4757650000000  0.5306800000000 1.0
C      1  0.5024760000000  0.4451820000000  0.5191680000000 1.0
C      1  0.5132970000000  0.4321460000000  0.4963810000000 1.0
C      1  0.4579930000000  0.4697150000000  0.5676300000000 1.0
C      1  0.5415700000000  0.5567580000000  0.4844010000000 1.0
C      1  0.4590280000000  0.4302550000000  0.4978860000000 1.0
C      1  0.4803270000000  0.4664560000000  0.5833110000000 1.0
C      1  0.5096840000000  0.5880990000000  0.5099880000000 1.0
C      1  0.5205430000000  0.4382370000000  0.5419710000000 1.0
C      1  0.5800950000000  0.4991320000000  0.4944250000000 1.0
C      1  0.4909240000000  0.5565830000000  0.4534570000000 1.0
C      1  0.5258130000000  0.5105620000000  0.5469510000000 1.0
C      1  0.5267910000000  0.4896720000000  0.4992220000000 1.0
C      1  0.4316220000000  0.4963860000000  0.4835760000000 1.0
C      1  0.5659010000000  0.5196130000000  0.5117520000000 1.0
C      1  0.5225640000000  0.5022560000000  0.4493110000000 1.0
C      1  0.5439760000000  0.5017670000000  0.5231930000000 1.0
C      1  0.4847640000000  0.4926200000000  0.4776800000000 1.0
C      1  0.4513690000000  0.4462710000000  0.4755190000000 1.0
C      1  0.4721130000000  0.4486250000000  0.4549840000000 1.0
C      1  0.5140400000000  0.4741740000000  0.4428390000000 1.0
C      1  0.4362450000000  0.4699230000000  0.4796420000000 1.0
C      1  0.4910330000000  0.5730610000000  0.4793020000000 1.0
C      1  0.5063990000000  0.4713800000000  0.5716040000000 1.0
C      1  0.4579730000000  0.4697390000000  0.5178630000000 1.0
C      1  0.4663090000000  0.5404040000000  0.4505400000000 1.0
C      1  0.4974740000000  0.5854560000000  0.5344200000000 1.0
C      1  0.5392610000000  0.5418390000000  0.4598540000000 1.0
C      1  0.4504460000000  0.5437510000000  0.4750090000000 1.0
C      1  0.4675480000000  0.5253450000000  0.5641660000000 1.0
C      1  0.5064290000000  0.4430700000000  0.5661270000000 1.0
C      1  0.4643850000000  0.5640060000000  0.4919090000000 1.0
C      1  0.5159420000000  0.5648380000000  0.4952790000000 1.0
C      1  0.4627970000000  0.5183620000000  0.4334950000000 1.0
C      1  0.4881540000000  0.5444960000000  0.5604850000000 1.0
C      1  0.4496510000000  0.4827280000000  0.5442430000000 1.0
C      1  0.4644490000000  0.5527690000000  0.5186890000000 1.0
C      1  0.5109870000000  0.5205900000000  0.4288740000000 1.0
C      1  0.5156100000000  0.5451310000000  0.4423520000000 1.0
C      1  0.5572250000000  0.5192570000000  0.4538880000000 1.0
C      1  0.5307370000000  0.4567760000000  0.4603330000000 1.0
C      1  0.4810120000000  0.4856380000000  0.5065190000000 1.0
C      1  0.4499510000000  0.5279290000000  0.5196110000000 1.0
END
