TITL C-8697-8172-143 -8.01780858314596e-05 125000 -359.46959731868 0 0 60 (C1) n - 1
REM
REM in /home/bkarasulu/CARBON/AIRSS/Generating-Clusters/EDIP-Nigel-Params/Higher-Symm/Box-15A/Only-C60/SD-CG/HFTN-CG
REM
REM
REM
REM
REM
REM ./C.cell (414f73aa93bd7a1190c7fd0f31ff2f98)
REM
REM compiler GCC version 9.2.1 20190827 (Red Hat 9.2.1-1)
REM options -cpp -mtune=generic -march=x86-64 -g -O0 -fpre-include=/usr/include/finclude/math-vector-fortran.h
REM seed 1906017147 -1466361401 218103156 885181738 -1635316953 -165364077 1491637197 -1437079429 -341737044 926903092 -1028496920 264370027 -601316679 929668579 893385870 862487530 -740319115 1537615475 1697273409 -2063924854 1642861017 -231467110 1807866574 1729175723 -876061336 -206237434 -373588117 -831519277 -1058021386 -1363232680 -458772992 1971528184 237255313
REM
CELL 1.54180   50.00000   50.00000   50.00000   90.00000   90.00000   90.00000
LATT -1
SFAC C  
C      1  0.5692280000000  0.5140040000000  0.5083410000000 1.0
C      1  0.4322530000000  0.5138670000000  0.5096270000000 1.0
C      1  0.5300390000000  0.5073260000000  0.5701270000000 1.0
C      1  0.4746370000000  0.5045450000000  0.5700050000000 1.0
C      1  0.5272610000000  0.5102920000000  0.4856150000000 1.0
C      1  0.4729710000000  0.5098790000000  0.4856750000000 1.0
C      1  0.5160830000000  0.5531860000000  0.5461650000000 1.0
C      1  0.4843890000000  0.5525820000000  0.5461300000000 1.0
C      1  0.4738790000000  0.5410830000000  0.5196830000000 1.0
C      1  0.5268020000000  0.5414400000000  0.5197450000000 1.0
C      1  0.4724720000000  0.5398110000000  0.4738010000000 1.0
C      1  0.5280710000000  0.5400670000000  0.4738660000000 1.0
C      1  0.4726990000000  0.4633990000000  0.4631960000000 1.0
C      1  0.5259660000000  0.4656490000000  0.4615130000000 1.0
C      1  0.4461390000000  0.4981290000000  0.4881470000000 1.0
C      1  0.5542010000000  0.4982700000000  0.4875650000000 1.0
C      1  0.4616820000000  0.4630310000000  0.5442330000000 1.0
C      1  0.5352210000000  0.4672300000000  0.5406430000000 1.0
C      1  0.5070630000000  0.4808250000000  0.5857210000000 1.0
C      1  0.4833010000000  0.4827670000000  0.6009510000000 1.0
C      1  0.4852160000000  0.5128230000000  0.5141370000000 1.0
C      1  0.5154220000000  0.5132120000000  0.5140420000000 1.0
C      1  0.5633730000000  0.4868360000000  0.4631340000000 1.0
C      1  0.4370230000000  0.4867260000000  0.4636530000000 1.0
C      1  0.5415780000000  0.4953280000000  0.5447690000000 1.0
C      1  0.4618180000000  0.4922540000000  0.5453560000000 1.0
C      1  0.5151570000000  0.4432850000000  0.4797500000000 1.0
C      1  0.4857260000000  0.4433560000000  0.4823900000000 1.0
C      1  0.5472690000000  0.4525540000000  0.5186860000000 1.0
C      1  0.4535010000000  0.4487840000000  0.5201960000000 1.0
C      1  0.4852110000000  0.5333280000000  0.5705740000000 1.0
C      1  0.5160510000000  0.5345800000000  0.5709590000000 1.0
C      1  0.5562340000000  0.4854080000000  0.4356590000000 1.0
C      1  0.4452630000000  0.4860310000000  0.4364000000000 1.0
C      1  0.5421590000000  0.4612340000000  0.4270830000000 1.0
C      1  0.4578800000000  0.4618140000000  0.4269200000000 1.0
C      1  0.5664230000000  0.5038180000000  0.5345340000000 1.0
C      1  0.4384870000000  0.5042270000000  0.5353080000000 1.0
C      1  0.4870130000000  0.4461260000000  0.5399190000000 1.0
C      1  0.5096170000000  0.4603780000000  0.5263940000000 1.0
C      1  0.5309980000000  0.4915160000000  0.5946680000000 1.0
C      1  0.4607230000000  0.4973990000000  0.5945470000000 1.0
C      1  0.4857440000000  0.5438220000000  0.4464350000000 1.0
C      1  0.5151940000000  0.5438250000000  0.4464300000000 1.0
C      1  0.5571620000000  0.5413630000000  0.5075100000000 1.0
C      1  0.4437920000000  0.5413220000000  0.5077910000000 1.0
C      1  0.5133420000000  0.4906240000000  0.4697900000000 1.0
C      1  0.4857130000000  0.4898810000000  0.4693400000000 1.0
C      1  0.5193990000000  0.5237270000000  0.4257450000000 1.0
C      1  0.4815130000000  0.5239960000000  0.4256020000000 1.0
C      1  0.5127260000000  0.4619810000000  0.4322870000000 1.0
C      1  0.4842650000000  0.4532340000000  0.4358800000000 1.0
C      1  0.4583820000000  0.5087950000000  0.4266300000000 1.0
C      1  0.5423840000000  0.5080730000000  0.4263010000000 1.0
C      1  0.4731150000000  0.4334390000000  0.5064450000000 1.0
C      1  0.5297840000000  0.4361970000000  0.5034440000000 1.0
C      1  0.4857390000000  0.5564390000000  0.4958390000000 1.0
C      1  0.5147420000000  0.5566760000000  0.4958190000000 1.0
C      1  0.4449270000000  0.5489320000000  0.4795080000000 1.0
C      1  0.5555750000000  0.5492730000000  0.4793780000000 1.0
END
