TITL C-8697-8172-236 -1.1916969651922e-06 125000 -362.371255331778 0 0 60 (C1) n - 1
REM
REM in /home/bkarasulu/CARBON/AIRSS/Generating-Clusters/EDIP-Nigel-Params/Higher-Symm/Box-15A/Only-C60/SD-CG/HFTN-CG
REM
REM
REM
REM
REM
REM ./C.cell (414f73aa93bd7a1190c7fd0f31ff2f98)
REM
REM compiler GCC version 9.2.1 20190827 (Red Hat 9.2.1-1)
REM options -cpp -mtune=generic -march=x86-64 -g -O0 -fpre-include=/usr/include/finclude/math-vector-fortran.h
REM seed 817176998 -527507423 1210266179 -1726813203 -1590109943 -421956353 1876384100 -604275073 -563130758 1514991182 1792119700 -1088572750 -573611090 1821403180 -1724168634 1652849090 -357736575 1692276463 -2089932800 -858455331 -546828174 1338496242 1967465878 -1177927577 725544183 -992263036 252795803 -802364050 32096778 1916624838 -1565513029 -1322805932 1967772631
REM
CELL 1.54180   50.00000   50.00000   50.00000   90.00000   90.00000   90.00000
LATT -1
SFAC C  
C      1  0.5426210000000  0.4683740000000  0.4350100000000 1.0
C      1  0.5429590000000  0.5262660000000  0.5680120000000 1.0
C      1  0.4607550000000  0.4800810000000  0.4308130000000 1.0
C      1  0.4556610000000  0.5262160000000  0.5665060000000 1.0
C      1  0.5484570000000  0.4434370000000  0.4862500000000 1.0
C      1  0.5434960000000  0.5527800000000  0.5152360000000 1.0
C      1  0.4574080000000  0.4488380000000  0.4819720000000 1.0
C      1  0.4516710000000  0.5542000000000  0.5170980000000 1.0
C      1  0.4895950000000  0.4860570000000  0.5868490000000 1.0
C      1  0.4857350000000  0.5199050000000  0.4126410000000 1.0
C      1  0.5158700000000  0.4840030000000  0.5926780000000 1.0
C      1  0.5111210000000  0.5106330000000  0.4101940000000 1.0
C      1  0.5293770000000  0.4344310000000  0.4664760000000 1.0
C      1  0.5288210000000  0.5613200000000  0.5383140000000 1.0
C      1  0.4690790000000  0.4416190000000  0.4571100000000 1.0
C      1  0.4688840000000  0.5628560000000  0.5385800000000 1.0
C      1  0.5440200000000  0.4940680000000  0.4449530000000 1.0
C      1  0.5464580000000  0.5015160000000  0.5562210000000 1.0
C      1  0.4557880000000  0.5024810000000  0.4462900000000 1.0
C      1  0.4549280000000  0.5012900000000  0.5543980000000 1.0
C      1  0.4726540000000  0.5405050000000  0.4808660000000 1.0
C      1  0.4863860000000  0.4681530000000  0.5117100000000 1.0
C      1  0.5262440000000  0.5299680000000  0.4820470000000 1.0
C      1  0.5329960000000  0.4626990000000  0.5224570000000 1.0
C      1  0.4731290000000  0.4559480000000  0.4336920000000 1.0
C      1  0.4697580000000  0.5494570000000  0.5631370000000 1.0
C      1  0.5282590000000  0.4460230000000  0.4410750000000 1.0
C      1  0.5287600000000  0.5490590000000  0.5633330000000 1.0
C      1  0.5123570000000  0.5127030000000  0.5042580000000 1.0
C      1  0.5151060000000  0.4775000000000  0.5012190000000 1.0
C      1  0.4813570000000  0.5180210000000  0.5009780000000 1.0
C      1  0.4729980000000  0.4889840000000  0.4923900000000 1.0
C      1  0.5170040000000  0.4698850000000  0.4694750000000 1.0
C      1  0.5157590000000  0.5252840000000  0.5356860000000 1.0
C      1  0.4864910000000  0.4760900000000  0.4634910000000 1.0
C      1  0.4831320000000  0.5278840000000  0.5341380000000 1.0
C      1  0.4370790000000  0.4726620000000  0.4853240000000 1.0
C      1  0.4395510000000  0.5271300000000  0.5135940000000 1.0
C      1  0.5599940000000  0.4716220000000  0.4882350000000 1.0
C      1  0.5584390000000  0.5265970000000  0.5125570000000 1.0
C      1  0.5228620000000  0.5116860000000  0.4356350000000 1.0
C      1  0.5297360000000  0.4802880000000  0.5681980000000 1.0
C      1  0.4689260000000  0.5264050000000  0.4343740000000 1.0
C      1  0.4774160000000  0.4848270000000  0.5618150000000 1.0
C      1  0.5629260000000  0.5201900000000  0.4839440000000 1.0
C      1  0.5666970000000  0.4793780000000  0.5159860000000 1.0
C      1  0.4329420000000  0.5213170000000  0.4866310000000 1.0
C      1  0.4375970000000  0.4798810000000  0.5132340000000 1.0
C      1  0.4587260000000  0.5636140000000  0.4911260000000 1.0
C      1  0.4747590000000  0.4429330000000  0.5034540000000 1.0
C      1  0.5304410000000  0.5579690000000  0.4905580000000 1.0
C      1  0.5409300000000  0.4359680000000  0.5127140000000 1.0
C      1  0.5528460000000  0.5019490000000  0.5276810000000 1.0
C      1  0.5523180000000  0.4955530000000  0.4729800000000 1.0
C      1  0.4479730000000  0.5025280000000  0.5263580000000 1.0
C      1  0.4371500000000  0.4994110000000  0.4691320000000 1.0
C      1  0.4854570000000  0.5408700000000  0.4544840000000 1.0
C      1  0.4899680000000  0.4681330000000  0.5420470000000 1.0
C      1  0.5121710000000  0.5285720000000  0.4561210000000 1.0
C      1  0.5180080000000  0.4619810000000  0.5482680000000 1.0
END
