TITL C-8691-6797-57 4.96396727748422e-05 125000 -360.216779943779 0 0 60 (C1) n - 1
REM
REM in /home/bkarasulu/CARBON/AIRSS/Generating-Clusters/EDIP-Nigel-Params/Higher-Symm/Box-15A/Only-C60/SD-CG/HFTN-CG
REM
REM
REM
REM
REM
REM ./C.cell (414f73aa93bd7a1190c7fd0f31ff2f98)
REM
REM compiler GCC version 9.2.1 20190827 (Red Hat 9.2.1-1)
REM options -cpp -mtune=generic -march=x86-64 -g -O0 -fpre-include=/usr/include/finclude/math-vector-fortran.h
REM seed -459152061 1112473817 263736591 -843049617 -329004422 -1688892365 -1149667141 -1473474696 -66665737 -718766974 57214173 -186263668 1582734853 935905625 -1948709120 -543760717 -1120726475 87422023 -693619875 451383404 1950036889 -1856482257 192160585 -1338392409 -235518759 -1557926636 -585639229 317154895 -696411862 -1995011603 -873237122 -899273643 -1249411134
REM
CELL 1.54180   50.00000   50.00000   50.00000   90.00000   90.00000   90.00000
LATT -1
SFAC C  
C      1  0.4332630000000  0.4739430000000  0.4998560000000 1.0
C      1  0.5639860000000  0.4803430000000  0.4861420000000 1.0
C      1  0.4300380000000  0.4734350000000  0.4721520000000 1.0
C      1  0.5793850000000  0.4790770000000  0.4625270000000 1.0
C      1  0.4352070000000  0.5000820000000  0.5127250000000 1.0
C      1  0.5602190000000  0.5073380000000  0.4953050000000 1.0
C      1  0.4422130000000  0.4710930000000  0.5574440000000 1.0
C      1  0.5544370000000  0.4839740000000  0.5430730000000 1.0
C      1  0.5442990000000  0.4355530000000  0.4869060000000 1.0
C      1  0.4591270000000  0.4334600000000  0.4944010000000 1.0
C      1  0.5451660000000  0.4613650000000  0.5293900000000 1.0
C      1  0.4595060000000  0.4583980000000  0.5384320000000 1.0
C      1  0.5294060000000  0.5449340000000  0.5015110000000 1.0
C      1  0.4714080000000  0.5595060000000  0.4987220000000 1.0
C      1  0.5356740000000  0.5040580000000  0.5369220000000 1.0
C      1  0.4420980000000  0.4979130000000  0.5642010000000 1.0
C      1  0.5911340000000  0.4964980000000  0.4452660000000 1.0
C      1  0.4279260000000  0.4940740000000  0.4547570000000 1.0
C      1  0.4818830000000  0.4422000000000  0.5491470000000 1.0
C      1  0.5260530000000  0.4444870000000  0.5438720000000 1.0
C      1  0.4754930000000  0.4298180000000  0.4730630000000 1.0
C      1  0.5229440000000  0.4308290000000  0.4710950000000 1.0
C      1  0.5380930000000  0.5163310000000  0.5107050000000 1.0
C      1  0.4284080000000  0.5024330000000  0.5405570000000 1.0
C      1  0.4302420000000  0.5173270000000  0.4684060000000 1.0
C      1  0.5804170000000  0.5197150000000  0.4544440000000 1.0
C      1  0.5642620000000  0.5275010000000  0.4760830000000 1.0
C      1  0.4324600000000  0.5233010000000  0.4954520000000 1.0
C      1  0.5202000000000  0.5525600000000  0.5494340000000 1.0
C      1  0.4753260000000  0.5626930000000  0.5458680000000 1.0
C      1  0.5280120000000  0.5639340000000  0.5249060000000 1.0
C      1  0.4804320000000  0.5758850000000  0.5211510000000 1.0
C      1  0.4476390000000  0.4519880000000  0.5122170000000 1.0
C      1  0.5538020000000  0.4573970000000  0.5013870000000 1.0
C      1  0.4469550000000  0.5460700000000  0.5018280000000 1.0
C      1  0.5509230000000  0.5518070000000  0.4820750000000 1.0
C      1  0.4977790000000  0.4590100000000  0.5101270000000 1.0
C      1  0.4956360000000  0.5169890000000  0.4984030000000 1.0
C      1  0.5081010000000  0.5677770000000  0.4697260000000 1.0
C      1  0.5078310000000  0.4987350000000  0.5437580000000 1.0
C      1  0.4937250000000  0.5406890000000  0.5502510000000 1.0
C      1  0.4986550000000  0.4453820000000  0.4655430000000 1.0
C      1  0.4943990000000  0.4768420000000  0.5831360000000 1.0
C      1  0.5013520000000  0.5015320000000  0.5719790000000 1.0
C      1  0.5090950000000  0.5845250000000  0.5148680000000 1.0
C      1  0.5136180000000  0.5893160000000  0.4869090000000 1.0
C      1  0.5238400000000  0.5445430000000  0.4262340000000 1.0
C      1  0.5002400000000  0.5001200000000  0.4277500000000 1.0
C      1  0.4900780000000  0.5038010000000  0.4529780000000 1.0
C      1  0.5162330000000  0.5203440000000  0.4179780000000 1.0
C      1  0.5214720000000  0.5621490000000  0.4461180000000 1.0
C      1  0.5035530000000  0.4735990000000  0.4207850000000 1.0
C      1  0.4981170000000  0.4538190000000  0.4381390000000 1.0
C      1  0.4957610000000  0.5455580000000  0.4865700000000 1.0
C      1  0.4997430000000  0.4525170000000  0.5705030000000 1.0
C      1  0.4888240000000  0.5268670000000  0.5758850000000 1.0
C      1  0.4987640000000  0.4686730000000  0.4842950000000 1.0
C      1  0.4909120000000  0.5174880000000  0.5282550000000 1.0
C      1  0.5023050000000  0.4385150000000  0.5286770000000 1.0
C      1  0.4905510000000  0.4957060000000  0.4792330000000 1.0
END
