TITL C-8692-4986-119 -1.32413853245985e-06 125000 -362.233481800901 0 0 60 (C1) n - 1
REM
REM in /home/bkarasulu/CARBON/AIRSS/Generating-Clusters/EDIP-Nigel-Params/Higher-Symm/Box-15A/Only-C60/SD-CG/HFTN-CG
REM
REM
REM
REM
REM
REM ./C.cell (414f73aa93bd7a1190c7fd0f31ff2f98)
REM
REM compiler GCC version 9.2.1 20190827 (Red Hat 9.2.1-1)
REM options -cpp -mtune=generic -march=x86-64 -g -O0 -fpre-include=/usr/include/finclude/math-vector-fortran.h
REM seed -1191015004 570776201 964431932 360730458 46491383 1044129209 -435624687 -580280642 -698706393 1542447184 -711459239 983013240 -848813910 -816018869 859968667 -1760153406 719054684 -604483991 -1179457832 -628355399 -341470329 355011145 932730389 1603377513 -671183249 759594273 -1379138236 -181193205 -1502679501 -1449149006 930514219 -761537936 -2117804536
REM
CELL 1.54180   50.00000   50.00000   50.00000   90.00000   90.00000   90.00000
LATT -1
SFAC C  
C      1  0.4779180000000  0.5563370000000  0.5460740000000 1.0
C      1  0.5389030000000  0.5594990000000  0.5362970000000 1.0
C      1  0.5465840000000  0.5556710000000  0.4737500000000 1.0
C      1  0.4924570000000  0.5585390000000  0.4479390000000 1.0
C      1  0.4500870000000  0.5560420000000  0.4920040000000 1.0
C      1  0.4739420000000  0.5109410000000  0.5123190000000 1.0
C      1  0.5004110000000  0.5178290000000  0.5283470000000 1.0
C      1  0.5245190000000  0.5145330000000  0.5083190000000 1.0
C      1  0.5121090000000  0.5224510000000  0.4811530000000 1.0
C      1  0.4825100000000  0.5135640000000  0.4810620000000 1.0
C      1  0.5540860000000  0.5307600000000  0.4629400000000 1.0
C      1  0.4822110000000  0.5343230000000  0.4377620000000 1.0
C      1  0.4342930000000  0.5332920000000  0.4973470000000 1.0
C      1  0.4769230000000  0.5337390000000  0.5628400000000 1.0
C      1  0.5526300000000  0.5352710000000  0.5404950000000 1.0
C      1  0.4888220000000  0.4418310000000  0.4485700000000 1.0
C      1  0.4474350000000  0.4418620000000  0.4936510000000 1.0
C      1  0.4778410000000  0.4432010000000  0.5469690000000 1.0
C      1  0.5370320000000  0.4445430000000  0.5347540000000 1.0
C      1  0.5443230000000  0.4432120000000  0.4739540000000 1.0
C      1  0.4552460000000  0.5151180000000  0.5570080000000 1.0
C      1  0.5404910000000  0.5167450000000  0.5595280000000 1.0
C      1  0.5696180000000  0.5146040000000  0.4811190000000 1.0
C      1  0.5016430000000  0.5148840000000  0.4286230000000 1.0
C      1  0.4319830000000  0.5143020000000  0.4752800000000 1.0
C      1  0.4409180000000  0.4863920000000  0.4755490000000 1.0
C      1  0.4588530000000  0.4875950000000  0.5474550000000 1.0
C      1  0.5328350000000  0.4888070000000  0.5535350000000 1.0
C      1  0.5643080000000  0.4861160000000  0.4852520000000 1.0
C      1  0.5044650000000  0.4864230000000  0.4350650000000 1.0
C      1  0.5235930000000  0.5642790000000  0.4876630000000 1.0
C      1  0.4972820000000  0.5633740000000  0.4752240000000 1.0
C      1  0.4769700000000  0.5626900000000  0.4959990000000 1.0
C      1  0.4905440000000  0.5606690000000  0.5214500000000 1.0
C      1  0.5190820000000  0.5634510000000  0.5167510000000 1.0
C      1  0.4813630000000  0.4671170000000  0.4387210000000 1.0
C      1  0.4355780000000  0.4671490000000  0.4981620000000 1.0
C      1  0.4785750000000  0.4684690000000  0.5596330000000 1.0
C      1  0.5501130000000  0.4690920000000  0.5385260000000 1.0
C      1  0.5538090000000  0.4675990000000  0.4638660000000 1.0
C      1  0.4888770000000  0.4374770000000  0.5218620000000 1.0
C      1  0.5171050000000  0.4385770000000  0.5161510000000 1.0
C      1  0.5202690000000  0.4398010000000  0.4874920000000 1.0
C      1  0.4943920000000  0.4360620000000  0.4753030000000 1.0
C      1  0.4745330000000  0.4353600000000  0.4966100000000 1.0
C      1  0.5152710000000  0.4828880000000  0.4774010000000 1.0
C      1  0.4845790000000  0.4834730000000  0.4788660000000 1.0
C      1  0.4764130000000  0.4775880000000  0.5086260000000 1.0
C      1  0.5025220000000  0.4791790000000  0.5250170000000 1.0
C      1  0.5258480000000  0.4852960000000  0.5060020000000 1.0
C      1  0.5022800000000  0.5208950000000  0.5580550000000 1.0
C      1  0.5523870000000  0.5234390000000  0.5142440000000 1.0
C      1  0.5287850000000  0.5162310000000  0.4564910000000 1.0
C      1  0.4654820000000  0.5231440000000  0.4584290000000 1.0
C      1  0.4463790000000  0.5200890000000  0.5199120000000 1.0
C      1  0.5342770000000  0.4796750000000  0.4434150000000 1.0
C      1  0.4568360000000  0.4770040000000  0.4522160000000 1.0
C      1  0.4413920000000  0.4766360000000  0.5258950000000 1.0
C      1  0.5068100000000  0.4775130000000  0.5635720000000 1.0
C      1  0.5632620000000  0.4773600000000  0.5134870000000 1.0
END
