TITL C-8692-4986-220 -1.79111827992771e-06 125000 -361.281926947704 0 0 60 (C1) n - 1
REM
REM in /home/bkarasulu/CARBON/AIRSS/Generating-Clusters/EDIP-Nigel-Params/Higher-Symm/Box-15A/Only-C60/SD-CG/HFTN-CG
REM
REM
REM
REM
REM
REM ./C.cell (414f73aa93bd7a1190c7fd0f31ff2f98)
REM
REM compiler GCC version 9.2.1 20190827 (Red Hat 9.2.1-1)
REM options -cpp -mtune=generic -march=x86-64 -g -O0 -fpre-include=/usr/include/finclude/math-vector-fortran.h
REM seed -56114521 -641307257 -63640090 -884262828 43776273 1721947198 539286078 515973200 1885462849 -212138356 837224792 -842824952 -2006729099 -735355359 -1143440936 2093300015 608741415 -654285481 -1706431235 1908985102 -1559739046 -1854796072 -906720020 -196510160 -1548281318 -632659141 -546920628 -1282947226 -2079116509 1199336081 -749963422 -284157023 578813521
REM
CELL 1.54180   50.00000   50.00000   50.00000   90.00000   90.00000   90.00000
LATT -1
SFAC C  
C      1  0.5742540000000  0.4973220000000  0.4741810000000 1.0
C      1  0.4868290000000  0.4821340000000  0.5702830000000 1.0
C      1  0.4888050000000  0.5729020000000  0.4841000000000 1.0
C      1  0.4104320000000  0.4908040000000  0.5029680000000 1.0
C      1  0.4252220000000  0.5239880000000  0.4778910000000 1.0
C      1  0.5847310000000  0.5219700000000  0.5093670000000 1.0
C      1  0.5174520000000  0.4764640000000  0.4288050000000 1.0
C      1  0.5228250000000  0.5051520000000  0.5816230000000 1.0
C      1  0.4856650000000  0.5066240000000  0.4216170000000 1.0
C      1  0.5115960000000  0.5725520000000  0.5241370000000 1.0
C      1  0.5144790000000  0.4268050000000  0.4895780000000 1.0
C      1  0.4869770000000  0.4290390000000  0.5237070000000 1.0
C      1  0.5720160000000  0.5281930000000  0.4821290000000 1.0
C      1  0.4920050000000  0.5099580000000  0.5842180000000 1.0
C      1  0.4850490000000  0.4157390000000  0.4962510000000 1.0
C      1  0.4165680000000  0.5208190000000  0.5079680000000 1.0
C      1  0.4208320000000  0.4934410000000  0.4739160000000 1.0
C      1  0.5870920000000  0.4923080000000  0.5024060000000 1.0
C      1  0.5162030000000  0.5073980000000  0.4235010000000 1.0
C      1  0.5175120000000  0.4762670000000  0.5719560000000 1.0
C      1  0.4859220000000  0.4753420000000  0.4225260000000 1.0
C      1  0.5169660000000  0.4351810000000  0.5195440000000 1.0
C      1  0.5180930000000  0.5790880000000  0.4883610000000 1.0
C      1  0.4833880000000  0.5703100000000  0.5138040000000 1.0
C      1  0.5281690000000  0.4658990000000  0.4557130000000 1.0
C      1  0.4732830000000  0.4559220000000  0.5192650000000 1.0
C      1  0.4546390000000  0.5313390000000  0.4777670000000 1.0
C      1  0.4750830000000  0.4850940000000  0.5414660000000 1.0
C      1  0.4737320000000  0.5164470000000  0.4478940000000 1.0
C      1  0.5377640000000  0.5204000000000  0.5592360000000 1.0
C      1  0.5086160000000  0.4487330000000  0.4703540000000 1.0
C      1  0.5197410000000  0.5459500000000  0.5378390000000 1.0
C      1  0.4859840000000  0.5498960000000  0.4638870000000 1.0
C      1  0.5634130000000  0.5250210000000  0.5305620000000 1.0
C      1  0.5446740000000  0.4856250000000  0.4744760000000 1.0
C      1  0.4300700000000  0.4741750000000  0.5189250000000 1.0
C      1  0.5255530000000  0.5231790000000  0.4470860000000 1.0
C      1  0.4720120000000  0.5446460000000  0.5250770000000 1.0
C      1  0.4464990000000  0.4776330000000  0.4752740000000 1.0
C      1  0.4843360000000  0.5311450000000  0.5682100000000 1.0
C      1  0.4700630000000  0.4668220000000  0.4467310000000 1.0
C      1  0.5324890000000  0.4739790000000  0.5471160000000 1.0
C      1  0.5328210000000  0.5594980000000  0.4725740000000 1.0
C      1  0.5208710000000  0.4651290000000  0.5209110000000 1.0
C      1  0.4663400000000  0.4305960000000  0.4796160000000 1.0
C      1  0.5663650000000  0.4784610000000  0.5186670000000 1.0
C      1  0.5426250000000  0.5340760000000  0.4875110000000 1.0
C      1  0.4418560000000  0.5203530000000  0.5248030000000 1.0
C      1  0.5138350000000  0.5500620000000  0.4511120000000 1.0
C      1  0.5429210000000  0.4735250000000  0.5021010000000 1.0
C      1  0.5292170000000  0.5110400000000  0.4736590000000 1.0
C      1  0.4928160000000  0.5336630000000  0.5422300000000 1.0
C      1  0.4943080000000  0.4783620000000  0.5163650000000 1.0
C      1  0.4646230000000  0.5242070000000  0.5042320000000 1.0
C      1  0.5384380000000  0.5330040000000  0.5175650000000 1.0
C      1  0.4456560000000  0.4929770000000  0.5365670000000 1.0
C      1  0.4824650000000  0.4433420000000  0.4593510000000 1.0
C      1  0.4484490000000  0.4577160000000  0.4998280000000 1.0
C      1  0.5577210000000  0.4899370000000  0.5459340000000 1.0
C      1  0.4716420000000  0.4923500000000  0.4652590000000 1.0
END
