TITL C-8694-7203-163 -0.00818952561278903 125000 -357.285155625491 0 0 60 (C1) n - 1
REM
REM in /home/bkarasulu/CARBON/AIRSS/Generating-Clusters/EDIP-Nigel-Params/Higher-Symm/Box-15A/Only-C60/SD-CG/HFTN-CG
REM
REM
REM
REM
REM
REM ./C.cell (414f73aa93bd7a1190c7fd0f31ff2f98)
REM
REM compiler GCC version 9.2.1 20190827 (Red Hat 9.2.1-1)
REM options -cpp -mtune=generic -march=x86-64 -g -O0 -fpre-include=/usr/include/finclude/math-vector-fortran.h
REM seed -902228593 1944302757 -746132856 -1830223473 -1377308427 -1948670540 -720977506 880477889 1918415030 -1489258750 618685984 -179222022 496945544 -1114761172 -1449734454 -1089861394 1489016549 -223527745 1608994074 -1722394317 1532636931 714620952 -1988168247 717084496 -1480401453 1594517374 -1903296657 886462904 1534990655 -1191333423 1096951407 -1540025782 99333746
REM
CELL 1.54180   50.00000   50.00000   50.00000   90.00000   90.00000   90.00000
LATT -1
SFAC C  
C      1  0.5190530000000  0.5380940000000  0.4454340000000 1.0
C      1  0.5189650000000  0.5589670000000  0.4652430000000 1.0
C      1  0.5177960000000  0.5587700000000  0.5096630000000 1.0
C      1  0.5174190000000  0.5570470000000  0.5388820000000 1.0
C      1  0.5212570000000  0.5138210000000  0.5662660000000 1.0
C      1  0.5261320000000  0.4871720000000  0.5764220000000 1.0
C      1  0.5231350000000  0.4474280000000  0.5605850000000 1.0
C      1  0.5093410000000  0.4449500000000  0.5127880000000 1.0
C      1  0.5064580000000  0.4511220000000  0.4848870000000 1.0
C      1  0.5158880000000  0.4700110000000  0.4336380000000 1.0
C      1  0.5199160000000  0.4954400000000  0.4206570000000 1.0
C      1  0.4590460000000  0.5348610000000  0.4808510000000 1.0
C      1  0.4465930000000  0.5392610000000  0.5070830000000 1.0
C      1  0.4608590000000  0.5344030000000  0.5327150000000 1.0
C      1  0.4459300000000  0.5147570000000  0.5505660000000 1.0
C      1  0.4584200000000  0.4871610000000  0.5547620000000 1.0
C      1  0.4467610000000  0.4658990000000  0.5372610000000 1.0
C      1  0.4610380000000  0.4434170000000  0.5285050000000 1.0
C      1  0.4574160000000  0.4479890000000  0.4744160000000 1.0
C      1  0.4405810000000  0.4810090000000  0.4316270000000 1.0
C      1  0.4558980000000  0.5024870000000  0.4411200000000 1.0
C      1  0.4438160000000  0.5190620000000  0.4617930000000 1.0
C      1  0.5366980000000  0.4550450000000  0.5168630000000 1.0
C      1  0.5335840000000  0.4584590000000  0.4785440000000 1.0
C      1  0.5372840000000  0.4714930000000  0.4534840000000 1.0
C      1  0.5447450000000  0.5033290000000  0.4346350000000 1.0
C      1  0.5459430000000  0.5286890000000  0.4479180000000 1.0
C      1  0.5459580000000  0.5546400000000  0.4758600000000 1.0
C      1  0.5460370000000  0.5555830000000  0.5047220000000 1.0
C      1  0.5449200000000  0.5460000000000  0.5415020000000 1.0
C      1  0.5461280000000  0.5199460000000  0.5534650000000 1.0
C      1  0.5499870000000  0.4819820000000  0.5585960000000 1.0
C      1  0.5447040000000  0.4566480000000  0.5449150000000 1.0
C      1  0.4060260000000  0.4895150000000  0.5369910000000 1.0
C      1  0.4206820000000  0.4687540000000  0.5259370000000 1.0
C      1  0.4177490000000  0.4600060000000  0.4995870000000 1.0
C      1  0.4322730000000  0.4599160000000  0.4757410000000 1.0
C      1  0.4227280000000  0.4752120000000  0.4527500000000 1.0
C      1  0.4020500000000  0.4940670000000  0.4565060000000 1.0
C      1  0.4152460000000  0.5170500000000  0.4656330000000 1.0
C      1  0.4038020000000  0.5335740000000  0.4848150000000 1.0
C      1  0.4176860000000  0.5391480000000  0.5082010000000 1.0
C      1  0.4055860000000  0.5374390000000  0.5333280000000 1.0
C      1  0.4165240000000  0.5141970000000  0.5449090000000 1.0
C      1  0.4878540000000  0.4504110000000  0.5312030000000 1.0
C      1  0.4839730000000  0.4512490000000  0.4668120000000 1.0
C      1  0.4892640000000  0.4638100000000  0.4420100000000 1.0
C      1  0.4854020000000  0.5018440000000  0.4367190000000 1.0
C      1  0.4987950000000  0.5205290000000  0.4552940000000 1.0
C      1  0.4884560000000  0.5383430000000  0.4773270000000 1.0
C      1  0.5037160000000  0.5331650000000  0.5035700000000 1.0
C      1  0.4910860000000  0.5323470000000  0.5330440000000 1.0
C      1  0.5003060000000  0.5083960000000  0.5477170000000 1.0
C      1  0.4887530000000  0.4848780000000  0.5648040000000 1.0
C      1  0.4964700000000  0.4559990000000  0.5578420000000 1.0
C      1  0.5737040000000  0.4972980000000  0.5004360000000 1.0
C      1  0.5995050000000  0.4917290000000  0.5004460000000 1.0
C      1  0.5474230000000  0.5012490000000  0.5002250000000 1.0
C      1  0.6246960000000  0.4873440000000  0.5005790000000 1.0
C      1  0.5228280000000  0.5119600000000  0.5003960000000 1.0
END
