TITL C-8695-8180-129 -6.25632317082755e-07 125000 -357.03675968672 0 0 60 (C2) n - 1
REM
REM in /home/bkarasulu/CARBON/AIRSS/Generating-Clusters/EDIP-Nigel-Params/Higher-Symm/Box-15A/Only-C60/SD-CG/HFTN-CG
REM
REM
REM
REM
REM
REM ./C.cell (414f73aa93bd7a1190c7fd0f31ff2f98)
REM
REM compiler GCC version 9.2.1 20190827 (Red Hat 9.2.1-1)
REM options -cpp -mtune=generic -march=x86-64 -g -O0 -fpre-include=/usr/include/finclude/math-vector-fortran.h
REM seed 887785855 629858559 -1743331738 292635195 1410295925 -1239261045 -1400227276 1040154182 1180293819 -479838021 -422137933 1025206678 -1772061106 123979303 -118777710 1328465670 186557253 1738171642 -1143737193 -2101831946 -846867894 1128265577 -473030540 733156875 -1312702311 -1997136034 -1791017103 2039147449 -322919870 1459561354 -1663784439 115325693 325916821
REM
CELL 1.54180   50.00000   50.00000   50.00000   90.00000   90.00000   90.00000
LATT -1
SFAC C  
C      1  0.4831370000000  0.4819040000000  0.5260030000000 1.0
C      1  0.5168630000000  0.4818800000000  0.4740130000000 1.0
C      1  0.4833040000000  0.4818190000000  0.4740570000000 1.0
C      1  0.5166960000000  0.4818420000000  0.5259590000000 1.0
C      1  0.4738370000000  0.4965360000000  0.5716520000000 1.0
C      1  0.5261630000000  0.4964710000000  0.4283510000000 1.0
C      1  0.4737940000000  0.4963740000000  0.4284490000000 1.0
C      1  0.5262050000000  0.4964380000000  0.5715550000000 1.0
C      1  0.5278520000000  0.5625500000000  0.5310780000000 1.0
C      1  0.4721480000000  0.5625230000000  0.4688660000000 1.0
C      1  0.5267530000000  0.5612160000000  0.4701920000000 1.0
C      1  0.4732470000000  0.5612430000000  0.5297530000000 1.0
C      1  0.5355660000000  0.4396210000000  0.5359010000000 1.0
C      1  0.4644330000000  0.4395900000000  0.4641530000000 1.0
C      1  0.5356920000000  0.4395580000000  0.4642560000000 1.0
C      1  0.4643070000000  0.4395900000000  0.5357980000000 1.0
C      1  0.5577660000000  0.4536680000000  0.5257620000000 1.0
C      1  0.4422330000000  0.4536460000000  0.4742800000000 1.0
C      1  0.5578680000000  0.4535520000000  0.4745120000000 1.0
C      1  0.4421310000000  0.4535760000000  0.5255290000000 1.0
C      1  0.5155690000000  0.4311550000000  0.5157320000000 1.0
C      1  0.4844310000000  0.4311410000000  0.4843300000000 1.0
C      1  0.5155970000000  0.4311490000000  0.4843570000000 1.0
C      1  0.4844020000000  0.4311630000000  0.5157050000000 1.0
C      1  0.4434440000000  0.5285490000000  0.5290620000000 1.0
C      1  0.5565560000000  0.5285230000000  0.4709120000000 1.0
C      1  0.4435690000000  0.5287440000000  0.4707800000000 1.0
C      1  0.5564320000000  0.5287690000000  0.5291940000000 1.0
C      1  0.4733920000000  0.4479150000000  0.5610920000000 1.0
C      1  0.5266070000000  0.4478600000000  0.4389540000000 1.0
C      1  0.4736340000000  0.4477730000000  0.4388710000000 1.0
C      1  0.5263650000000  0.4478270000000  0.5611750000000 1.0
C      1  0.5515000000000  0.5638560000000  0.5144020000000 1.0
C      1  0.4485010000000  0.5638440000000  0.4855410000000 1.0
C      1  0.5508890000000  0.5634280000000  0.4860490000000 1.0
C      1  0.4491120000000  0.5634410000000  0.5138940000000 1.0
C      1  0.5641400000000  0.5038370000000  0.4844650000000 1.0
C      1  0.4358600000000  0.5038520000000  0.5155320000000 1.0
C      1  0.5638460000000  0.5039080000000  0.5158220000000 1.0
C      1  0.4361540000000  0.5038940000000  0.4841750000000 1.0
C      1  0.4547950000000  0.4780610000000  0.5154100000000 1.0
C      1  0.5452050000000  0.4780470000000  0.4846090000000 1.0
C      1  0.4549130000000  0.4780790000000  0.4844970000000 1.0
C      1  0.5450870000000  0.4780920000000  0.5155230000000 1.0
C      1  0.5147700000000  0.5199560000000  0.5608080000000 1.0
C      1  0.4852300000000  0.5199020000000  0.4391740000000 1.0
C      1  0.5146750000000  0.5199450000000  0.4391290000000 1.0
C      1  0.4853260000000  0.5200000000000  0.5608530000000 1.0
C      1  0.4887720000000  0.5818480000000  0.5396530000000 1.0
C      1  0.5112290000000  0.5818120000000  0.4602740000000 1.0
C      1  0.4847430000000  0.5846900000000  0.4575360000000 1.0
C      1  0.5152580000000  0.5847280000000  0.5423890000000 1.0
C      1  0.4691020000000  0.5352920000000  0.5416600000000 1.0
C      1  0.5308980000000  0.5352540000000  0.4583090000000 1.0
C      1  0.4685420000000  0.5361620000000  0.4572870000000 1.0
C      1  0.5314580000000  0.5362000000000  0.5426810000000 1.0
C      1  0.4844520000000  0.4744820000000  0.5558470000000 1.0
C      1  0.5155480000000  0.4744320000000  0.4441760000000 1.0
C      1  0.4845790000000  0.4743720000000  0.4442040000000 1.0
C      1  0.5154210000000  0.4744220000000  0.5558190000000 1.0
END
