TITL C-8698-8182-165 -6.10771701895547e-06 125000 -355.678733079337 0 0 60 (C2) n - 1
REM
REM in /home/bkarasulu/CARBON/AIRSS/Generating-Clusters/EDIP-Nigel-Params/Higher-Symm/Box-15A/Only-C60/SD-CG/HFTN-CG
REM
REM
REM
REM
REM
REM ./C.cell (414f73aa93bd7a1190c7fd0f31ff2f98)
REM
REM compiler GCC version 9.2.1 20190827 (Red Hat 9.2.1-1)
REM options -cpp -mtune=generic -march=x86-64 -g -O0 -fpre-include=/usr/include/finclude/math-vector-fortran.h
REM seed 356646306 -2024623774 292774681 -611753118 1169366971 -842168343 -347474227 -1956342465 -1226277719 -619221360 212738037 826710863 -222680209 -502390698 1413846815 1837453741 1052906812 -897498483 222088078 -780728773 1537564784 1970645687 1894457605 -716248077 1657987145 -978326436 -1256045602 -1482642302 -959610606 -1467307226 -37768144 -1897108162 687182716
REM
CELL 1.54180   50.00000   50.00000   50.00000   90.00000   90.00000   90.00000
LATT -1
SFAC C  
C      1  0.5336050000000  0.4434110000000  0.5010620000000 1.0
C      1  0.5327110000000  0.4954810000000  0.4360280000000 1.0
C      1  0.5336040000000  0.5565900000000  0.4989390000000 1.0
C      1  0.5327090000000  0.5045190000000  0.5639720000000 1.0
C      1  0.5004650000000  0.5198630000000  0.5096900000000 1.0
C      1  0.5005660000000  0.4902440000000  0.5198670000000 1.0
C      1  0.5004650000000  0.4801370000000  0.4903100000000 1.0
C      1  0.5005660000000  0.5097560000000  0.4801330000000 1.0
C      1  0.5055210000000  0.5659200000000  0.4658980000000 1.0
C      1  0.4992700000000  0.5394200000000  0.5628580000000 1.0
C      1  0.5055210000000  0.4340800000000  0.5341020000000 1.0
C      1  0.4992710000000  0.4605800000000  0.4371420000000 1.0
C      1  0.4269350000000  0.5029000000000  0.4807000000000 1.0
C      1  0.4282150000000  0.5244510000000  0.5034260000000 1.0
C      1  0.4269350000000  0.4970990000000  0.5192990000000 1.0
C      1  0.4282160000000  0.4755490000000  0.4965730000000 1.0
C      1  0.5440310000000  0.4519660000000  0.4550260000000 1.0
C      1  0.5475600000000  0.5372590000000  0.4539790000000 1.0
C      1  0.5440300000000  0.5480350000000  0.5449750000000 1.0
C      1  0.5475600000000  0.4627410000000  0.5460220000000 1.0
C      1  0.4526390000000  0.4938880000000  0.5356460000000 1.0
C      1  0.4552250000000  0.4651340000000  0.5018130000000 1.0
C      1  0.4526400000000  0.5061120000000  0.4643530000000 1.0
C      1  0.4552250000000  0.5348660000000  0.4981870000000 1.0
C      1  0.5116240000000  0.4257120000000  0.4963640000000 1.0
C      1  0.5128000000000  0.5109410000000  0.4249590000000 1.0
C      1  0.5116240000000  0.5742880000000  0.5036360000000 1.0
C      1  0.5127990000000  0.4890590000000  0.5750410000000 1.0
C      1  0.4865440000000  0.4835200000000  0.5691190000000 1.0
C      1  0.4858570000000  0.4312020000000  0.4855540000000 1.0
C      1  0.4865460000000  0.5164800000000  0.4308810000000 1.0
C      1  0.4858560000000  0.5687970000000  0.5144450000000 1.0
C      1  0.5264690000000  0.4674660000000  0.4398580000000 1.0
C      1  0.5331720000000  0.5554770000000  0.4697830000000 1.0
C      1  0.5264670000000  0.5325340000000  0.5601430000000 1.0
C      1  0.5331720000000  0.4445230000000  0.5302180000000 1.0
C      1  0.5749970000000  0.5011260000000  0.5409630000000 1.0
C      1  0.5750490000000  0.4624630000000  0.4881950000000 1.0
C      1  0.5749980000000  0.4988750000000  0.4590390000000 1.0
C      1  0.5750480000000  0.5375370000000  0.5118070000000 1.0
C      1  0.4749150000000  0.5360620000000  0.5485990000000 1.0
C      1  0.4793300000000  0.4478520000000  0.5371570000000 1.0
C      1  0.4749160000000  0.4639380000000  0.4514000000000 1.0
C      1  0.4793310000000  0.5521470000000  0.4628430000000 1.0
C      1  0.5530620000000  0.5103730000000  0.4497310000000 1.0
C      1  0.5534920000000  0.5510680000000  0.5190150000000 1.0
C      1  0.5530610000000  0.4896280000000  0.5502700000000 1.0
C      1  0.5534930000000  0.4489320000000  0.4809860000000 1.0
C      1  0.4800130000000  0.5216920000000  0.4598460000000 1.0
C      1  0.4784890000000  0.5395260000000  0.5187950000000 1.0
C      1  0.4800120000000  0.4783080000000  0.5401540000000 1.0
C      1  0.4784890000000  0.4604740000000  0.4812050000000 1.0
C      1  0.4675390000000  0.4989470000000  0.4197860000000 1.0
C      1  0.4655070000000  0.5810890000000  0.4989770000000 1.0
C      1  0.4675370000000  0.5010530000000  0.5802130000000 1.0
C      1  0.4655070000000  0.4189110000000  0.5010220000000 1.0
C      1  0.4574820000000  0.4403290000000  0.5182250000000 1.0
C      1  0.4569190000000  0.4859110000000  0.4428300000000 1.0
C      1  0.4574820000000  0.5596700000000  0.4817740000000 1.0
C      1  0.4569180000000  0.5140880000000  0.5571690000000 1.0
END
