TITL C-8691-6797-27 -8.28912192670123e-07 125000 -365.037833509757 0 0 60 (C1) n - 1
REM
REM in /home/bkarasulu/CARBON/AIRSS/Generating-Clusters/EDIP-Nigel-Params/Higher-Symm/Box-15A/Only-C60/SD-CG/HFTN-CG
REM
REM
REM
REM
REM
REM ./C.cell (414f73aa93bd7a1190c7fd0f31ff2f98)
REM
REM compiler GCC version 9.2.1 20190827 (Red Hat 9.2.1-1)
REM options -cpp -mtune=generic -march=x86-64 -g -O0 -fpre-include=/usr/include/finclude/math-vector-fortran.h
REM seed -1822763348 -202117148 978054827 -1464683437 -1679702332 -1704789253 -964375637 -1956401886 2111499535 -1458627357 -1422066362 -1187453927 1123528901 1342225146 992683586 -1717138283 -464473766 -882792087 -1306542626 219159676 111508933 -2012429825 -75426930 1718883913 -1526422538 1619762376 -412366026 1501445569 741797766 1052850513 -1578394164 -278252431 -2086963996
REM
CELL 1.54180   50.00000   50.00000   50.00000   90.00000   90.00000   90.00000
LATT -1
SFAC C  
C      1  0.4935060000000  0.4382590000000  0.5425830000000 1.0
C      1  0.5360680000000  0.4370060000000  0.5194150000000 1.0
C      1  0.5458400000000  0.4403340000000  0.4910560000000 1.0
C      1  0.5216990000000  0.4427200000000  0.4723000000000 1.0
C      1  0.4821770000000  0.4416130000000  0.4712550000000 1.0
C      1  0.4573890000000  0.4414520000000  0.4885670000000 1.0
C      1  0.4605570000000  0.4412040000000  0.5171010000000 1.0
C      1  0.5548890000000  0.5352700000000  0.5156210000000 1.0
C      1  0.5457400000000  0.5339250000000  0.4696060000000 1.0
C      1  0.5034800000000  0.5319410000000  0.4475020000000 1.0
C      1  0.4584330000000  0.5338710000000  0.4631690000000 1.0
C      1  0.4426370000000  0.5361300000000  0.5073160000000 1.0
C      1  0.4716030000000  0.5328410000000  0.5442960000000 1.0
C      1  0.5207460000000  0.5319400000000  0.5479880000000 1.0
C      1  0.4276740000000  0.5398670000000  0.5301150000000 1.0
C      1  0.4803650000000  0.5329410000000  0.5706220000000 1.0
C      1  0.5456110000000  0.5369640000000  0.5596260000000 1.0
C      1  0.5785970000000  0.5393540000000  0.5022590000000 1.0
C      1  0.5497170000000  0.5352710000000  0.4422260000000 1.0
C      1  0.4850380000000  0.5338870000000  0.4266320000000 1.0
C      1  0.4307990000000  0.5377440000000  0.4640700000000 1.0
C      1  0.5609880000000  0.4664540000000  0.4892400000000 1.0
C      1  0.5278450000000  0.4657180000000  0.4538890000000 1.0
C      1  0.4782920000000  0.4647070000000  0.4514560000000 1.0
C      1  0.4414710000000  0.4661100000000  0.4822190000000 1.0
C      1  0.4494470000000  0.4647420000000  0.5294180000000 1.0
C      1  0.4944260000000  0.4652910000000  0.5514340000000 1.0
C      1  0.5437600000000  0.4628470000000  0.5344970000000 1.0
C      1  0.4646340000000  0.5571000000000  0.5041770000000 1.0
C      1  0.4829510000000  0.5544940000000  0.5271870000000 1.0
C      1  0.5123510000000  0.5537610000000  0.5293620000000 1.0
C      1  0.5337940000000  0.5565020000000  0.5094300000000 1.0
C      1  0.5286320000000  0.5562340000000  0.4804580000000 1.0
C      1  0.5020740000000  0.5540440000000  0.4674910000000 1.0
C      1  0.4739260000000  0.5561940000000  0.4763040000000 1.0
C      1  0.5204980000000  0.5051780000000  0.5316870000000 1.0
C      1  0.5429010000000  0.5065650000000  0.5111670000000 1.0
C      1  0.5337650000000  0.5067630000000  0.4799700000000 1.0
C      1  0.5021040000000  0.5059810000000  0.4647420000000 1.0
C      1  0.4686090000000  0.5067010000000  0.4754800000000 1.0
C      1  0.4548850000000  0.5073600000000  0.5049320000000 1.0
C      1  0.4740010000000  0.5060290000000  0.5283390000000 1.0
C      1  0.4453390000000  0.5381420000000  0.5521500000000 1.0
C      1  0.5081820000000  0.5322710000000  0.5727140000000 1.0
C      1  0.5663200000000  0.5387060000000  0.5404240000000 1.0
C      1  0.5729620000000  0.5375250000000  0.4746180000000 1.0
C      1  0.5248040000000  0.5338100000000  0.4295710000000 1.0
C      1  0.4585290000000  0.5350860000000  0.4354910000000 1.0
C      1  0.4212060000000  0.5402120000000  0.4905450000000 1.0
C      1  0.5031470000000  0.4811550000000  0.4475110000000 1.0
C      1  0.4565890000000  0.4822910000000  0.4620590000000 1.0
C      1  0.4380370000000  0.4821370000000  0.5075400000000 1.0
C      1  0.4693500000000  0.4809950000000  0.5445930000000 1.0
C      1  0.5214520000000  0.4791520000000  0.5472410000000 1.0
C      1  0.5590020000000  0.4809880000000  0.5155110000000 1.0
C      1  0.5478630000000  0.4830090000000  0.4677540000000 1.0
C      1  0.4984740000000  0.5028330000000  0.5134660000000 1.0
C      1  0.5064620000000  0.4320080000000  0.5181280000000 1.0
C      1  0.4995270000000  0.4787600000000  0.4994770000000 1.0
C      1  0.5009060000000  0.4504800000000  0.4939880000000 1.0
END
