TITL C-8692-4986-7 -8.42577987267899e-07 125000 -367.282916249645 0 0 60 (C1) n - 1
REM
REM in /home/bkarasulu/CARBON/AIRSS/Generating-Clusters/EDIP-Nigel-Params/Higher-Symm/Box-15A/Only-C60/SD-CG/HFTN-CG
REM
REM
REM
REM
REM
REM ./C.cell (414f73aa93bd7a1190c7fd0f31ff2f98)
REM
REM compiler GCC version 9.2.1 20190827 (Red Hat 9.2.1-1)
REM options -cpp -mtune=generic -march=x86-64 -g -O0 -fpre-include=/usr/include/finclude/math-vector-fortran.h
REM seed -530295009 773768691 -1558114239 400328678 231357548 -1310297282 -385740815 -620367926 1724647695 539962508 661095382 71354728 1321175680 -533132866 941387712 -757316642 -49074359 -1126815288 -1917213801 142146649 1327183859 -667488122 801399584 -795761536 -1854396018 -950069587 -969974853 1751518496 -453498815 1663006637 903309540 -136955568 602702145
REM
CELL 1.54180   50.00000   50.00000   50.00000   90.00000   90.00000   90.00000
LATT -1
SFAC C  
C      1  0.4958060000000  0.5660560000000  0.5291940000000 1.0
C      1  0.5607840000000  0.5244660000000  0.5289220000000 1.0
C      1  0.5413860000000  0.4512240000000  0.5280840000000 1.0
C      1  0.4663060000000  0.4465870000000  0.5274430000000 1.0
C      1  0.4373430000000  0.5171150000000  0.5271600000000 1.0
C      1  0.4770430000000  0.4887260000000  0.5189980000000 1.0
C      1  0.4811500000000  0.5181920000000  0.5088000000000 1.0
C      1  0.5085680000000  0.5224780000000  0.5178720000000 1.0
C      1  0.5242580000000  0.4988620000000  0.5099790000000 1.0
C      1  0.5035650000000  0.4752620000000  0.5074920000000 1.0
C      1  0.4629450000000  0.4599640000000  0.4471540000000 1.0
C      1  0.4542370000000  0.5243200000000  0.4491360000000 1.0
C      1  0.5073400000000  0.5516960000000  0.4483860000000 1.0
C      1  0.5528660000000  0.5085060000000  0.4474030000000 1.0
C      1  0.5242630000000  0.4488850000000  0.4474250000000 1.0
C      1  0.4445830000000  0.4678870000000  0.5268780000000 1.0
C      1  0.4602740000000  0.5363160000000  0.5217750000000 1.0
C      1  0.5205280000000  0.5489280000000  0.5240440000000 1.0
C      1  0.5520390000000  0.4961330000000  0.5219030000000 1.0
C      1  0.5120670000000  0.4490540000000  0.5213960000000 1.0
C      1  0.5617560000000  0.5393740000000  0.5022810000000 1.0
C      1  0.5564800000000  0.4538670000000  0.5019360000000 1.0
C      1  0.4738170000000  0.4333630000000  0.5015910000000 1.0
C      1  0.4292730000000  0.5051090000000  0.5009910000000 1.0
C      1  0.4817830000000  0.5724190000000  0.5024790000000 1.0
C      1  0.5457090000000  0.4399190000000  0.4782830000000 1.0
C      1  0.4573240000000  0.4371610000000  0.4778620000000 1.0
C      1  0.4286790000000  0.5227490000000  0.4778260000000 1.0
C      1  0.4984450000000  0.5748210000000  0.4782960000000 1.0
C      1  0.5700030000000  0.5246220000000  0.4781050000000 1.0
C      1  0.4891160000000  0.5249930000000  0.5601210000000 1.0
C      1  0.5196660000000  0.5185780000000  0.5606830000000 1.0
C      1  0.5225520000000  0.4880260000000  0.5589540000000 1.0
C      1  0.4951840000000  0.4761830000000  0.5573270000000 1.0
C      1  0.4747200000000  0.4980340000000  0.5573790000000 1.0
C      1  0.5262190000000  0.5686920000000  0.4776380000000 1.0
C      1  0.5743130000000  0.4965920000000  0.4770730000000 1.0
C      1  0.5209250000000  0.4258640000000  0.4783620000000 1.0
C      1  0.4390860000000  0.4589950000000  0.4771840000000 1.0
C      1  0.4416530000000  0.5479990000000  0.4772890000000 1.0
C      1  0.5389300000000  0.5381660000000  0.5461840000000 1.0
C      1  0.5462150000000  0.4767500000000  0.5439930000000 1.0
C      1  0.4915790000000  0.4505180000000  0.5433260000000 1.0
C      1  0.4461080000000  0.4938190000000  0.5448690000000 1.0
C      1  0.4764840000000  0.5482370000000  0.5447900000000 1.0
C      1  0.4601350000000  0.4924660000000  0.4480730000000 1.0
C      1  0.4803040000000  0.5399500000000  0.4579030000000 1.0
C      1  0.5307570000000  0.5317230000000  0.4535410000000 1.0
C      1  0.5380890000000  0.4785130000000  0.4467660000000 1.0
C      1  0.4928480000000  0.4509770000000  0.4553910000000 1.0
C      1  0.4881620000000  0.5193330000000  0.4782310000000 1.0
C      1  0.5184450000000  0.5153510000000  0.4753760000000 1.0
C      1  0.5203570000000  0.4875570000000  0.4676800000000 1.0
C      1  0.4971030000000  0.4730580000000  0.4762520000000 1.0
C      1  0.4766330000000  0.4936880000000  0.4716910000000 1.0
C      1  0.5380530000000  0.5573810000000  0.5013630000000 1.0
C      1  0.5677910000000  0.4816750000000  0.5009600000000 1.0
C      1  0.5036440000000  0.4282490000000  0.5015320000000 1.0
C      1  0.4388820000000  0.4773080000000  0.4996890000000 1.0
C      1  0.4554240000000  0.5572660000000  0.5012900000000 1.0
END
