TITL C-8695-8180-252 -2.55228278670587e-06 125000 -368.663447559625 0 0 60 (C1) n - 1
REM
REM in /home/bkarasulu/CARBON/AIRSS/Generating-Clusters/EDIP-Nigel-Params/Higher-Symm/Box-15A/Only-C60/SD-CG/HFTN-CG
REM
REM
REM
REM
REM
REM ./C.cell (414f73aa93bd7a1190c7fd0f31ff2f98)
REM
REM compiler GCC version 9.2.1 20190827 (Red Hat 9.2.1-1)
REM options -cpp -mtune=generic -march=x86-64 -g -O0 -fpre-include=/usr/include/finclude/math-vector-fortran.h
REM seed 42114517 1683668010 1892142641 -41126943 -1715682168 488166252 912182541 568316918 1693182501 597256020 -179974134 -1037842623 -2077681567 1929372762 1299927956 -1234192561 1524649417 288814804 1059357879 -68104985 -1838428452 -261170169 1215329107 146100365 -286518373 -889643070 622001837 -1341653186 582396742 -2067285441 -1895435154 -1485783799 -265451017
REM
CELL 1.54180   50.00000   50.00000   50.00000   90.00000   90.00000   90.00000
LATT -1
SFAC C  
C      1  0.5077680000000  0.5481880000000  0.5595210000000 1.0
C      1  0.5363980000000  0.4689650000000  0.5609450000000 1.0
C      1  0.4547520000000  0.4822280000000  0.5605500000000 1.0
C      1  0.5026330000000  0.4773890000000  0.5253570000000 1.0
C      1  0.4824050000000  0.5029270000000  0.5249910000000 1.0
C      1  0.5163290000000  0.5135580000000  0.5243590000000 1.0
C      1  0.5301210000000  0.4462730000000  0.4991490000000 1.0
C      1  0.4395560000000  0.5013510000000  0.4982710000000 1.0
C      1  0.5303910000000  0.5519550000000  0.4981170000000 1.0
C      1  0.5627690000000  0.4791050000000  0.4664630000000 1.0
C      1  0.4508250000000  0.4573060000000  0.4666270000000 1.0
C      1  0.4870710000000  0.5671170000000  0.4655950000000 1.0
C      1  0.4965500000000  0.4709400000000  0.4376880000000 1.0
C      1  0.4753460000000  0.5193390000000  0.4352610000000 1.0
C      1  0.5273700000000  0.5131340000000  0.4365720000000 1.0
C      1  0.4998830000000  0.5174140000000  0.4754530000000 1.0
C      1  0.5161040000000  0.4883820000000  0.4754260000000 1.0
C      1  0.4821120000000  0.4897800000000  0.4746340000000 1.0
C      1  0.5583350000000  0.4576790000000  0.5202430000000 1.0
C      1  0.4338370000000  0.4710160000000  0.5193910000000 1.0
C      1  0.5079660000000  0.5718610000000  0.5185330000000 1.0
C      1  0.4983250000000  0.4515720000000  0.4595740000000 1.0
C      1  0.4566500000000  0.5280170000000  0.4566420000000 1.0
C      1  0.5460020000000  0.5251120000000  0.4569620000000 1.0
C      1  0.4679600000000  0.5484270000000  0.4745500000000 1.0
C      1  0.5569910000000  0.5049200000000  0.4756140000000 1.0
C      1  0.4748740000000  0.4463980000000  0.4759770000000 1.0
C      1  0.4558530000000  0.4521790000000  0.5188380000000 1.0
C      1  0.4810580000000  0.5611490000000  0.5188430000000 1.0
C      1  0.5618300000000  0.4863680000000  0.5195240000000 1.0
C      1  0.4461430000000  0.4805800000000  0.4517580000000 1.0
C      1  0.5090120000000  0.5567020000000  0.4517790000000 1.0
C      1  0.5440870000000  0.4639730000000  0.4524210000000 1.0
C      1  0.5263490000000  0.4460740000000  0.4686720000000 1.0
C      1  0.4407910000000  0.5049530000000  0.4678340000000 1.0
C      1  0.5343570000000  0.5515410000000  0.4676230000000 1.0
C      1  0.4416390000000  0.5230900000000  0.5418610000000 1.0
C      1  0.5504840000000  0.5410590000000  0.5417150000000 1.0
C      1  0.5101650000000  0.4347640000000  0.5426620000000 1.0
C      1  0.5060550000000  0.5331420000000  0.5028520000000 1.0
C      1  0.5251370000000  0.4767630000000  0.5035630000000 1.0
C      1  0.4671940000000  0.4883010000000  0.5022000000000 1.0
C      1  0.4184310000000  0.5070380000000  0.5479170000000 1.0
C      1  0.5469340000000  0.5691290000000  0.5471280000000 1.0
C      1  0.5366060000000  0.4247470000000  0.5481890000000 1.0
C      1  0.5249980000000  0.5275500000000  0.5496250000000 1.0
C      1  0.5101150000000  0.4635420000000  0.5510160000000 1.0
C      1  0.4655100000000  0.5064560000000  0.5496790000000 1.0
C      1  0.5244570000000  0.4825370000000  0.4381600000000 1.0
C      1  0.4716630000000  0.4891220000000  0.4373870000000 1.0
C      1  0.5025680000000  0.5278360000000  0.4463200000000 1.0
C      1  0.4639840000000  0.5457170000000  0.5026290000000 1.0
C      1  0.5551490000000  0.5089180000000  0.5038200000000 1.0
C      1  0.4794640000000  0.4462080000000  0.5043220000000 1.0
C      1  0.4429550000000  0.5279060000000  0.5125950000000 1.0
C      1  0.5526170000000  0.5366690000000  0.5125190000000 1.0
C      1  0.5052140000000  0.4347080000000  0.5133460000000 1.0
C      1  0.5517170000000  0.4489060000000  0.5476000000000 1.0
C      1  0.4296480000000  0.4808600000000  0.5469170000000 1.0
C      1  0.5184930000000  0.5711610000000  0.5462180000000 1.0
END
