TITL C-8699-7882-147 -3.44359812076636e-05 125000 -363.321250079449 0 0 60 (C1) n - 1
REM
REM in /home/bkarasulu/CARBON/AIRSS/Generating-Clusters/EDIP-Nigel-Params/Higher-Symm/Box-15A/Only-C60/SD-CG/HFTN-CG
REM
REM
REM
REM
REM
REM ./C.cell (414f73aa93bd7a1190c7fd0f31ff2f98)
REM
REM compiler GCC version 9.2.1 20190827 (Red Hat 9.2.1-1)
REM options -cpp -mtune=generic -march=x86-64 -g -O0 -fpre-include=/usr/include/finclude/math-vector-fortran.h
REM seed 983117748 -1530004379 -1623218247 194249618 -236355530 -1260604731 -803669538 -422398726 848108110 744687903 1294338031 1140020877 -246171021 1197754519 1552396875 320816973 1731723208 -949648769 1298814577 -435906491 -1650566580 -305627 1103063072 1796363934 1609914407 -522527610 -534445323 -572020039 1323373371 112306434 -250728471 241674579 122701884
REM
CELL 1.54180   50.00000   50.00000   50.00000   90.00000   90.00000   90.00000
LATT -1
SFAC C  
C      1  0.4978590000000  0.4666420000000  0.5777140000000 1.0
C      1  0.5273210000000  0.4422340000000  0.5140670000000 1.0
C      1  0.5451250000000  0.5485600000000  0.4747070000000 1.0
C      1  0.4465090000000  0.5379510000000  0.4826570000000 1.0
C      1  0.4867170000000  0.4795840000000  0.4923570000000 1.0
C      1  0.4271540000000  0.4813320000000  0.5337710000000 1.0
C      1  0.5320110000000  0.4635640000000  0.4607850000000 1.0
C      1  0.4509110000000  0.4899490000000  0.4612510000000 1.0
C      1  0.5298110000000  0.5386020000000  0.5358510000000 1.0
C      1  0.4698240000000  0.5427770000000  0.4336390000000 1.0
C      1  0.4287610000000  0.5180740000000  0.4927380000000 1.0
C      1  0.5044230000000  0.5658940000000  0.4687950000000 1.0
C      1  0.4961840000000  0.4831590000000  0.4342960000000 1.0
C      1  0.5007040000000  0.4357990000000  0.4401060000000 1.0
C      1  0.5655320000000  0.4946520000000  0.4740640000000 1.0
C      1  0.5318450000000  0.5718270000000  0.4666000000000 1.0
C      1  0.4726810000000  0.4582260000000  0.5625270000000 1.0
C      1  0.4371700000000  0.4907970000000  0.5577070000000 1.0
C      1  0.5306860000000  0.5219100000000  0.4713980000000 1.0
C      1  0.4357600000000  0.4910290000000  0.4871260000000 1.0
C      1  0.4757590000000  0.5313530000000  0.5517500000000 1.0
C      1  0.4634670000000  0.5416550000000  0.5290320000000 1.0
C      1  0.5211090000000  0.4603900000000  0.5598280000000 1.0
C      1  0.5551830000000  0.4833980000000  0.5299710000000 1.0
C      1  0.5671040000000  0.5089510000000  0.5210140000000 1.0
C      1  0.5760210000000  0.5123770000000  0.4938700000000 1.0
C      1  0.4931000000000  0.5472270000000  0.5665540000000 1.0
C      1  0.4949420000000  0.5556950000000  0.4946040000000 1.0
C      1  0.4855640000000  0.5033040000000  0.5517140000000 1.0
C      1  0.5071930000000  0.5261090000000  0.4505930000000 1.0
C      1  0.4426030000000  0.4734090000000  0.5107670000000 1.0
C      1  0.5486590000000  0.4629150000000  0.5081210000000 1.0
C      1  0.5160560000000  0.5176370000000  0.4999950000000 1.0
C      1  0.5454680000000  0.4757220000000  0.4815120000000 1.0
C      1  0.5112890000000  0.4985470000000  0.5323100000000 1.0
C      1  0.5245140000000  0.5087040000000  0.5742010000000 1.0
C      1  0.4906660000000  0.5606040000000  0.4439560000000 1.0
C      1  0.5328970000000  0.4872110000000  0.5509660000000 1.0
C      1  0.4830650000000  0.5131630000000  0.4641310000000 1.0
C      1  0.4813450000000  0.4233980000000  0.4548050000000 1.0
C      1  0.5624440000000  0.5123170000000  0.4519320000000 1.0
C      1  0.5565770000000  0.5316980000000  0.5329390000000 1.0
C      1  0.4646410000000  0.4429080000000  0.4655980000000 1.0
C      1  0.5153750000000  0.5535250000000  0.5153790000000 1.0
C      1  0.4798510000000  0.4426010000000  0.5384400000000 1.0
C      1  0.4683520000000  0.4320550000000  0.4908390000000 1.0
C      1  0.4881250000000  0.5092400000000  0.4924130000000 1.0
C      1  0.5033670000000  0.5097000000000  0.4253020000000 1.0
C      1  0.4754910000000  0.4708010000000  0.4643320000000 1.0
C      1  0.4974300000000  0.4968540000000  0.5795450000000 1.0
C      1  0.4566640000000  0.5262930000000  0.4566920000000 1.0
C      1  0.4674040000000  0.5472340000000  0.5018980000000 1.0
C      1  0.5114170000000  0.4766290000000  0.5095550000000 1.0
C      1  0.5703190000000  0.5375420000000  0.4648960000000 1.0
C      1  0.4626910000000  0.4489940000000  0.5134400000000 1.0
C      1  0.4633840000000  0.4825080000000  0.5484500000000 1.0
C      1  0.4816610000000  0.5249550000000  0.4144090000000 1.0
C      1  0.5124000000000  0.4608240000000  0.4415820000000 1.0
C      1  0.5188360000000  0.5358220000000  0.5624740000000 1.0
C      1  0.5105800000000  0.4431690000000  0.5380310000000 1.0
END
