TITL C-8695-8180-185 -4.28756405941076e-06 125000 -364.0610022082 0 0 60 (Cs) n - 1
REM
REM in /home/bkarasulu/CARBON/AIRSS/Generating-Clusters/EDIP-Nigel-Params/Higher-Symm/Box-15A/Only-C60/SD-CG/HFTN-CG
REM
REM
REM
REM
REM
REM ./C.cell (414f73aa93bd7a1190c7fd0f31ff2f98)
REM
REM compiler GCC version 9.2.1 20190827 (Red Hat 9.2.1-1)
REM options -cpp -mtune=generic -march=x86-64 -g -O0 -fpre-include=/usr/include/finclude/math-vector-fortran.h
REM seed -1589837410 1460644759 2041248015 -1262193103 -663642489 -798344501 586660192 -1973364592 -1002173645 -780695615 -1957425658 442976689 1779062435 -274695487 980785161 -932509065 -654444248 -212102462 1772995303 603700482 -886342102 -135724724 -517989949 600171590 -869522331 2081760750 1432333842 -1317982078 -1757436691 1984695855 775829591 786112539 355767807
REM
CELL 1.54180   50.00000   50.00000   50.00000   90.00000   90.00000   90.00000
LATT -1
SFAC C  
C      1  0.4990050000000  0.5399990000000  0.5581330000000 1.0
C      1  0.4997800000000  0.5295760000000  0.4353840000000 1.0
C      1  0.5009160000000  0.4309890000000  0.5051180000000 1.0
C      1  0.4994930000000  0.4592040000000  0.5575830000000 1.0
C      1  0.5001320000000  0.4713050000000  0.4349870000000 1.0
C      1  0.5000830000000  0.5689410000000  0.5060570000000 1.0
C      1  0.5264530000000  0.4854530000000  0.4310220000000 1.0
C      1  0.5264070000000  0.4488310000000  0.5477730000000 1.0
C      1  0.5260140000000  0.5656430000000  0.5211810000000 1.0
C      1  0.5262690000000  0.5158030000000  0.4312290000000 1.0
C      1  0.5257910000000  0.5508300000000  0.5484670000000 1.0
C      1  0.5268070000000  0.4343940000000  0.5202870000000 1.0
C      1  0.4368040000000  0.4698730000000  0.4997020000000 1.0
C      1  0.4400010000000  0.5142530000000  0.5255360000000 1.0
C      1  0.4402950000000  0.5143530000000  0.4743070000000 1.0
C      1  0.4364440000000  0.5293620000000  0.5001070000000 1.0
C      1  0.4401790000000  0.4846770000000  0.5253350000000 1.0
C      1  0.4404710000000  0.4852770000000  0.4741090000000 1.0
C      1  0.4543380000000  0.5269930000000  0.4520700000000 1.0
C      1  0.4508430000000  0.4438520000000  0.5003190000000 1.0
C      1  0.4543900000000  0.5275510000000  0.5472970000000 1.0
C      1  0.4546630000000  0.4731120000000  0.4517030000000 1.0
C      1  0.4501680000000  0.5555400000000  0.5010790000000 1.0
C      1  0.4547300000000  0.4712590000000  0.5469140000000 1.0
C      1  0.4731460000000  0.5155950000000  0.4323050000000 1.0
C      1  0.4735350000000  0.4349520000000  0.5190950000000 1.0
C      1  0.4726170000000  0.5506010000000  0.5476610000000 1.0
C      1  0.4733310000000  0.4850040000000  0.4320970000000 1.0
C      1  0.4727530000000  0.5644570000000  0.5199760000000 1.0
C      1  0.4732340000000  0.4484280000000  0.5469660000000 1.0
C      1  0.5257730000000  0.4733230000000  0.4998300000000 1.0
C      1  0.5162390000000  0.5149500000000  0.5261760000000 1.0
C      1  0.5165160000000  0.5158680000000  0.4738030000000 1.0
C      1  0.5254490000000  0.5269860000000  0.5001950000000 1.0
C      1  0.5164210000000  0.4848930000000  0.5259710000000 1.0
C      1  0.5167040000000  0.4846910000000  0.4735910000000 1.0
C      1  0.5562740000000  0.4719890000000  0.5005580000000 1.0
C      1  0.5605790000000  0.5150910000000  0.5278540000000 1.0
C      1  0.5608170000000  0.5153160000000  0.4729320000000 1.0
C      1  0.5559310000000  0.5286780000000  0.5009440000000 1.0
C      1  0.5607590000000  0.4852640000000  0.5276510000000 1.0
C      1  0.5609950000000  0.4857890000000  0.4727310000000 1.0
C      1  0.4801850000000  0.4682230000000  0.4997050000000 1.0
C      1  0.4840510000000  0.5153520000000  0.5250500000000 1.0
C      1  0.4843640000000  0.5164500000000  0.4745180000000 1.0
C      1  0.4798020000000  0.5315370000000  0.5001360000000 1.0
C      1  0.4842390000000  0.4841170000000  0.5248370000000 1.0
C      1  0.4845610000000  0.4837110000000  0.4742950000000 1.0
C      1  0.5459960000000  0.4744020000000  0.4501980000000 1.0
C      1  0.5450580000000  0.4721580000000  0.5488510000000 1.0
C      1  0.5488300000000  0.5580100000000  0.5039650000000 1.0
C      1  0.5456790000000  0.5268270000000  0.4505550000000 1.0
C      1  0.5447220000000  0.5277170000000  0.5492300000000 1.0
C      1  0.5495270000000  0.4425350000000  0.5031790000000 1.0
C      1  0.5010500000000  0.4493550000000  0.4530620000000 1.0
C      1  0.4990510000000  0.4858410000000  0.5683020000000 1.0
C      1  0.5006300000000  0.5630260000000  0.4783460000000 1.0
C      1  0.5004340000000  0.5512890000000  0.4537550000000 1.0
C      1  0.4988860000000  0.5132150000000  0.5684890000000 1.0
C      1  0.5013890000000  0.4372870000000  0.4774900000000 1.0
END
