TITL C-8693-7204-292 9.7967668933206e-07 125000 -368.329180176059 0 0 60 (C1) n - 1
REM
REM in /home/bkarasulu/CARBON/AIRSS/Generating-Clusters/EDIP-Nigel-Params/Higher-Symm/Box-15A/Only-C60/SD-CG/HFTN-CG
REM
REM
REM
REM
REM
REM ./C.cell (414f73aa93bd7a1190c7fd0f31ff2f98)
REM
REM compiler GCC version 9.2.1 20190827 (Red Hat 9.2.1-1)
REM options -cpp -mtune=generic -march=x86-64 -g -O0 -fpre-include=/usr/include/finclude/math-vector-fortran.h
REM seed -419307174 -1943113257 806739464 676546156 1150357362 -1719492191 -127478254 402428622 261735899 -1749092534 -328033508 -814910261 853011575 -1259641896 1432257889 686682129 -1635350514 953676773 -1575575769 1612591479 -1689995221 1010020060 -1185588666 1690786075 -1716366461 -1144641711 -284249623 1334791468 -2012747626 552173530 838684377 -1724185744 449185462
REM
CELL 1.54180   50.00000   50.00000   50.00000   90.00000   90.00000   90.00000
LATT -1
SFAC C  
C      1  0.4963840000000  0.4700820000000  0.5687880000000 1.0
C      1  0.5263700000000  0.5028590000000  0.5566930000000 1.0
C      1  0.4877780000000  0.5206230000000  0.5716770000000 1.0
C      1  0.4896780000000  0.4452440000000  0.5548870000000 1.0
C      1  0.5533860000000  0.5121680000000  0.5473870000000 1.0
C      1  0.4558860000000  0.5465840000000  0.5398000000000 1.0
C      1  0.5163180000000  0.5229070000000  0.5765890000000 1.0
C      1  0.4767050000000  0.4929600000000  0.5673200000000 1.0
C      1  0.5257480000000  0.4752850000000  0.5675180000000 1.0
C      1  0.4763790000000  0.5653720000000  0.5334070000000 1.0
C      1  0.4638980000000  0.4457850000000  0.5430730000000 1.0
C      1  0.5665510000000  0.4923930000000  0.5325120000000 1.0
C      1  0.5446880000000  0.5371470000000  0.5338500000000 1.0
C      1  0.4481520000000  0.5199760000000  0.5296880000000 1.0
C      1  0.5142130000000  0.4401510000000  0.5381050000000 1.0
C      1  0.5690170000000  0.5222190000000  0.4665760000000 1.0
C      1  0.4465080000000  0.5441490000000  0.4646190000000 1.0
C      1  0.4816490000000  0.4211900000000  0.4637670000000 1.0
C      1  0.4854860000000  0.4627150000000  0.4445470000000 1.0
C      1  0.5376570000000  0.5042480000000  0.4406390000000 1.0
C      1  0.4857900000000  0.5369090000000  0.4404410000000 1.0
C      1  0.4549680000000  0.4927630000000  0.5451130000000 1.0
C      1  0.5382710000000  0.4552250000000  0.5484600000000 1.0
C      1  0.5213210000000  0.5490460000000  0.5481970000000 1.0
C      1  0.5525680000000  0.4690610000000  0.5249970000000 1.0
C      1  0.5047040000000  0.5652320000000  0.5279520000000 1.0
C      1  0.4453470000000  0.4652090000000  0.5342420000000 1.0
C      1  0.5092020000000  0.5495640000000  0.5020360000000 1.0
C      1  0.4450190000000  0.4683240000000  0.5050740000000 1.0
C      1  0.5303690000000  0.4744960000000  0.5044450000000 1.0
C      1  0.5005420000000  0.4357380000000  0.4919870000000 1.0
C      1  0.5543180000000  0.5404520000000  0.4844670000000 1.0
C      1  0.4382490000000  0.5203920000000  0.4803710000000 1.0
C      1  0.4861420000000  0.4789030000000  0.5261700000000 1.0
C      1  0.5055800000000  0.5025120000000  0.5314980000000 1.0
C      1  0.4895690000000  0.5268820000000  0.5419660000000 1.0
C      1  0.4702340000000  0.5560230000000  0.4782110000000 1.0
C      1  0.4551740000000  0.4292420000000  0.4591960000000 1.0
C      1  0.5695260000000  0.4948520000000  0.4739140000000 1.0
C      1  0.5343010000000  0.5311330000000  0.5061900000000 1.0
C      1  0.4590490000000  0.5155240000000  0.5021190000000 1.0
C      1  0.5065030000000  0.4561850000000  0.5141850000000 1.0
C      1  0.4431480000000  0.4742000000000  0.4672570000000 1.0
C      1  0.5306080000000  0.4683180000000  0.4749560000000 1.0
C      1  0.5152200000000  0.5641970000000  0.4756170000000 1.0
C      1  0.5123280000000  0.5041550000000  0.4263350000000 1.0
C      1  0.5019410000000  0.5291350000000  0.4188590000000 1.0
C      1  0.4954000000000  0.4822140000000  0.4273680000000 1.0
C      1  0.4576540000000  0.4560090000000  0.4507780000000 1.0
C      1  0.5490540000000  0.4833900000000  0.4581490000000 1.0
C      1  0.4912810000000  0.5606930000000  0.4577370000000 1.0
C      1  0.5214210000000  0.5038390000000  0.5065730000000 1.0
C      1  0.4819370000000  0.5353580000000  0.4961690000000 1.0
C      1  0.4676970000000  0.4864200000000  0.5024530000000 1.0
C      1  0.4577610000000  0.5293600000000  0.4415860000000 1.0
C      1  0.5008880000000  0.4379910000000  0.4479770000000 1.0
C      1  0.5536210000000  0.5280550000000  0.4420160000000 1.0
C      1  0.5407720000000  0.5565700000000  0.4644610000000 1.0
C      1  0.4397360000000  0.5009170000000  0.4587790000000 1.0
C      1  0.5203320000000  0.4414580000000  0.4702610000000 1.0
END
