TITL C-8692-4986-170 -1.24593887860129e-06 125000 -372.40672271042 0 0 60 (C1) n - 1
REM
REM in /home/bkarasulu/CARBON/AIRSS/Generating-Clusters/EDIP-Nigel-Params/Higher-Symm/Box-15A/Only-C60/SD-CG/HFTN-CG
REM
REM
REM
REM
REM
REM ./C.cell (414f73aa93bd7a1190c7fd0f31ff2f98)
REM
REM compiler GCC version 9.2.1 20190827 (Red Hat 9.2.1-1)
REM options -cpp -mtune=generic -march=x86-64 -g -O0 -fpre-include=/usr/include/finclude/math-vector-fortran.h
REM seed 929415393 1016412186 1850324493 884544021 -963058104 -1317722743 1074823658 1576505418 -1595061632 875748064 820357682 -318575932 1304801707 -371341140 335575251 1789949307 -951575293 380517710 1630744014 1015837616 -16669515 -2095922616 -530472800 -86730668 215523465 -1789276716 1564725131 84325473 704173682 -1982453835 598147828 -1259425900 -767508247
REM
CELL 1.54180   50.00000   50.00000   50.00000   90.00000   90.00000   90.00000
LATT -1
SFAC C  
C      1  0.4996130000000  0.5249760000000  0.4587370000000 1.0
C      1  0.5017190000000  0.5140520000000  0.5457800000000 1.0
C      1  0.5080940000000  0.4538410000000  0.4953220000000 1.0
C      1  0.4507780000000  0.5391030000000  0.4608620000000 1.0
C      1  0.4525560000000  0.5085570000000  0.5481050000000 1.0
C      1  0.4598770000000  0.4529830000000  0.4899160000000 1.0
C      1  0.4558850000000  0.5388510000000  0.5062140000000 1.0
C      1  0.4664710000000  0.5109070000000  0.5031510000000 1.0
C      1  0.4619100000000  0.4979190000000  0.4737950000000 1.0
C      1  0.5738020000000  0.4789040000000  0.4792990000000 1.0
C      1  0.5662360000000  0.5284390000000  0.4915520000000 1.0
C      1  0.5731890000000  0.4950530000000  0.5297050000000 1.0
C      1  0.4865130000000  0.5687510000000  0.5182390000000 1.0
C      1  0.4938340000000  0.4617510000000  0.5559250000000 1.0
C      1  0.4921340000000  0.4778850000000  0.4420730000000 1.0
C      1  0.4973940000000  0.5428700000000  0.5556420000000 1.0
C      1  0.4974880000000  0.4353150000000  0.5184660000000 1.0
C      1  0.4963610000000  0.5213340000000  0.4291420000000 1.0
C      1  0.4859270000000  0.4507910000000  0.4491220000000 1.0
C      1  0.4788460000000  0.5653390000000  0.4902730000000 1.0
C      1  0.4825620000000  0.4783120000000  0.5756050000000 1.0
C      1  0.4918940000000  0.4952430000000  0.4682750000000 1.0
C      1  0.4970430000000  0.5098820000000  0.5126180000000 1.0
C      1  0.5061600000000  0.4860070000000  0.4946730000000 1.0
C      1  0.4332130000000  0.5392740000000  0.4861290000000 1.0
C      1  0.4492290000000  0.4934250000000  0.5211160000000 1.0
C      1  0.4450120000000  0.4722430000000  0.4741570000000 1.0
C      1  0.5202990000000  0.4480730000000  0.5539910000000 1.0
C      1  0.5192660000000  0.4802830000000  0.4312470000000 1.0
C      1  0.5155130000000  0.5652990000000  0.5218740000000 1.0
C      1  0.5325180000000  0.5108250000000  0.5521060000000 1.0
C      1  0.5385990000000  0.4462270000000  0.4898290000000 1.0
C      1  0.5289460000000  0.5306610000000  0.4620560000000 1.0
C      1  0.4501560000000  0.5377060000000  0.5368950000000 1.0
C      1  0.4610070000000  0.4652120000000  0.5169250000000 1.0
C      1  0.4514850000000  0.5120040000000  0.4486960000000 1.0
C      1  0.5516000000000  0.4623500000000  0.4674690000000 1.0
C      1  0.5397540000000  0.5405030000000  0.4869730000000 1.0
C      1  0.5508340000000  0.4875800000000  0.5484460000000 1.0
C      1  0.4785920000000  0.5453810000000  0.4690040000000 1.0
C      1  0.4787710000000  0.5029230000000  0.5621650000000 1.0
C      1  0.4856100000000  0.4451220000000  0.4765970000000 1.0
C      1  0.4212050000000  0.4955690000000  0.5091510000000 1.0
C      1  0.4192950000000  0.4774570000000  0.4865550000000 1.0
C      1  0.4159090000000  0.5162180000000  0.4889880000000 1.0
C      1  0.5467600000000  0.5096510000000  0.4496480000000 1.0
C      1  0.5432170000000  0.5333910000000  0.5354630000000 1.0
C      1  0.5544850000000  0.4518390000000  0.5153730000000 1.0
C      1  0.5687670000000  0.5233590000000  0.5211550000000 1.0
C      1  0.5750360000000  0.4728030000000  0.5088190000000 1.0
C      1  0.5710000000000  0.5077420000000  0.4698690000000 1.0
C      1  0.5386600000000  0.4637020000000  0.5376070000000 1.0
C      1  0.5346070000000  0.4827580000000  0.4550170000000 1.0
C      1  0.5231350000000  0.5383410000000  0.5114900000000 1.0
C      1  0.5208160000000  0.5072650000000  0.4206240000000 1.0
C      1  0.5205850000000  0.5604730000000  0.5502470000000 1.0
C      1  0.5164520000000  0.4249580000000  0.5373210000000 1.0
C      1  0.4784040000000  0.4503840000000  0.5343070000000 1.0
C      1  0.4713630000000  0.5062850000000  0.4272590000000 1.0
C      1  0.4736160000000  0.5556510000000  0.5429360000000 1.0
END
