TITL C-8699-7882-294 -6.69089115457044e-07 125000 -362.227881354721 0 0 60 (C1) n - 1
REM
REM in /home/bkarasulu/CARBON/AIRSS/Generating-Clusters/EDIP-Nigel-Params/Higher-Symm/Box-15A/Only-C60/SD-CG/HFTN-CG
REM
REM
REM
REM
REM
REM ./C.cell (414f73aa93bd7a1190c7fd0f31ff2f98)
REM
REM compiler GCC version 9.2.1 20190827 (Red Hat 9.2.1-1)
REM options -cpp -mtune=generic -march=x86-64 -g -O0 -fpre-include=/usr/include/finclude/math-vector-fortran.h
REM seed -146080955 -363803136 -1625642601 -1741576206 -1526671405 -1281256537 1376965183 -1734144513 -854705454 1991236436 -2058327061 832959449 -282720478 -1939935766 593195647 -626749064 1140955862 1535016840 -1819183932 -1708631438 -1649860512 2089159080 -1837106711 529414699 1860432462 -657133790 1827411406 1134559126 788406054 2094554787 -1788344164 -2089933963 2097237701
REM
CELL 1.54180   50.00000   50.00000   50.00000   90.00000   90.00000   90.00000
LATT -1
SFAC C  
C      1  0.5592930000000  0.4519750000000  0.4805930000000 1.0
C      1  0.4532820000000  0.4504150000000  0.4563240000000 1.0
C      1  0.4840930000000  0.4506850000000  0.5614480000000 1.0
C      1  0.4424970000000  0.4505850000000  0.4829970000000 1.0
C      1  0.5582860000000  0.4580780000000  0.4529790000000 1.0
C      1  0.5130700000000  0.4497470000000  0.5603640000000 1.0
C      1  0.5710390000000  0.5115530000000  0.4776620000000 1.0
C      1  0.4445440000000  0.5122380000000  0.4511700000000 1.0
C      1  0.4842750000000  0.5150870000000  0.5741460000000 1.0
C      1  0.4314780000000  0.5107550000000  0.4764120000000 1.0
C      1  0.5551020000000  0.5094930000000  0.4534610000000 1.0
C      1  0.5124260000000  0.5125540000000  0.5723630000000 1.0
C      1  0.5293470000000  0.5228670000000  0.5001620000000 1.0
C      1  0.4860730000000  0.5225720000000  0.4737260000000 1.0
C      1  0.4858110000000  0.5249730000000  0.5269140000000 1.0
C      1  0.4705970000000  0.5314720000000  0.4999560000000 1.0
C      1  0.5151000000000  0.5341360000000  0.4745130000000 1.0
C      1  0.5150540000000  0.5351650000000  0.5260410000000 1.0
C      1  0.4304860000000  0.5112980000000  0.5233470000000 1.0
C      1  0.5521440000000  0.5110820000000  0.5490690000000 1.0
C      1  0.5138300000000  0.5107760000000  0.4291360000000 1.0
C      1  0.5682110000000  0.5108400000000  0.5226840000000 1.0
C      1  0.4463950000000  0.5121930000000  0.5500700000000 1.0
C      1  0.4832080000000  0.5106880000000  0.4289030000000 1.0
C      1  0.5330420000000  0.4450370000000  0.4950150000000 1.0
C      1  0.4853390000000  0.4418170000000  0.4757060000000 1.0
C      1  0.4815150000000  0.4454290000000  0.5251930000000 1.0
C      1  0.4689490000000  0.4491000000000  0.4981190000000 1.0
C      1  0.5130130000000  0.4512300000000  0.4748790000000 1.0
C      1  0.5116850000000  0.4510870000000  0.5269810000000 1.0
C      1  0.5232090000000  0.4757990000000  0.5723980000000 1.0
C      1  0.5514270000000  0.4822330000000  0.4399110000000 1.0
C      1  0.4253970000000  0.4746930000000  0.4875060000000 1.0
C      1  0.4757440000000  0.4776150000000  0.5717940000000 1.0
C      1  0.4507160000000  0.4758460000000  0.4423870000000 1.0
C      1  0.5752240000000  0.4754040000000  0.4895550000000 1.0
C      1  0.4871760000000  0.5732280000000  0.4775580000000 1.0
C      1  0.4875840000000  0.5743150000000  0.5219140000000 1.0
C      1  0.5284650000000  0.5729180000000  0.4994420000000 1.0
C      1  0.5135070000000  0.5637310000000  0.4775010000000 1.0
C      1  0.5138700000000  0.5646650000000  0.5219870000000 1.0
C      1  0.4716180000000  0.5752160000000  0.4998390000000 1.0
C      1  0.5222210000000  0.4835730000000  0.4391150000000 1.0
C      1  0.4391100000000  0.4844460000000  0.5110110000000 1.0
C      1  0.5367200000000  0.4848180000000  0.5484400000000 1.0
C      1  0.4780230000000  0.4846810000000  0.4429800000000 1.0
C      1  0.5584570000000  0.4848440000000  0.5101770000000 1.0
C      1  0.4637730000000  0.4868640000000  0.5473890000000 1.0
C      1  0.4851530000000  0.4950080000000  0.5266820000000 1.0
C      1  0.5296810000000  0.4919170000000  0.5000970000000 1.0
C      1  0.4866640000000  0.4913000000000  0.4716960000000 1.0
C      1  0.5151730000000  0.4818110000000  0.5252250000000 1.0
C      1  0.4685600000000  0.4926230000000  0.5014640000000 1.0
C      1  0.5150330000000  0.4804690000000  0.4709390000000 1.0
C      1  0.4706280000000  0.5302740000000  0.5526450000000 1.0
C      1  0.5592560000000  0.5278740000000  0.4995230000000 1.0
C      1  0.4696040000000  0.5279340000000  0.4490150000000 1.0
C      1  0.5280210000000  0.5280750000000  0.5525520000000 1.0
C      1  0.4407050000000  0.5268940000000  0.4992230000000 1.0
C      1  0.5300940000000  0.5260040000000  0.4497000000000 1.0
END
