TITL C-8694-7203-265 0.000107753646893227 125000 -353.45963455012 0 0 60 (C1) n - 1
REM
REM in /home/bkarasulu/CARBON/AIRSS/Generating-Clusters/EDIP-Nigel-Params/Higher-Symm/Box-15A/Only-C60/SD-CG/HFTN-CG
REM
REM
REM
REM
REM
REM ./C.cell (414f73aa93bd7a1190c7fd0f31ff2f98)
REM
REM compiler GCC version 9.2.1 20190827 (Red Hat 9.2.1-1)
REM options -cpp -mtune=generic -march=x86-64 -g -O0 -fpre-include=/usr/include/finclude/math-vector-fortran.h
REM seed 1807947030 1640909216 636866553 151183243 -1768626007 546748054 -400573137 637775976 -1641246854 1749805687 -1336946432 -765574590 -1790187320 1829767959 -1235923634 -1209167745 338023588 -295881261 538690954 -398406495 480367690 2090820660 36804680 -1989231140 1126402879 1830005937 -861103872 -1564204312 -733377519 -389279928 1972277074 -978896238 1018077970
REM
CELL 1.54180   50.00000   50.00000   50.00000   90.00000   90.00000   90.00000
LATT -1
SFAC C  
C      1  0.5398190000000  0.4760270000000  0.4309760000000 1.0
C      1  0.4807840000000  0.4113770000000  0.5293970000000 1.0
C      1  0.4460930000000  0.5564420000000  0.4768460000000 1.0
C      1  0.4611980000000  0.5146360000000  0.4191370000000 1.0
C      1  0.5308560000000  0.5147970000000  0.5786670000000 1.0
C      1  0.4679850000000  0.4781660000000  0.5777590000000 1.0
C      1  0.5177710000000  0.5586090000000  0.5464860000000 1.0
C      1  0.4848810000000  0.5618830000000  0.4359370000000 1.0
C      1  0.5159360000000  0.4431180000000  0.4681850000000 1.0
C      1  0.5586210000000  0.4801210000000  0.4935460000000 1.0
C      1  0.4391720000000  0.4545770000000  0.5308550000000 1.0
C      1  0.5604640000000  0.5431210000000  0.5131090000000 1.0
C      1  0.5326160000000  0.4757020000000  0.5757890000000 1.0
C      1  0.4776760000000  0.4433320000000  0.4677670000000 1.0
C      1  0.4409730000000  0.5330590000000  0.5071990000000 1.0
C      1  0.4695080000000  0.5173200000000  0.5776790000000 1.0
C      1  0.5496180000000  0.5137610000000  0.4275140000000 1.0
C      1  0.4529690000000  0.4788770000000  0.4328490000000 1.0
C      1  0.5232070000000  0.5611510000000  0.4372080000000 1.0
C      1  0.4798700000000  0.5589280000000  0.5420190000000 1.0
C      1  0.5201850000000  0.4120020000000  0.5266070000000 1.0
C      1  0.5601890000000  0.4572390000000  0.5242500000000 1.0
C      1  0.4364070000000  0.4748560000000  0.4984810000000 1.0
C      1  0.5531990000000  0.5653660000000  0.4822270000000 1.0
C      1  0.4766690000000  0.5147200000000  0.4433050000000 1.0
C      1  0.5130240000000  0.4720020000000  0.4746970000000 1.0
C      1  0.4673450000000  0.4631350000000  0.5284750000000 1.0
C      1  0.5226660000000  0.4876590000000  0.4508770000000 1.0
C      1  0.4736680000000  0.4830520000000  0.5500640000000 1.0
C      1  0.5280280000000  0.5115460000000  0.5503010000000 1.0
C      1  0.4874300000000  0.5399690000000  0.4557820000000 1.0
C      1  0.5163830000000  0.5324970000000  0.5322440000000 1.0
C      1  0.4857820000000  0.4396150000000  0.5287170000000 1.0
C      1  0.5334090000000  0.5345580000000  0.5072450000000 1.0
C      1  0.4732800000000  0.5481280000000  0.4809770000000 1.0
C      1  0.5301210000000  0.4788650000000  0.4989880000000 1.0
C      1  0.4719250000000  0.5120280000000  0.5495660000000 1.0
C      1  0.5142080000000  0.4400550000000  0.5262090000000 1.0
C      1  0.4651680000000  0.4762350000000  0.5015500000000 1.0
C      1  0.5266300000000  0.4826680000000  0.5486070000000 1.0
C      1  0.4687220000000  0.4891760000000  0.4544960000000 1.0
C      1  0.5323040000000  0.5150460000000  0.4504100000000 1.0
C      1  0.4841640000000  0.5317880000000  0.5304760000000 1.0
C      1  0.5183060000000  0.5406080000000  0.4581200000000 1.0
C      1  0.4808330000000  0.4718150000000  0.4758620000000 1.0
C      1  0.5280020000000  0.5516430000000  0.4842450000000 1.0
C      1  0.4696750000000  0.5301710000000  0.5037470000000 1.0
C      1  0.5315620000000  0.4643500000000  0.5253210000000 1.0
C      1  0.5782740000000  0.4739870000000  0.5119380000000 1.0
C      1  0.4661570000000  0.4978780000000  0.5968430000000 1.0
C      1  0.5047760000000  0.5686930000000  0.4182240000000 1.0
C      1  0.4256690000000  0.5523540000000  0.4948150000000 1.0
C      1  0.4463910000000  0.4932050000000  0.4103150000000 1.0
C      1  0.5008180000000  0.3925520000000  0.5284230000000 1.0
C      1  0.5561030000000  0.4905570000000  0.4142430000000 1.0
C      1  0.5346980000000  0.4939800000000  0.5962280000000 1.0
C      1  0.5729110000000  0.5647180000000  0.5013920000000 1.0
C      1  0.4189030000000  0.4690130000000  0.5190030000000 1.0
C      1  0.4968790000000  0.4286830000000  0.4545690000000 1.0
C      1  0.4991190000000  0.5785840000000  0.5432400000000 1.0
END
