TITL C-8699-7882-44 6.19636928318763e-05 125000 -350.577066273477 0 0 60 (C1) n - 1
REM
REM in /home/bkarasulu/CARBON/AIRSS/Generating-Clusters/EDIP-Nigel-Params/Higher-Symm/Box-15A/Only-C60/SD-CG/HFTN-CG
REM
REM
REM
REM
REM
REM ./C.cell (414f73aa93bd7a1190c7fd0f31ff2f98)
REM
REM compiler GCC version 9.2.1 20190827 (Red Hat 9.2.1-1)
REM options -cpp -mtune=generic -march=x86-64 -g -O0 -fpre-include=/usr/include/finclude/math-vector-fortran.h
REM seed 1278489090 -1593490265 -486796769 -1459297817 -82262000 -1596185814 -86059125 1764024868 1963962 420112597 920061984 1964547139 -2057278846 668667558 -798106158 -1602551309 1252540896 950473000 1152374592 -1402937095 -102143897 -1190596913 -665565963 1729795722 117317692 -1593503966 -1657557357 -912877617 1784756432 1834210332 -1057913357 -1192520217 -749858583
REM
CELL 1.54180   50.00000   50.00000   50.00000   90.00000   90.00000   90.00000
LATT -1
SFAC C  
C      1  0.4632740000000  0.4654050000000  0.5589670000000 1.0
C      1  0.5420830000000  0.4961510000000  0.5593710000000 1.0
C      1  0.4901920000000  0.5449810000000  0.5591400000000 1.0
C      1  0.5200230000000  0.5755090000000  0.4951180000000 1.0
C      1  0.4244480000000  0.4771050000000  0.4932190000000 1.0
C      1  0.5572280000000  0.4477870000000  0.4956690000000 1.0
C      1  0.4103560000000  0.4884970000000  0.5148600000000 1.0
C      1  0.5544850000000  0.4300730000000  0.5173800000000 1.0
C      1  0.5377050000000  0.5768430000000  0.5168360000000 1.0
C      1  0.5321460000000  0.5585410000000  0.4734740000000 1.0
C      1  0.4332370000000  0.4982090000000  0.4735200000000 1.0
C      1  0.5357810000000  0.4437910000000  0.4744480000000 1.0
C      1  0.5591430000000  0.4783590000000  0.5026260000000 1.0
C      1  0.4917300000000  0.5637100000000  0.5028280000000 1.0
C      1  0.4491580000000  0.4592890000000  0.5014830000000 1.0
C      1  0.5151400000000  0.5344840000000  0.4733320000000 1.0
C      1  0.4626000000000  0.4956690000000  0.4737070000000 1.0
C      1  0.5224560000000  0.4701940000000  0.4733410000000 1.0
C      1  0.5144440000000  0.5210150000000  0.5204370000000 1.0
C      1  0.4758450000000  0.5011960000000  0.5222170000000 1.0
C      1  0.5087890000000  0.4773670000000  0.5224360000000 1.0
C      1  0.5655510000000  0.4833610000000  0.5310810000000 1.0
C      1  0.4870880000000  0.5703930000000  0.5315360000000 1.0
C      1  0.4446420000000  0.4508420000000  0.5297470000000 1.0
C      1  0.4946490000000  0.4647080000000  0.4828000000000 1.0
C      1  0.5332980000000  0.5128530000000  0.4816970000000 1.0
C      1  0.4726250000000  0.5220620000000  0.4836290000000 1.0
C      1  0.5029220000000  0.5239770000000  0.5460260000000 1.0
C      1  0.4760070000000  0.4873830000000  0.5476570000000 1.0
C      1  0.5202420000000  0.4835780000000  0.5481100000000 1.0
C      1  0.4633950000000  0.4400940000000  0.5472980000000 1.0
C      1  0.5598460000000  0.5098730000000  0.5414160000000 1.0
C      1  0.4683890000000  0.5586370000000  0.5484610000000 1.0
C      1  0.5286520000000  0.5065400000000  0.4385560000000 1.0
C      1  0.4790620000000  0.5223970000000  0.4401710000000 1.0
C      1  0.4906770000000  0.4711030000000  0.4395530000000 1.0
C      1  0.4293900000000  0.5279810000000  0.4765570000000 1.0
C      1  0.5123460000000  0.4249050000000  0.4762420000000 1.0
C      1  0.5599320000000  0.5471300000000  0.4745600000000 1.0
C      1  0.4717330000000  0.4934470000000  0.4449650000000 1.0
C      1  0.5193680000000  0.4787350000000  0.4442080000000 1.0
C      1  0.5078610000000  0.5277910000000  0.4445910000000 1.0
C      1  0.5564570000000  0.5127220000000  0.4585880000000 1.0
C      1  0.4599550000000  0.5431560000000  0.4608510000000 1.0
C      1  0.4832490000000  0.4433980000000  0.4598810000000 1.0
C      1  0.5685610000000  0.5282140000000  0.4968840000000 1.0
C      1  0.4429590000000  0.5422930000000  0.5004960000000 1.0
C      1  0.4921190000000  0.4284650000000  0.4991900000000 1.0
C      1  0.5304750000000  0.4867920000000  0.4972900000000 1.0
C      1  0.4975660000000  0.5339940000000  0.4977620000000 1.0
C      1  0.4719320000000  0.4796150000000  0.4974370000000 1.0
C      1  0.4274320000000  0.5053980000000  0.5272580000000 1.0
C      1  0.5301790000000  0.4344140000000  0.5282150000000 1.0
C      1  0.5473350000000  0.5556140000000  0.5304190000000 1.0
C      1  0.4644730000000  0.5645970000000  0.4875500000000 1.0
C      1  0.4622410000000  0.4357850000000  0.4857570000000 1.0
C      1  0.5743570000000  0.4989320000000  0.4849310000000 1.0
C      1  0.5057950000000  0.4462740000000  0.5212540000000 1.0
C      1  0.5463920000000  0.5282180000000  0.5212490000000 1.0
C      1  0.4505830000000  0.5201550000000  0.5217190000000 1.0
END
