TITL C-8697-8172-276 -1.489315568652e-06 125000 -369.728060213477 0 0 60 (Ci) n - 1
REM
REM in /home/bkarasulu/CARBON/AIRSS/Generating-Clusters/EDIP-Nigel-Params/Higher-Symm/Box-15A/Only-C60/SD-CG/HFTN-CG
REM
REM
REM
REM
REM
REM ./C.cell (414f73aa93bd7a1190c7fd0f31ff2f98)
REM
REM compiler GCC version 9.2.1 20190827 (Red Hat 9.2.1-1)
REM options -cpp -mtune=generic -march=x86-64 -g -O0 -fpre-include=/usr/include/finclude/math-vector-fortran.h
REM seed -39534739 -1372387097 554769303 1959334061 817879525 -1073476170 429021895 453143834 -597729463 1766140047 -104970991 -423357495 -447000312 -1719317554 1612661229 -93303993 -1070735635 -2140708510 170217662 549998190 1413280422 996237107 163135884 563665183 -1235361094 -1637197241 -75172973 249916510 -606881089 -1646866394 1287183603 -1065768807 119497909
REM
CELL 1.54180   50.00000   50.00000   50.00000   90.00000   90.00000   90.00000
LATT -1
SFAC C  
C      1  0.4823820000000  0.4789660000000  0.4423330000000 1.0
C      1  0.5176180000000  0.5210340000000  0.5576670000000 1.0
C      1  0.4895090000000  0.5081920000000  0.4439800000000 1.0
C      1  0.5104910000000  0.4918080000000  0.5560200000000 1.0
C      1  0.5014560000000  0.4386150000000  0.4583940000000 1.0
C      1  0.4985440000000  0.5613850000000  0.5416060000000 1.0
C      1  0.4367100000000  0.5359240000000  0.5030490000000 1.0
C      1  0.5632900000000  0.4640760000000  0.4969510000000 1.0
C      1  0.5273830000000  0.4482630000000  0.5309810000000 1.0
C      1  0.4726170000000  0.5517370000000  0.4690190000000 1.0
C      1  0.4342090000000  0.4891550000000  0.4537740000000 1.0
C      1  0.5657910000000  0.5108450000000  0.5462260000000 1.0
C      1  0.5267760000000  0.4811370000000  0.4628860000000 1.0
C      1  0.4732240000000  0.5188630000000  0.5371140000000 1.0
C      1  0.5593500000000  0.4826530000000  0.5438020000000 1.0
C      1  0.4406500000000  0.5173470000000  0.4561980000000 1.0
C      1  0.4422070000000  0.5162170000000  0.5251860000000 1.0
C      1  0.5577930000000  0.4837830000000  0.4748140000000 1.0
C      1  0.5106160000000  0.5400600000000  0.5043330000000 1.0
C      1  0.4893840000000  0.4599400000000  0.4956670000000 1.0
C      1  0.5586980000000  0.5135720000000  0.4830100000000 1.0
C      1  0.4413020000000  0.4864280000000  0.5169900000000 1.0
C      1  0.5604570000000  0.5279650000000  0.4577650000000 1.0
C      1  0.4395430000000  0.4720350000000  0.5422350000000 1.0
C      1  0.5332550000000  0.5197420000000  0.5087880000000 1.0
C      1  0.4667450000000  0.4802580000000  0.4912120000000 1.0
C      1  0.4698000000000  0.5217780000000  0.4624580000000 1.0
C      1  0.5302000000000  0.4782220000000  0.5375420000000 1.0
C      1  0.4878320000000  0.4349700000000  0.4815820000000 1.0
C      1  0.5121680000000  0.5650300000000  0.5184180000000 1.0
C      1  0.5171310000000  0.4719860000000  0.4922830000000 1.0
C      1  0.4828690000000  0.5280140000000  0.5077170000000 1.0
C      1  0.4143150000000  0.4870310000000  0.4748790000000 1.0
C      1  0.5856850000000  0.5129690000000  0.5251210000000 1.0
C      1  0.4379890000000  0.4455440000000  0.4908140000000 1.0
C      1  0.5620110000000  0.5544560000000  0.5091860000000 1.0
C      1  0.5335850000000  0.5329020000000  0.4523410000000 1.0
C      1  0.4664150000000  0.4670980000000  0.5476590000000 1.0
C      1  0.4986870000000  0.5619180000000  0.4676960000000 1.0
C      1  0.5013130000000  0.4380820000000  0.5323040000000 1.0
C      1  0.4578510000000  0.4726620000000  0.4616770000000 1.0
C      1  0.5421490000000  0.5273380000000  0.5383230000000 1.0
C      1  0.4835870000000  0.4908650000000  0.5439950000000 1.0
C      1  0.5164130000000  0.5091350000000  0.4560050000000 1.0
C      1  0.5075690000000  0.4630440000000  0.4463410000000 1.0
C      1  0.4924310000000  0.5369560000000  0.5536590000000 1.0
C      1  0.4636200000000  0.5493300000000  0.4976980000000 1.0
C      1  0.5363800000000  0.4506700000000  0.5023020000000 1.0
C      1  0.5763360000000  0.5288660000000  0.5025950000000 1.0
C      1  0.4236640000000  0.4711340000000  0.4974050000000 1.0
C      1  0.4735770000000  0.4426620000000  0.5333330000000 1.0
C      1  0.5264230000000  0.5573380000000  0.4666670000000 1.0
C      1  0.4787110000000  0.5071400000000  0.4871140000000 1.0
C      1  0.5212890000000  0.4928600000000  0.5128860000000 1.0
C      1  0.5446990000000  0.5634140000000  0.4881280000000 1.0
C      1  0.4553010000000  0.4365860000000  0.5118720000000 1.0
C      1  0.5762560000000  0.4760940000000  0.5207940000000 1.0
C      1  0.4237440000000  0.5239060000000  0.4792060000000 1.0
C      1  0.5518780000000  0.5551720000000  0.5361560000000 1.0
C      1  0.4481220000000  0.4448280000000  0.4638440000000 1.0
END
