TITL C-8697-8172-141 -0.000767807301028934 125000 -361.55652516729 0 0 60 (C2) n - 1
REM
REM in /home/bkarasulu/CARBON/AIRSS/Generating-Clusters/EDIP-Nigel-Params/Higher-Symm/Box-15A/Only-C60/SD-CG/HFTN-CG
REM
REM
REM
REM
REM
REM ./C.cell (414f73aa93bd7a1190c7fd0f31ff2f98)
REM
REM compiler GCC version 9.2.1 20190827 (Red Hat 9.2.1-1)
REM options -cpp -mtune=generic -march=x86-64 -g -O0 -fpre-include=/usr/include/finclude/math-vector-fortran.h
REM seed -1388958626 -1874390316 1922764989 -87313120 -1452405571 579808043 -1686457220 43821646 -242964345 -1952865522 -462580499 -867736335 -43037240 -1773113507 539292785 -1021035773 -1975408599 -1983417844 1085077929 -798800393 2118047830 20371159 -236993762 -177714486 693455823 1695017545 2010670954 1934941134 -1699909105 954835557 911498422 1979100791 -1596080140
REM
CELL 1.54180   50.00000   50.00000   50.00000   90.00000   90.00000   90.00000
LATT -1
SFAC C  
C      1  0.5220040000000  0.5384540000000  0.5461290000000 1.0
C      1  0.5219850000000  0.4689880000000  0.5514680000000 1.0
C      1  0.5217930000000  0.4419250000000  0.4849650000000 1.0
C      1  0.5220850000000  0.4950410000000  0.4400990000000 1.0
C      1  0.5218400000000  0.5556000000000  0.4773580000000 1.0
C      1  0.4781880000000  0.5444750000000  0.5403390000000 1.0
C      1  0.4779060000000  0.4748110000000  0.5545700000000 1.0
C      1  0.4781740000000  0.4403030000000  0.4942080000000 1.0
C      1  0.4780030000000  0.4885310000000  0.4410200000000 1.0
C      1  0.4780210000000  0.5519540000000  0.4698590000000 1.0
C      1  0.4452310000000  0.4529600000000  0.5268930000000 1.0
C      1  0.4466530000000  0.4598720000000  0.4635920000000 1.0
C      1  0.4452800000000  0.5223200000000  0.4506120000000 1.0
C      1  0.4460860000000  0.5538870000000  0.5058270000000 1.0
C      1  0.4461700000000  0.5110060000000  0.5530620000000 1.0
C      1  0.5533210000000  0.4497910000000  0.5204330000000 1.0
C      1  0.5547460000000  0.4650060000000  0.4586000000000 1.0
C      1  0.5538410000000  0.5285070000000  0.4539250000000 1.0
C      1  0.5539440000000  0.5525880000000  0.5130020000000 1.0
C      1  0.5547280000000  0.5039990000000  0.5540430000000 1.0
C      1  0.5567180000000  0.4840630000000  0.4811130000000 1.0
C      1  0.5564670000000  0.5130560000000  0.4789810000000 1.0
C      1  0.5565140000000  0.5240000000000  0.5059410000000 1.0
C      1  0.5567220000000  0.5017450000000  0.5246360000000 1.0
C      1  0.5563130000000  0.4770130000000  0.5093230000000 1.0
C      1  0.4436760000000  0.4816350000000  0.4833650000000 1.0
C      1  0.4432820000000  0.5101190000000  0.4774620000000 1.0
C      1  0.4435000000000  0.5246130000000  0.5026550000000 1.0
C      1  0.4435380000000  0.5050870000000  0.5242270000000 1.0
C      1  0.4432720000000  0.4785830000000  0.5122810000000 1.0
C      1  0.4574270000000  0.5367430000000  0.5595190000000 1.0
C      1  0.4566020000000  0.4547030000000  0.5533290000000 1.0
C      1  0.4580200000000  0.4353060000000  0.4735190000000 1.0
C      1  0.4565430000000  0.5053330000000  0.4302340000000 1.0
C      1  0.4575230000000  0.5679590000000  0.4834030000000 1.0
C      1  0.5432190000000  0.5285730000000  0.5638200000000 1.0
C      1  0.5421780000000  0.4482190000000  0.5469720000000 1.0
C      1  0.5432770000000  0.4393780000000  0.4651610000000 1.0
C      1  0.5425100000000  0.5142720000000  0.4315530000000 1.0
C      1  0.5427430000000  0.5694870000000  0.4925090000000 1.0
C      1  0.5425990000000  0.5549030000000  0.4566880000000 1.0
C      1  0.5425120000000  0.5581220000000  0.5388930000000 1.0
C      1  0.5434540000000  0.4810590000000  0.5673590000000 1.0
C      1  0.5419420000000  0.4301250000000  0.5026840000000 1.0
C      1  0.5433780000000  0.4757160000000  0.4343660000000 1.0
C      1  0.4568030000000  0.5487510000000  0.4498530000000 1.0
C      1  0.4572940000000  0.5627270000000  0.5308720000000 1.0
C      1  0.4574910000000  0.4899560000000  0.5691950000000 1.0
C      1  0.4566870000000  0.4311300000000  0.5119400000000 1.0
C      1  0.4577990000000  0.4674910000000  0.4381220000000 1.0
C      1  0.4841520000000  0.4875520000000  0.5268640000000 1.0
C      1  0.4842080000000  0.4706330000000  0.4974230000000 1.0
C      1  0.4841850000000  0.4944660000000  0.4709280000000 1.0
C      1  0.4841540000000  0.5254800000000  0.4850030000000 1.0
C      1  0.4842230000000  0.5219520000000  0.5197770000000 1.0
C      1  0.5158100000000  0.4848230000000  0.5254090000000 1.0
C      1  0.5157750000000  0.4715220000000  0.4923480000000 1.0
C      1  0.5158440000000  0.4975110000000  0.4704950000000 1.0
C      1  0.5157900000000  0.5273940000000  0.4889490000000 1.0
C      1  0.5158580000000  0.5187830000000  0.5228250000000 1.0
END
