TITL C-8693-7204-153 0.000177223344634601 125000 -362.098920201268 0 0 60 (C1) n - 1
REM
REM in /home/bkarasulu/CARBON/AIRSS/Generating-Clusters/EDIP-Nigel-Params/Higher-Symm/Box-15A/Only-C60/SD-CG/HFTN-CG
REM
REM
REM
REM
REM
REM ./C.cell (414f73aa93bd7a1190c7fd0f31ff2f98)
REM
REM compiler GCC version 9.2.1 20190827 (Red Hat 9.2.1-1)
REM options -cpp -mtune=generic -march=x86-64 -g -O0 -fpre-include=/usr/include/finclude/math-vector-fortran.h
REM seed -1695612810 109426357 1609287266 1123239681 -1038011721 1052018295 -1881891243 1494884097 -742775583 322597243 -1997096204 471568597 -1136720713 107390595 -291357040 -334710927 -921074037 -1143196882 743897724 -1923215703 -1544482509 -1103477464 122013700 -870333366 851516073 -511463685 -1627981605 1756351652 1628579250 -535102775 -1725372629 -595597762 -789308821
REM
CELL 1.54180   50.00000   50.00000   50.00000   90.00000   90.00000   90.00000
LATT -1
SFAC C  
C      1  0.5392040000000  0.5299090000000  0.5405670000000 1.0
C      1  0.5421290000000  0.4624260000000  0.4549700000000 1.0
C      1  0.4679130000000  0.5533540000000  0.4564600000000 1.0
C      1  0.4695030000000  0.4474980000000  0.5426050000000 1.0
C      1  0.4760990000000  0.4936120000000  0.5603480000000 1.0
C      1  0.4788780000000  0.5065410000000  0.4435860000000 1.0
C      1  0.4801660000000  0.4512610000000  0.4727840000000 1.0
C      1  0.4770050000000  0.5532480000000  0.5270030000000 1.0
C      1  0.4360860000000  0.4898610000000  0.4710830000000 1.0
C      1  0.4301980000000  0.5108200000000  0.5325030000000 1.0
C      1  0.5221370000000  0.4867520000000  0.5767030000000 1.0
C      1  0.5227910000000  0.5160860000000  0.4266490000000 1.0
C      1  0.4241270000000  0.5346730000000  0.4914910000000 1.0
C      1  0.4236610000000  0.4659410000000  0.5109030000000 1.0
C      1  0.4831830000000  0.5699750000000  0.5030340000000 1.0
C      1  0.4833280000000  0.4324330000000  0.4958930000000 1.0
C      1  0.5487720000000  0.5360810000000  0.4671810000000 1.0
C      1  0.5537480000000  0.4601090000000  0.5309780000000 1.0
C      1  0.5068010000000  0.4964320000000  0.4393740000000 1.0
C      1  0.5020970000000  0.5063760000000  0.5716710000000 1.0
C      1  0.5171920000000  0.4748590000000  0.4976210000000 1.0
C      1  0.5074080000000  0.5243290000000  0.5019990000000 1.0
C      1  0.5423860000000  0.5066240000000  0.4702710000000 1.0
C      1  0.5251940000000  0.4856360000000  0.5256060000000 1.0
C      1  0.5106850000000  0.5263420000000  0.5505510000000 1.0
C      1  0.5157030000000  0.4678930000000  0.4417790000000 1.0
C      1  0.4171430000000  0.5072350000000  0.4869510000000 1.0
C      1  0.4145340000000  0.4929700000000  0.5137740000000 1.0
C      1  0.4713570000000  0.5264840000000  0.5160810000000 1.0
C      1  0.4816670000000  0.4790520000000  0.4828040000000 1.0
C      1  0.5504110000000  0.5042170000000  0.5305150000000 1.0
C      1  0.5599310000000  0.4855660000000  0.4572380000000 1.0
C      1  0.4669690000000  0.4370930000000  0.5181000000000 1.0
C      1  0.4675490000000  0.5658070000000  0.4801980000000 1.0
C      1  0.4839870000000  0.4651020000000  0.5585170000000 1.0
C      1  0.4814900000000  0.5360430000000  0.4390100000000 1.0
C      1  0.5131470000000  0.4644650000000  0.5617910000000 1.0
C      1  0.5110240000000  0.5404090000000  0.4362400000000 1.0
C      1  0.4969170000000  0.4487400000000  0.4505290000000 1.0
C      1  0.4953350000000  0.5511240000000  0.5483330000000 1.0
C      1  0.5666850000000  0.5104650000000  0.5063760000000 1.0
C      1  0.5704070000000  0.4858760000000  0.4878980000000 1.0
C      1  0.5308140000000  0.4470650000000  0.5446950000000 1.0
C      1  0.5245090000000  0.5511620000000  0.4602500000000 1.0
C      1  0.5371310000000  0.4544460000000  0.4842180000000 1.0
C      1  0.5333960000000  0.5427740000000  0.5132010000000 1.0
C      1  0.4282560000000  0.5358010000000  0.5187580000000 1.0
C      1  0.4338850000000  0.4652560000000  0.4853460000000 1.0
C      1  0.4594280000000  0.5046050000000  0.5346940000000 1.0
C      1  0.4645360000000  0.4989470000000  0.4687330000000 1.0
C      1  0.5576680000000  0.5376510000000  0.4957540000000 1.0
C      1  0.5604160000000  0.4603740000000  0.5020400000000 1.0
C      1  0.5178160000000  0.4269240000000  0.5300470000000 1.0
C      1  0.5196540000000  0.5766890000000  0.4711860000000 1.0
C      1  0.5103980000000  0.4242900000000  0.5033320000000 1.0
C      1  0.5108210000000  0.5779140000000  0.4978510000000 1.0
C      1  0.5304080000000  0.4261280000000  0.4844400000000 1.0
C      1  0.5292870000000  0.5714510000000  0.5175440000000 1.0
C      1  0.5026410000000  0.5077390000000  0.5277350000000 1.0
C      1  0.5139910000000  0.5010690000000  0.4822110000000 1.0
END
