TITL C-8694-7203-170 7.1699906166712e-07 125000 -326.739148409094 0 0 60 (T23) n - 1
REM
REM in /home/bkarasulu/CARBON/AIRSS/Generating-Clusters/EDIP-Nigel-Params/Higher-Symm/Box-15A/Only-C60/SD-CG/HFTN-CG
REM
REM
REM
REM
REM
REM ./C.cell (414f73aa93bd7a1190c7fd0f31ff2f98)
REM
REM compiler GCC version 9.2.1 20190827 (Red Hat 9.2.1-1)
REM options -cpp -mtune=generic -march=x86-64 -g -O0 -fpre-include=/usr/include/finclude/math-vector-fortran.h
REM seed 1517983311 -1865402695 764391968 -271519552 1094423432 -972626950 -784833293 1908645360 -1333716168 -1536283792 379997590 1334573514 1725215678 1650603110 -701541635 -1187520605 170301515 138613005 54653038 28156730 -773609236 -96700621 1156173599 1543227365 1422710500 871711831 -992530647 -1312100013 -1025157351 658759472 -330788141 1965329868 -6499391
REM
CELL 1.54180   50.00000   50.00000   50.00000   90.00000   90.00000   90.00000
LATT -1
SFAC C  
C      1  0.5043470000000  0.5545330000000  0.4660470000000 1.0
C      1  0.4660480000000  0.5043480000000  0.5545340000000 1.0
C      1  0.5545340000000  0.4660490000000  0.5043480000000 1.0
C      1  0.4956530000000  0.4454650000000  0.4660500000000 1.0
C      1  0.4956520000000  0.5545350000000  0.5339500000000 1.0
C      1  0.5043470000000  0.4454670000000  0.5339530000000 1.0
C      1  0.5339510000000  0.4956540000000  0.5545340000000 1.0
C      1  0.5339520000000  0.5043460000000  0.4454660000000 1.0
C      1  0.4660490000000  0.4956510000000  0.4454660000000 1.0
C      1  0.4454660000000  0.5339510000000  0.5043460000000 1.0
C      1  0.4454660000000  0.4660480000000  0.4956540000000 1.0
C      1  0.5545340000000  0.5339520000000  0.4956520000000 1.0
C      1  0.5067160000000  0.5470740000000  0.5699920000000 1.0
C      1  0.5699930000000  0.5067180000000  0.5470730000000 1.0
C      1  0.5470720000000  0.5699930000000  0.5067150000000 1.0
C      1  0.4932840000000  0.4529290000000  0.5699940000000 1.0
C      1  0.4932840000000  0.5470710000000  0.4300060000000 1.0
C      1  0.5067170000000  0.4529260000000  0.4300080000000 1.0
C      1  0.4300070000000  0.4932840000000  0.5470730000000 1.0
C      1  0.4300070000000  0.5067150000000  0.4529270000000 1.0
C      1  0.5699930000000  0.4932830000000  0.4529280000000 1.0
C      1  0.4529280000000  0.4300070000000  0.5067180000000 1.0
C      1  0.4529270000000  0.5699930000000  0.4932820000000 1.0
C      1  0.5470730000000  0.4300070000000  0.4932850000000 1.0
C      1  0.4894470000000  0.5109570000000  0.5378790000000 1.0
C      1  0.5378800000000  0.4894480000000  0.5109570000000 1.0
C      1  0.5109560000000  0.5378800000000  0.4894470000000 1.0
C      1  0.5105520000000  0.4890450000000  0.5378800000000 1.0
C      1  0.5105520000000  0.5109550000000  0.4621200000000 1.0
C      1  0.4894480000000  0.4890430000000  0.4621200000000 1.0
C      1  0.4621200000000  0.5105520000000  0.5109560000000 1.0
C      1  0.4621200000000  0.4894470000000  0.4890440000000 1.0
C      1  0.5378800000000  0.5105520000000  0.4890440000000 1.0
C      1  0.4890440000000  0.4621200000000  0.4894490000000 1.0
C      1  0.4890440000000  0.5378800000000  0.5105510000000 1.0
C      1  0.5109560000000  0.4621210000000  0.5105530000000 1.0
C      1  0.4411630000000  0.4839060000000  0.4417970000000 1.0
C      1  0.4417970000000  0.4411620000000  0.4839090000000 1.0
C      1  0.4839080000000  0.4417960000000  0.4411640000000 1.0
C      1  0.5588370000000  0.5160920000000  0.4417970000000 1.0
C      1  0.5588370000000  0.4839090000000  0.5582040000000 1.0
C      1  0.4411630000000  0.5160940000000  0.5582020000000 1.0
C      1  0.5582030000000  0.5588370000000  0.4839060000000 1.0
C      1  0.5582030000000  0.4411640000000  0.5160940000000 1.0
C      1  0.4417970000000  0.5588370000000  0.5160910000000 1.0
C      1  0.5160930000000  0.5582020000000  0.4411620000000 1.0
C      1  0.5160930000000  0.4417990000000  0.5588380000000 1.0
C      1  0.4839070000000  0.5582040000000  0.5588350000000 1.0
C      1  0.4438480000000  0.5311490000000  0.4601170000000 1.0
C      1  0.4601180000000  0.4438490000000  0.5311520000000 1.0
C      1  0.5311510000000  0.4601160000000  0.4438490000000 1.0
C      1  0.5561520000000  0.4688490000000  0.4601180000000 1.0
C      1  0.5561520000000  0.5311520000000  0.5398820000000 1.0
C      1  0.4438480000000  0.4688500000000  0.5398830000000 1.0
C      1  0.5398820000000  0.5561530000000  0.5311490000000 1.0
C      1  0.5398830000000  0.4438470000000  0.4688510000000 1.0
C      1  0.4601170000000  0.5561510000000  0.4688480000000 1.0
C      1  0.4688490000000  0.5398810000000  0.4438470000000 1.0
C      1  0.4688490000000  0.4601190000000  0.5561530000000 1.0
C      1  0.5311500000000  0.5398840000000  0.5561510000000 1.0
END
