TITL C-8694-7203-257 -4.77628187299679e-07 125000 -391.467711235593 0 0 60 (Ih) n - 1
REM
REM in /home/bkarasulu/CARBON/AIRSS/Generating-Clusters/EDIP-Nigel-Params/Higher-Symm/Box-15A/Only-C60/SD-CG/HFTN-CG
REM
REM
REM
REM
REM
REM ./C.cell (414f73aa93bd7a1190c7fd0f31ff2f98)
REM
REM compiler GCC version 9.2.1 20190827 (Red Hat 9.2.1-1)
REM options -cpp -mtune=generic -march=x86-64 -g -O0 -fpre-include=/usr/include/finclude/math-vector-fortran.h
REM seed 1260383280 -1661566265 -28940825 -1189942591 -1770139450 762253174 -1679354238 235758549 -248601220 880746388 -738038384 -136880188 -761326345 -480138524 -526019433 -939909681 -107677507 -1917373527 -825956805 1059258544 -317855617 103651148 -39577932 -117991262 -161569150 986906176 2125692232 -1272505837 800782048 -684775265 1611969233 424773144 524267199
REM
CELL 1.54180   50.00000   50.00000   50.00000   90.00000   90.00000   90.00000
LATT -1
SFAC C  
C      1  0.5518110000000  0.4873430000000  0.5509860000000 1.0
C      1  0.5718880000000  0.5126420000000  0.5107900000000 1.0
C      1  0.5644980000000  0.4873270000000  0.4664790000000 1.0
C      1  0.5324800000000  0.5126380000000  0.4349650000000 1.0
C      1  0.4880470000000  0.4873360000000  0.4283000000000 1.0
C      1  0.4481890000000  0.5126570000000  0.4490140000000 1.0
C      1  0.4281120000000  0.4873580000000  0.4892100000000 1.0
C      1  0.4355020000000  0.5126730000000  0.5335210000000 1.0
C      1  0.4675200000000  0.4873620000000  0.5650350000000 1.0
C      1  0.5119530000000  0.5126640000000  0.5717000000000 1.0
C      1  0.5253120000000  0.5692920000000  0.4985360000000 1.0
C      1  0.5195990000000  0.4306970000000  0.4839660000000 1.0
C      1  0.5064500000000  0.5692920000000  0.4754800000000 1.0
C      1  0.4907880000000  0.4307010000000  0.4764000000000 1.0
C      1  0.4786930000000  0.5692990000000  0.4862940000000 1.0
C      1  0.4746880000000  0.4307080000000  0.5014640000000 1.0
C      1  0.4804010000000  0.5693030000000  0.5160340000000 1.0
C      1  0.4935500000000  0.4307080000000  0.5245200000000 1.0
C      1  0.5092120000000  0.5692990000000  0.5236000000000 1.0
C      1  0.5213070000000  0.4307010000000  0.5137060000000 1.0
C      1  0.4618300000000  0.4620210000000  0.5504460000000 1.0
C      1  0.4987810000000  0.5380050000000  0.5632320000000 1.0
C      1  0.5361710000000  0.4620070000000  0.5518880000000 1.0
C      1  0.5597720000000  0.5379860000000  0.5207020000000 1.0
C      1  0.5605150000000  0.4619910000000  0.4816310000000 1.0
C      1  0.5381700000000  0.5379790000000  0.4495540000000 1.0
C      1  0.5012190000000  0.4619950000000  0.4367680000000 1.0
C      1  0.4638290000000  0.5379930000000  0.4481120000000 1.0
C      1  0.4402280000000  0.4620140000000  0.4792980000000 1.0
C      1  0.4394850000000  0.5380090000000  0.5183690000000 1.0
C      1  0.5436920000000  0.5379930000000  0.5457350000000 1.0
C      1  0.5622200000000  0.4619950000000  0.5113340000000 1.0
C      1  0.5570090000000  0.5379790000000  0.4725820000000 1.0
C      1  0.5299960000000  0.4619910000000  0.4443250000000 1.0
C      1  0.4915520000000  0.5379860000000  0.4373110000000 1.0
C      1  0.4563080000000  0.4620070000000  0.4542650000000 1.0
C      1  0.4377800000000  0.5380050000000  0.4886660000000 1.0
C      1  0.4429910000000  0.4620210000000  0.5274180000000 1.0
C      1  0.4700040000000  0.5380090000000  0.5556750000000 1.0
C      1  0.5084480000000  0.4620140000000  0.5626890000000 1.0
C      1  0.5456360000000  0.4873270000000  0.4434230000000 1.0
C      1  0.5036680000000  0.5126420000000  0.4273990000000 1.0
C      1  0.4602910000000  0.4873430000000  0.4391140000000 1.0
C      1  0.4320900000000  0.5126640000000  0.4740770000000 1.0
C      1  0.4298190000000  0.4873620000000  0.5189500000000 1.0
C      1  0.4543640000000  0.5126730000000  0.5565770000000 1.0
C      1  0.4963320000000  0.4873580000000  0.5726010000000 1.0
C      1  0.5397090000000  0.5126570000000  0.5608860000000 1.0
C      1  0.5679100000000  0.4873360000000  0.5259230000000 1.0
C      1  0.5701810000000  0.5126380000000  0.4810500000000 1.0
C      1  0.4608090000000  0.5536680000000  0.5320620000000 1.0
C      1  0.4871250000000  0.4463550000000  0.5489960000000 1.0
C      1  0.5183970000000  0.5536590000000  0.5471850000000 1.0
C      1  0.5426040000000  0.4463410000000  0.5273820000000 1.0
C      1  0.5505760000000  0.5536450000000  0.4970880000000 1.0
C      1  0.5391910000000  0.4463320000000  0.4679380000000 1.0
C      1  0.5128750000000  0.5536450000000  0.4510040000000 1.0
C      1  0.4816030000000  0.4463410000000  0.4528150000000 1.0
C      1  0.4573960000000  0.5536590000000  0.4726180000000 1.0
C      1  0.4494240000000  0.4463550000000  0.5029120000000 1.0
END
