TITL C-8696-5006-60 -0.00384018449222159 125000 -363.980449931824 0 0 60 (C1) n - 1
REM
REM in /home/bkarasulu/CARBON/AIRSS/Generating-Clusters/EDIP-Nigel-Params/Higher-Symm/Box-15A/Only-C60/SD-CG/HFTN-CG
REM
REM
REM
REM
REM
REM ./C.cell (414f73aa93bd7a1190c7fd0f31ff2f98)
REM
REM compiler GCC version 9.2.1 20190827 (Red Hat 9.2.1-1)
REM options -cpp -mtune=generic -march=x86-64 -g -O0 -fpre-include=/usr/include/finclude/math-vector-fortran.h
REM seed -783752036 -1024129565 -465613960 -1141187966 -495122292 1332312734 -1089588200 -1230097788 1605344400 1809763887 71091260 -1172306003 1030140190 -249614378 -1044820549 -1858944363 402094249 1329387261 -63953807 -406976334 1469325059 -999239245 -171220318 851281118 179208397 1902468172 -753128450 2119161457 851652332 -799721614 -1711604175 179329786 2122001071
REM
CELL 1.54180   50.00000   50.00000   50.00000   90.00000   90.00000   90.00000
LATT -1
SFAC C  
C      1  0.5177400000000  0.5653380000000  0.4798170000000 1.0
C      1  0.5223290000000  0.5645230000000  0.5116070000000 1.0
C      1  0.4964270000000  0.5545020000000  0.5213460000000 1.0
C      1  0.4745850000000  0.5658650000000  0.5051260000000 1.0
C      1  0.4868690000000  0.5646640000000  0.4760720000000 1.0
C      1  0.5179360000000  0.5965350000000  0.4808670000000 1.0
C      1  0.5214970000000  0.5962180000000  0.5117070000000 1.0
C      1  0.4974410000000  0.6062330000000  0.5231710000000 1.0
C      1  0.4776130000000  0.5970390000000  0.5049100000000 1.0
C      1  0.4890710000000  0.6028560000000  0.4782320000000 1.0
C      1  0.5698130000000  0.4542970000000  0.4753690000000 1.0
C      1  0.5587810000000  0.4583650000000  0.5513290000000 1.0
C      1  0.4594450000000  0.4538760000000  0.5706430000000 1.0
C      1  0.4273260000000  0.4546950000000  0.4739580000000 1.0
C      1  0.4881310000000  0.4568340000000  0.4265160000000 1.0
C      1  0.5376940000000  0.5364840000000  0.5479910000000 1.0
C      1  0.4654160000000  0.5364490000000  0.5521110000000 1.0
C      1  0.4407960000000  0.5374760000000  0.4840330000000 1.0
C      1  0.4969290000000  0.5350990000000  0.4389890000000 1.0
C      1  0.5566750000000  0.5363990000000  0.4787320000000 1.0
C      1  0.5112130000000  0.4287200000000  0.4792630000000 1.0
C      1  0.5237420000000  0.4286810000000  0.5058210000000 1.0
C      1  0.5025910000000  0.4304080000000  0.5263900000000 1.0
C      1  0.4765880000000  0.4301860000000  0.5124400000000 1.0
C      1  0.4821010000000  0.4285710000000  0.4836600000000 1.0
C      1  0.5478070000000  0.4529820000000  0.4590880000000 1.0
C      1  0.5643170000000  0.4500600000000  0.5253210000000 1.0
C      1  0.4860150000000  0.4533030000000  0.5657700000000 1.0
C      1  0.4363640000000  0.4535250000000  0.4994610000000 1.0
C      1  0.4660090000000  0.4502710000000  0.4420860000000 1.0
C      1  0.4698270000000  0.4529330000000  0.4717700000000 1.0
C      1  0.5204040000000  0.4534350000000  0.4640490000000 1.0
C      1  0.5410630000000  0.4529450000000  0.5065680000000 1.0
C      1  0.5061310000000  0.4539190000000  0.5449270000000 1.0
C      1  0.4586350000000  0.4539870000000  0.5179560000000 1.0
C      1  0.5452000000000  0.5478130000000  0.5234290000000 1.0
C      1  0.4917250000000  0.5454900000000  0.5483500000000 1.0
C      1  0.4490960000000  0.5488150000000  0.5081100000000 1.0
C      1  0.4766700000000  0.5460930000000  0.4545900000000 1.0
C      1  0.5360600000000  0.5471210000000  0.4634290000000 1.0
C      1  0.5547620000000  0.5272900000000  0.5049740000000 1.0
C      1  0.5127330000000  0.5266600000000  0.5562210000000 1.0
C      1  0.4516050000000  0.5280240000000  0.5290870000000 1.0
C      1  0.4574100000000  0.5267480000000  0.4644250000000 1.0
C      1  0.5213140000000  0.5263510000000  0.4491560000000 1.0
C      1  0.4497510000000  0.4535240000000  0.5454560000000 1.0
C      1  0.4380780000000  0.4558410000000  0.4483730000000 1.0
C      1  0.5129930000000  0.4535840000000  0.4372170000000 1.0
C      1  0.5798260000000  0.4560460000000  0.5012370000000 1.0
C      1  0.5325690000000  0.4542070000000  0.5561430000000 1.0
C      1  0.4750520000000  0.4800300000000  0.5126380000000 1.0
C      1  0.4813020000000  0.4797680000000  0.4820380000000 1.0
C      1  0.5122120000000  0.4798200000000  0.4781400000000 1.0
C      1  0.5255720000000  0.4798350000000  0.5062630000000 1.0
C      1  0.5029140000000  0.4796170000000  0.5280740000000 1.0
C      1  0.5212280000000  0.5017240000000  0.4621480000000 1.0
C      1  0.5435160000000  0.5020690000000  0.5092770000000 1.0
C      1  0.5058890000000  0.5016030000000  0.5460610000000 1.0
C      1  0.4588790000000  0.5027710000000  0.5194110000000 1.0
C      1  0.4683240000000  0.5014850000000  0.4686560000000 1.0
END
