TITL C-8697-8172-45 -7.40598946917637e-06 125000 -358.630046845147 0 0 60 (C1) n - 1
REM
REM in /home/bkarasulu/CARBON/AIRSS/Generating-Clusters/EDIP-Nigel-Params/Higher-Symm/Box-15A/Only-C60/SD-CG/HFTN-CG
REM
REM
REM
REM
REM
REM ./C.cell (414f73aa93bd7a1190c7fd0f31ff2f98)
REM
REM compiler GCC version 9.2.1 20190827 (Red Hat 9.2.1-1)
REM options -cpp -mtune=generic -march=x86-64 -g -O0 -fpre-include=/usr/include/finclude/math-vector-fortran.h
REM seed -1702616062 1467307265 -1433316131 2042639856 -742769676 1279180098 -276485394 1444570505 -1116450654 -957360982 -395461139 -193096827 -1128485580 1184050228 -1509059486 -79346912 1931703907 609376736 409419264 -696062350 -176529091 -1285583387 -707847945 407953554 -580890904 -1132733916 1487031481 -1932674318 -2094998419 -437241911 242556844 1968367207 -1970482720
REM
CELL 1.54180   50.00000   50.00000   50.00000   90.00000   90.00000   90.00000
LATT -1
SFAC C  
C      1  0.4968480000000  0.5658500000000  0.5092820000000 1.0
C      1  0.5509000000000  0.4735180000000  0.5083310000000 1.0
C      1  0.4533610000000  0.4676460000000  0.5088450000000 1.0
C      1  0.4972760000000  0.4344190000000  0.4905420000000 1.0
C      1  0.5504750000000  0.5269060000000  0.4912140000000 1.0
C      1  0.4531560000000  0.5321300000000  0.4912910000000 1.0
C      1  0.5065160000000  0.4483820000000  0.5590810000000 1.0
C      1  0.4592390000000  0.5170190000000  0.5597450000000 1.0
C      1  0.5333160000000  0.5287060000000  0.5569320000000 1.0
C      1  0.5058270000000  0.5517580000000  0.4406600000000 1.0
C      1  0.4589770000000  0.4828310000000  0.4403100000000 1.0
C      1  0.5331920000000  0.4715670000000  0.4427150000000 1.0
C      1  0.4744800000000  0.4807990000000  0.5255910000000 1.0
C      1  0.4966430000000  0.5433250000000  0.5293100000000 1.0
C      1  0.5282470000000  0.4854770000000  0.5249030000000 1.0
C      1  0.4742920000000  0.5191240000000  0.4744550000000 1.0
C      1  0.4967200000000  0.4568640000000  0.4705010000000 1.0
C      1  0.5279060000000  0.5147470000000  0.4748880000000 1.0
C      1  0.5127770000000  0.5252010000000  0.4317950000000 1.0
C      1  0.5072100000000  0.4718940000000  0.4307360000000 1.0
C      1  0.4818520000000  0.5013530000000  0.4317760000000 1.0
C      1  0.5133210000000  0.4749600000000  0.5679900000000 1.0
C      1  0.5073870000000  0.5282700000000  0.5690050000000 1.0
C      1  0.4822520000000  0.4986160000000  0.5681810000000 1.0
C      1  0.5015050000000  0.5285380000000  0.4859910000000 1.0
C      1  0.5180600000000  0.4856450000000  0.4817340000000 1.0
C      1  0.4837070000000  0.4864020000000  0.4828000000000 1.0
C      1  0.5017480000000  0.4717010000000  0.5139730000000 1.0
C      1  0.5179290000000  0.5144220000000  0.5180880000000 1.0
C      1  0.4837340000000  0.5135350000000  0.5171890000000 1.0
C      1  0.5494150000000  0.5068100000000  0.5627120000000 1.0
C      1  0.4787080000000  0.4478990000000  0.5615330000000 1.0
C      1  0.4636150000000  0.5441740000000  0.5653310000000 1.0
C      1  0.5491080000000  0.4936050000000  0.4369820000000 1.0
C      1  0.4779990000000  0.5520230000000  0.4384020000000 1.0
C      1  0.4635200000000  0.4557170000000  0.4346650000000 1.0
C      1  0.5211460000000  0.5665950000000  0.4928710000000 1.0
C      1  0.5424340000000  0.4503310000000  0.4923590000000 1.0
C      1  0.4405640000000  0.4872690000000  0.4924140000000 1.0
C      1  0.5216850000000  0.4338340000000  0.5067490000000 1.0
C      1  0.5417700000000  0.5499340000000  0.5071510000000 1.0
C      1  0.4405430000000  0.5124440000000  0.5077820000000 1.0
C      1  0.4903620000000  0.5483480000000  0.5583650000000 1.0
C      1  0.5354590000000  0.4844290000000  0.5535680000000 1.0
C      1  0.4711620000000  0.4744430000000  0.5543260000000 1.0
C      1  0.4903390000000  0.4517390000000  0.4414770000000 1.0
C      1  0.5349880000000  0.5158580000000  0.4461910000000 1.0
C      1  0.4707130000000  0.5254410000000  0.4457360000000 1.0
C      1  0.5175260000000  0.5619520000000  0.4646490000000 1.0
C      1  0.5397170000000  0.4538030000000  0.4639200000000 1.0
C      1  0.4445770000000  0.4874010000000  0.4641950000000 1.0
C      1  0.5182000000000  0.4382880000000  0.5350330000000 1.0
C      1  0.5396340000000  0.5464140000000  0.5356290000000 1.0
C      1  0.4446810000000  0.5123560000000  0.5359790000000 1.0
C      1  0.4547010000000  0.4410780000000  0.5009170000000 1.0
C      1  0.4730920000000  0.5777640000000  0.5004590000000 1.0
C      1  0.5757270000000  0.4856550000000  0.5037400000000 1.0
C      1  0.4542960000000  0.5587310000000  0.4991480000000 1.0
C      1  0.4736970000000  0.4222570000000  0.4994870000000 1.0
C      1  0.5717730000000  0.5118030000000  0.5003780000000 1.0
END
