TITL C-8699-7882-142 -6.57834681103026e-06 125000 -362.657639186901 0 0 60 (C1) n - 1
REM
REM in /home/bkarasulu/CARBON/AIRSS/Generating-Clusters/EDIP-Nigel-Params/Higher-Symm/Box-15A/Only-C60/SD-CG/HFTN-CG
REM
REM
REM
REM
REM
REM ./C.cell (414f73aa93bd7a1190c7fd0f31ff2f98)
REM
REM compiler GCC version 9.2.1 20190827 (Red Hat 9.2.1-1)
REM options -cpp -mtune=generic -march=x86-64 -g -O0 -fpre-include=/usr/include/finclude/math-vector-fortran.h
REM seed -1835545993 -2103529006 -692622934 145050287 -147704842 2067347801 429263050 -61661288 -169973127 281494726 619778394 -1034420344 -751362184 334790444 -1758535868 -1340125259 -1825824730 1903312759 -1984158504 -1994576197 -204321891 1855169693 -2000127004 1077047537 1802757166 -1912560752 -1585917370 9106838 1854258274 521435144 -1244590420 -1592881491 1610977341
REM
CELL 1.54180   50.00000   50.00000   50.00000   90.00000   90.00000   90.00000
LATT -1
SFAC C  
C      1  0.5691340000000  0.4689530000000  0.4862380000000 1.0
C      1  0.5572660000000  0.5208020000000  0.5110620000000 1.0
C      1  0.5679190000000  0.5220640000000  0.4835230000000 1.0
C      1  0.5564400000000  0.4717050000000  0.5128260000000 1.0
C      1  0.5169830000000  0.4896640000000  0.5191710000000 1.0
C      1  0.4987850000000  0.5246120000000  0.4848860000000 1.0
C      1  0.5036500000000  0.5383810000000  0.5319880000000 1.0
C      1  0.5147550000000  0.4728440000000  0.4650360000000 1.0
C      1  0.4331690000000  0.5375480000000  0.4669790000000 1.0
C      1  0.4429530000000  0.4678990000000  0.5345420000000 1.0
C      1  0.4390810000000  0.4608840000000  0.4570420000000 1.0
C      1  0.4394510000000  0.5360500000000  0.5400530000000 1.0
C      1  0.4570820000000  0.5362110000000  0.4476880000000 1.0
C      1  0.4653130000000  0.4705760000000  0.5537900000000 1.0
C      1  0.4668030000000  0.4546400000000  0.4487620000000 1.0
C      1  0.4615570000000  0.5251960000000  0.5577620000000 1.0
C      1  0.5337270000000  0.5263960000000  0.5539640000000 1.0
C      1  0.5398340000000  0.4662660000000  0.4495540000000 1.0
C      1  0.5332020000000  0.4690990000000  0.5552790000000 1.0
C      1  0.5320170000000  0.5148830000000  0.4560100000000 1.0
C      1  0.4208100000000  0.5141660000000  0.5385990000000 1.0
C      1  0.4328770000000  0.4894920000000  0.4486840000000 1.0
C      1  0.4356980000000  0.4950990000000  0.5237860000000 1.0
C      1  0.4282960000000  0.5077390000000  0.4720600000000 1.0
C      1  0.5498770000000  0.5382790000000  0.4656980000000 1.0
C      1  0.5446840000000  0.4527390000000  0.5329740000000 1.0
C      1  0.5550750000000  0.4486810000000  0.4692980000000 1.0
C      1  0.5477730000000  0.5415010000000  0.5296820000000 1.0
C      1  0.4865870000000  0.5416140000000  0.5590540000000 1.0
C      1  0.4910940000000  0.4726560000000  0.4449290000000 1.0
C      1  0.5036090000000  0.4691460000000  0.5614970000000 1.0
C      1  0.4856220000000  0.5412440000000  0.4526290000000 1.0
C      1  0.4369720000000  0.5519770000000  0.4910500000000 1.0
C      1  0.4516990000000  0.4532070000000  0.5097300000000 1.0
C      1  0.4360700000000  0.4568580000000  0.4857600000000 1.0
C      1  0.4519810000000  0.5422200000000  0.5127800000000 1.0
C      1  0.4605800000000  0.5055360000000  0.4790440000000 1.0
C      1  0.4768210000000  0.4669260000000  0.5058880000000 1.0
C      1  0.4727060000000  0.4777680000000  0.4789890000000 1.0
C      1  0.4622710000000  0.5141010000000  0.5088260000000 1.0
C      1  0.5379800000000  0.5663030000000  0.5184720000000 1.0
C      1  0.5353180000000  0.4342540000000  0.4861170000000 1.0
C      1  0.5242940000000  0.4350920000000  0.5228120000000 1.0
C      1  0.5365050000000  0.5591090000000  0.4806640000000 1.0
C      1  0.5094330000000  0.5626540000000  0.5157460000000 1.0
C      1  0.5119020000000  0.4509570000000  0.4839320000000 1.0
C      1  0.5056040000000  0.4595990000000  0.5118250000000 1.0
C      1  0.5088400000000  0.5540270000000  0.4876080000000 1.0
C      1  0.4579130000000  0.5075360000000  0.4392670000000 1.0
C      1  0.4718010000000  0.4985130000000  0.5490450000000 1.0
C      1  0.4861080000000  0.4992780000000  0.4335850000000 1.0
C      1  0.5000720000000  0.4977560000000  0.5539030000000 1.0
C      1  0.5602070000000  0.4965590000000  0.5253350000000 1.0
C      1  0.5722330000000  0.4947750000000  0.4695310000000 1.0
C      1  0.5522860000000  0.4930760000000  0.4465790000000 1.0
C      1  0.5439320000000  0.4972040000000  0.5489190000000 1.0
C      1  0.5044320000000  0.5216410000000  0.4410290000000 1.0
C      1  0.5075470000000  0.5229980000000  0.5718670000000 1.0
C      1  0.4936330000000  0.5154370000000  0.5140290000000 1.0
C      1  0.5202620000000  0.5007370000000  0.4819060000000 1.0
END
