TITL C-8692-4986-95 -6.00774553437384e-07 125000 -370.305527302116 0 0 60 (Ci) n - 1
REM
REM in /home/bkarasulu/CARBON/AIRSS/Generating-Clusters/EDIP-Nigel-Params/Higher-Symm/Box-15A/Only-C60/SD-CG/HFTN-CG
REM
REM
REM
REM
REM
REM ./C.cell (414f73aa93bd7a1190c7fd0f31ff2f98)
REM
REM compiler GCC version 9.2.1 20190827 (Red Hat 9.2.1-1)
REM options -cpp -mtune=generic -march=x86-64 -g -O0 -fpre-include=/usr/include/finclude/math-vector-fortran.h
REM seed -1219608543 1953160615 1664554153 -1203267922 1771480751 320141581 -1674755578 291100304 -51414287 418732592 -1177620705 -1796618280 -759453827 542749481 524993963 2014198870 1418576805 -1341285394 -1410062885 2026481024 1013655952 -1469389144 1094457447 690683875 1848478980 784078189 -839637053 -1076568582 377021064 483714538 1997052602 -1014534688 -1001620083
REM
CELL 1.54180   50.00000   50.00000   50.00000   90.00000   90.00000   90.00000
LATT -1
SFAC C  
C      1  0.4834740000000  0.4623520000000  0.5416280000000 1.0
C      1  0.4880520000000  0.5377760000000  0.4619530000000 1.0
C      1  0.5119480000000  0.4622240000000  0.5380470000000 1.0
C      1  0.5165260000000  0.5376480000000  0.4583720000000 1.0
C      1  0.5709520000000  0.4875090000000  0.4616540000000 1.0
C      1  0.5689620000000  0.5117710000000  0.5380060000000 1.0
C      1  0.4310380000000  0.4882290000000  0.4619940000000 1.0
C      1  0.4290480000000  0.5124910000000  0.5383460000000 1.0
C      1  0.4689610000000  0.4388500000000  0.4815810000000 1.0
C      1  0.4651890000000  0.5649100000000  0.5213060000000 1.0
C      1  0.5348110000000  0.4350900000000  0.4786940000000 1.0
C      1  0.5310390000000  0.5611500000000  0.5184190000000 1.0
C      1  0.5159410000000  0.4956300000000  0.4855860000000 1.0
C      1  0.5154530000000  0.5052900000000  0.5145150000000 1.0
C      1  0.4845470000000  0.4947100000000  0.4854850000000 1.0
C      1  0.4840590000000  0.5043700000000  0.5144140000000 1.0
C      1  0.5736760000000  0.5355500000000  0.5082270000000 1.0
C      1  0.5740380000000  0.4638460000000  0.4916700000000 1.0
C      1  0.4259620000000  0.5361540000000  0.5083300000000 1.0
C      1  0.4263240000000  0.4644500000000  0.4917730000000 1.0
C      1  0.5568330000000  0.5120110000000  0.4637100000000 1.0
C      1  0.5549700000000  0.4869930000000  0.5360500000000 1.0
C      1  0.4450300000000  0.5130070000000  0.4639500000000 1.0
C      1  0.4431670000000  0.4879890000000  0.5362900000000 1.0
C      1  0.5252530000000  0.4895930000000  0.5381280000000 1.0
C      1  0.5271900000000  0.5100560000000  0.4612350000000 1.0
C      1  0.4728100000000  0.4899440000000  0.5387650000000 1.0
C      1  0.4747470000000  0.5104070000000  0.4618720000000 1.0
C      1  0.4354370000000  0.5310750000000  0.4828290000000 1.0
C      1  0.4334320000000  0.4697050000000  0.5178730000000 1.0
C      1  0.5665680000000  0.5302950000000  0.4821270000000 1.0
C      1  0.5645630000000  0.4689250000000  0.5171710000000 1.0
C      1  0.4747750000000  0.4219370000000  0.5027900000000 1.0
C      1  0.4695590000000  0.5722430000000  0.4948020000000 1.0
C      1  0.5304410000000  0.4277570000000  0.5051980000000 1.0
C      1  0.5252250000000  0.5780630000000  0.4972100000000 1.0
C      1  0.5129240000000  0.5542190000000  0.5399730000000 1.0
C      1  0.5155560000000  0.4495960000000  0.4624400000000 1.0
C      1  0.4844440000000  0.5504040000000  0.5375600000000 1.0
C      1  0.4870760000000  0.4457810000000  0.4600270000000 1.0
C      1  0.4417660000000  0.4468530000000  0.4744050000000 1.0
C      1  0.4382400000000  0.5545550000000  0.5278760000000 1.0
C      1  0.5617600000000  0.4454450000000  0.4721240000000 1.0
C      1  0.5582340000000  0.5531470000000  0.5255950000000 1.0
C      1  0.5136030000000  0.5723000000000  0.4727360000000 1.0
C      1  0.5150310000000  0.4347710000000  0.5273980000000 1.0
C      1  0.4849690000000  0.5652290000000  0.4726020000000 1.0
C      1  0.4863970000000  0.4277000000000  0.5272640000000 1.0
C      1  0.5169540000000  0.4927620000000  0.4376900000000 1.0
C      1  0.5144330000000  0.5072300000000  0.5616880000000 1.0
C      1  0.4855670000000  0.4927700000000  0.4383120000000 1.0
C      1  0.4830460000000  0.5072380000000  0.5623100000000 1.0
C      1  0.5288240000000  0.4649470000000  0.4414100000000 1.0
C      1  0.5268430000000  0.5353440000000  0.5584590000000 1.0
C      1  0.4731570000000  0.4646560000000  0.4415410000000 1.0
C      1  0.4711760000000  0.5350530000000  0.5585900000000 1.0
C      1  0.4412000000000  0.5359570000000  0.5514150000000 1.0
C      1  0.4435830000000  0.4642680000000  0.4504640000000 1.0
C      1  0.5564170000000  0.5357320000000  0.5495360000000 1.0
C      1  0.5588000000000  0.4640430000000  0.4485850000000 1.0
END
