TITL C-8695-8180-304 8.55507881234787e-06 125000 -352.795171001511 0 0 60 (C3) n - 1
REM
REM in /home/bkarasulu/CARBON/AIRSS/Generating-Clusters/EDIP-Nigel-Params/Higher-Symm/Box-15A/Only-C60/SD-CG/HFTN-CG
REM
REM
REM
REM
REM
REM ./C.cell (414f73aa93bd7a1190c7fd0f31ff2f98)
REM
REM compiler GCC version 9.2.1 20190827 (Red Hat 9.2.1-1)
REM options -cpp -mtune=generic -march=x86-64 -g -O0 -fpre-include=/usr/include/finclude/math-vector-fortran.h
REM seed -32010070 333796569 -2069104772 -857291959 1178480666 340634498 -1863452367 -1611791942 902522510 908926007 282659498 -413565450 -489918477 66219410 -374474216 -424116454 403815508 63160868 1297380614 2134887072 -1782537733 -1006714239 -656615196 1790504305 -656621279 186367685 851907765 933038640 -1088591731 -1686773521 1288382133 1897175743 -111799023
REM
CELL 1.54180   50.00000   50.00000   50.00000   90.00000   90.00000   90.00000
LATT -1
SFAC C  
C      1  0.4389100000000  0.4953830000000  0.5210740000000 1.0
C      1  0.5345630000000  0.4493610000000  0.5209390000000 1.0
C      1  0.5265930000000  0.5552090000000  0.5210260000000 1.0
C      1  0.5451130000000  0.4816470000000  0.4869850000000 1.0
C      1  0.4933260000000  0.5482720000000  0.4870890000000 1.0
C      1  0.4615210000000  0.4701100000000  0.4870650000000 1.0
C      1  0.4761490000000  0.4984880000000  0.4868650000000 1.0
C      1  0.5132220000000  0.4801270000000  0.4868130000000 1.0
C      1  0.5105870000000  0.5214140000000  0.4868460000000 1.0
C      1  0.4803920000000  0.5086760000000  0.5165560000000 1.0
C      1  0.5023060000000  0.4786470000000  0.5165110000000 1.0
C      1  0.5173550000000  0.5126400000000  0.5165200000000 1.0
C      1  0.4898530000000  0.5641410000000  0.4634350000000 1.0
C      1  0.4494910000000  0.4592170000000  0.4634000000000 1.0
C      1  0.5605390000000  0.4767240000000  0.4632950000000 1.0
C      1  0.5275750000000  0.4618640000000  0.5480670000000 1.0
C      1  0.5192850000000  0.5428510000000  0.5481360000000 1.0
C      1  0.4532930000000  0.4951780000000  0.5481700000000 1.0
C      1  0.5508910000000  0.5129030000000  0.5185570000000 1.0
C      1  0.4633980000000  0.5375840000000  0.5186670000000 1.0
C      1  0.4857700000000  0.4494720000000  0.5185780000000 1.0
C      1  0.5606190000000  0.5301050000000  0.5414180000000 1.0
C      1  0.4436580000000  0.5373610000000  0.5415470000000 1.0
C      1  0.4958540000000  0.4324420000000  0.5414140000000 1.0
C      1  0.4216880000000  0.5100180000000  0.4997840000000 1.0
C      1  0.5304800000000  0.4271720000000  0.4996080000000 1.0
C      1  0.5478310000000  0.5628110000000  0.4996900000000 1.0
C      1  0.4949130000000  0.4717520000000  0.4414000000000 1.0
C      1  0.5269520000000  0.5098370000000  0.4413950000000 1.0
C      1  0.4779500000000  0.5185410000000  0.4414530000000 1.0
C      1  0.4672990000000  0.4706270000000  0.5547860000000 1.0
C      1  0.5418400000000  0.4862560000000  0.5547180000000 1.0
C      1  0.4910350000000  0.5429960000000  0.5548140000000 1.0
C      1  0.4590480000000  0.4546160000000  0.5311330000000 1.0
C      1  0.5598090000000  0.4871640000000  0.5310510000000 1.0
C      1  0.4812420000000  0.5581510000000  0.5311860000000 1.0
C      1  0.5015430000000  0.4543740000000  0.5596430000000 1.0
C      1  0.5387980000000  0.5240280000000  0.5596550000000 1.0
C      1  0.4598480000000  0.5214650000000  0.5597360000000 1.0
C      1  0.5386960000000  0.5586850000000  0.4712660000000 1.0
C      1  0.4298020000000  0.5042270000000  0.4713410000000 1.0
C      1  0.5314110000000  0.4371520000000  0.4711840000000 1.0
C      1  0.5098910000000  0.5548230000000  0.4467460000000 1.0
C      1  0.4475250000000  0.4812620000000  0.4467580000000 1.0
C      1  0.5424140000000  0.4640320000000  0.4466450000000 1.0
C      1  0.5723730000000  0.5476720000000  0.4997230000000 1.0
C      1  0.4225280000000  0.5388410000000  0.4998740000000 1.0
C      1  0.5050980000000  0.4134870000000  0.4996940000000 1.0
C      1  0.5552070000000  0.4669380000000  0.5106340000000 1.0
C      1  0.5010390000000  0.5643200000000  0.5107630000000 1.0
C      1  0.4437880000000  0.4687180000000  0.5107530000000 1.0
C      1  0.5053820000000  0.4530040000000  0.4726860000000 1.0
C      1  0.5379830000000  0.5282150000000  0.4727070000000 1.0
C      1  0.4565480000000  0.5188420000000  0.4727860000000 1.0
C      1  0.4730740000000  0.4904300000000  0.4373510000000 1.0
C      1  0.5216920000000  0.4815930000000  0.4372930000000 1.0
C      1  0.5050360000000  0.5281160000000  0.4373460000000 1.0
C      1  0.4499310000000  0.5427310000000  0.4918930000000 1.0
C      1  0.4880200000000  0.4352900000000  0.4917730000000 1.0
C      1  0.5620220000000  0.5219970000000  0.4917590000000 1.0
END
