TITL C-8698-8182-234 -4847005.18805732 125000 -359.787390186112 0 0 60 (C1) n - 1
REM
REM in /home/bkarasulu/CARBON/AIRSS/Generating-Clusters/EDIP-Nigel-Params/Higher-Symm/Box-15A/Only-C60/SD-CG/HFTN-CG
REM
REM
REM
REM
REM
REM ./C.cell (414f73aa93bd7a1190c7fd0f31ff2f98)
REM
REM compiler GCC version 9.2.1 20190827 (Red Hat 9.2.1-1)
REM options -cpp -mtune=generic -march=x86-64 -g -O0 -fpre-include=/usr/include/finclude/math-vector-fortran.h
REM seed 142989314 -2103822058 -1149622103 838326429 1030092099 559413213 -1267178559 287299415 28734702 -393774918 262214584 24923964 -1691515395 1850924289 1838009185 -1820511965 507776239 467537132 -695927904 -2107228477 -526678121 -575762229 1410974603 1112988259 288626317 -779535399 1487784103 268781388 -324408979 -885344920 407741593 1810349614 658590681
REM
CELL 1.54180   50.00000   50.00000   50.00000   90.00000   90.00000   90.00000
LATT -1
SFAC C  
C      1  0.5408890000000  0.5211600000000  0.5128890000000 1.0
C      1  0.5122520000000  0.5450890000000  0.5241060000000 1.0
C      1  0.5225930000000  0.5135910000000  0.5451000000000 1.0
C      1  0.4510960000000  0.4715960000000  0.5223670000000 1.0
C      1  0.4635610000000  0.5200400000000  0.4879980000000 1.0
C      1  0.5475660000000  0.4722480000000  0.4783010000000 1.0
C      1  0.4967230000000  0.4621180000000  0.5174190000000 1.0
C      1  0.4794370000000  0.5440130000000  0.4742120000000 1.0
C      1  0.5024460000000  0.4638480000000  0.4831520000000 1.0
C      1  0.4770610000000  0.4771730000000  0.5365720000000 1.0
C      1  0.4776380000000  0.5098140000000  0.4538920000000 1.0
C      1  0.5221150000000  0.4803100000000  0.4641680000000 1.0
C      1  0.5426840000000  0.5238260000000  0.4818370000000 1.0
C      1  0.5091870000000  0.5442600000000  0.4815900000000 1.0
C      1  0.5199210000000  0.5110610000000  0.4641380000000 1.0
C      1  0.4549860000000  0.4769750000000  0.4934600000000 1.0
C      1  0.4638240000000  0.5243740000000  0.5190500000000 1.0
C      1  0.5444410000000  0.4776030000000  0.5072890000000 1.0
C      1  0.4726410000000  0.4611590000000  0.4747190000000 1.0
C      1  0.4812150000000  0.5491820000000  0.5256600000000 1.0
C      1  0.5270250000000  0.4613330000000  0.5257160000000 1.0
C      1  0.4725550000000  0.4800940000000  0.4501700000000 1.0
C      1  0.4808860000000  0.5064230000000  0.5356490000000 1.0
C      1  0.5266240000000  0.4825880000000  0.5484950000000 1.0
C      1  0.5089340000000  0.5200980000000  0.5718280000000 1.0
C      1  0.5699690000000  0.5146000000000  0.5194950000000 1.0
C      1  0.5201700000000  0.5730620000000  0.5138210000000 1.0
C      1  0.4821600000000  0.4714290000000  0.5666550000000 1.0
C      1  0.4916030000000  0.5189340000000  0.4286120000000 1.0
C      1  0.5189260000000  0.4738480000000  0.4343790000000 1.0
C      1  0.4268850000000  0.4888200000000  0.5275670000000 1.0
C      1  0.4338430000000  0.5172450000000  0.4816560000000 1.0
C      1  0.5741030000000  0.4852480000000  0.4731560000000 1.0
C      1  0.4839380000000  0.4337470000000  0.5158960000000 1.0
C      1  0.4747430000000  0.5733260000000  0.4836520000000 1.0
C      1  0.5162180000000  0.4356650000000  0.4828930000000 1.0
C      1  0.5207060000000  0.5180770000000  0.4348210000000 1.0
C      1  0.5712510000000  0.5154860000000  0.4752450000000 1.0
C      1  0.5189500000000  0.5722940000000  0.4841570000000 1.0
C      1  0.4895660000000  0.4747710000000  0.4263930000000 1.0
C      1  0.4805300000000  0.5154840000000  0.5642460000000 1.0
C      1  0.5117500000000  0.4758290000000  0.5732530000000 1.0
C      1  0.4293300000000  0.4876930000000  0.4833320000000 1.0
C      1  0.4337280000000  0.5190690000000  0.5258610000000 1.0
C      1  0.5713450000000  0.4847640000000  0.5174270000000 1.0
C      1  0.4728270000000  0.4306710000000  0.4875730000000 1.0
C      1  0.4759590000000  0.5759160000000  0.5138150000000 1.0
C      1  0.5274780000000  0.4305560000000  0.5106330000000 1.0
C      1  0.4975200000000  0.5888370000000  0.4748410000000 1.0
C      1  0.5056420000000  0.4154570000000  0.5212900000000 1.0
C      1  0.5902140000000  0.4779360000000  0.4963290000000 1.0
C      1  0.4188430000000  0.5287780000000  0.5032000000000 1.0
C      1  0.4952130000000  0.4170210000000  0.4761510000000 1.0
C      1  0.4863140000000  0.4981290000000  0.4092590000000 1.0
C      1  0.4098960000000  0.4831890000000  0.5044770000000 1.0
C      1  0.4992870000000  0.5917560000000  0.5210280000000 1.0
C      1  0.5314430000000  0.4957040000000  0.4203700000000 1.0
C      1  0.5146950000000  0.4990730000000  0.5905130000000 1.0
C      1  0.4699410000000  0.4936150000000  0.5801060000000 1.0
C      1  0.5867130000000  0.5239960000000  0.4981220000000 1.0
END
