TITL C-8695-8180-67 1.80114182058041e-07 125000 -353.078272841738 0 0 60 (C1) n - 1
REM
REM in /home/bkarasulu/CARBON/AIRSS/Generating-Clusters/EDIP-Nigel-Params/Higher-Symm/Box-15A/Only-C60/SD-CG/HFTN-CG
REM
REM
REM
REM
REM
REM ./C.cell (414f73aa93bd7a1190c7fd0f31ff2f98)
REM
REM compiler GCC version 9.2.1 20190827 (Red Hat 9.2.1-1)
REM options -cpp -mtune=generic -march=x86-64 -g -O0 -fpre-include=/usr/include/finclude/math-vector-fortran.h
REM seed -806595792 -663348592 -1448214689 1722302133 640817064 126631960 -1611034456 -1597699127 336736425 650028700 -1573669428 -893047304 1027746578 388540777 773784111 1020033485 1179859171 -1356003349 1962191137 637332009 712415279 -1736803397 -602501456 -1984326494 -2022676293 -1981598480 1795741096 -211175967 1750431043 889925389 405201043 1942001029 -240595029
REM
CELL 1.54180   50.00000   50.00000   50.00000   90.00000   90.00000   90.00000
LATT -1
SFAC C  
C      1  0.5208180000000  0.4143860000000  0.4850710000000 1.0
C      1  0.4791330000000  0.5822300000000  0.4840580000000 1.0
C      1  0.5213000000000  0.4145530000000  0.5138130000000 1.0
C      1  0.4779250000000  0.5804400000000  0.5130570000000 1.0
C      1  0.4518090000000  0.4799280000000  0.5340020000000 1.0
C      1  0.5470110000000  0.5194400000000  0.5331920000000 1.0
C      1  0.4515490000000  0.4805310000000  0.4664280000000 1.0
C      1  0.5471480000000  0.5190020000000  0.4665830000000 1.0
C      1  0.4298610000000  0.5142770000000  0.5156770000000 1.0
C      1  0.5699120000000  0.4839560000000  0.5150980000000 1.0
C      1  0.4305510000000  0.5147650000000  0.4858390000000 1.0
C      1  0.5696310000000  0.4836990000000  0.4851470000000 1.0
C      1  0.4788160000000  0.4407950000000  0.4845180000000 1.0
C      1  0.5238330000000  0.5611540000000  0.4842720000000 1.0
C      1  0.4789870000000  0.4405750000000  0.5151980000000 1.0
C      1  0.5236350000000  0.5616930000000  0.5148550000000 1.0
C      1  0.4873860000000  0.4538400000000  0.5697540000000 1.0
C      1  0.5135250000000  0.5457620000000  0.5696890000000 1.0
C      1  0.4862760000000  0.4543520000000  0.4303590000000 1.0
C      1  0.5146040000000  0.5450670000000  0.4291730000000 1.0
C      1  0.4572080000000  0.5514670000000  0.4873420000000 1.0
C      1  0.5407650000000  0.4471850000000  0.4861760000000 1.0
C      1  0.4541930000000  0.5516020000000  0.5161280000000 1.0
C      1  0.5414270000000  0.4472470000000  0.5148810000000 1.0
C      1  0.4523830000000  0.5278100000000  0.4715430000000 1.0
C      1  0.5474550000000  0.4708380000000  0.4709010000000 1.0
C      1  0.4505360000000  0.5274710000000  0.5312770000000 1.0
C      1  0.5481000000000  0.4710890000000  0.5298560000000 1.0
C      1  0.5024150000000  0.5741520000000  0.4690260000000 1.0
C      1  0.5024110000000  0.4314010000000  0.4707240000000 1.0
C      1  0.5014520000000  0.5744810000000  0.5291420000000 1.0
C      1  0.5026590000000  0.4309340000000  0.5286890000000 1.0
C      1  0.4743970000000  0.4715910000000  0.5162440000000 1.0
C      1  0.5246260000000  0.5299350000000  0.5161470000000 1.0
C      1  0.4742260000000  0.4718540000000  0.4839980000000 1.0
C      1  0.5249040000000  0.5297810000000  0.4836900000000 1.0
C      1  0.4886020000000  0.5218500000000  0.5492370000000 1.0
C      1  0.5110180000000  0.4784140000000  0.5480030000000 1.0
C      1  0.4890590000000  0.5225420000000  0.4505060000000 1.0
C      1  0.5105420000000  0.4782360000000  0.4520710000000 1.0
C      1  0.4858110000000  0.4829590000000  0.4316900000000 1.0
C      1  0.5142630000000  0.5165570000000  0.4308210000000 1.0
C      1  0.4866630000000  0.4824170000000  0.5687050000000 1.0
C      1  0.5138900000000  0.5170940000000  0.5688560000000 1.0
C      1  0.5710650000000  0.5124090000000  0.5190460000000 1.0
C      1  0.4276590000000  0.4860560000000  0.5195900000000 1.0
C      1  0.5711930000000  0.5120490000000  0.4806960000000 1.0
C      1  0.4275620000000  0.4867220000000  0.4809710000000 1.0
C      1  0.4997140000000  0.4866110000000  0.4779700000000 1.0
C      1  0.4986520000000  0.5161810000000  0.4777230000000 1.0
C      1  0.4998010000000  0.4865000000000  0.5221710000000 1.0
C      1  0.4984250000000  0.5159690000000  0.5220460000000 1.0
C      1  0.4631660000000  0.4997000000000  0.5553230000000 1.0
C      1  0.5363150000000  0.4992600000000  0.5540740000000 1.0
C      1  0.4627810000000  0.5008560000000  0.4455720000000 1.0
C      1  0.5362950000000  0.4985970000000  0.4459660000000 1.0
C      1  0.4990270000000  0.5636740000000  0.5549060000000 1.0
C      1  0.5030400000000  0.4360880000000  0.5560940000000 1.0
C      1  0.5003430000000  0.5637100000000  0.4431460000000 1.0
C      1  0.5022480000000  0.4362650000000  0.4432670000000 1.0
END
