TITL C-8699-7882-38 3.94791959126267e-07 125000 -364.601640413631 0 0 60 (C1) n - 1
REM
REM in /home/bkarasulu/CARBON/AIRSS/Generating-Clusters/EDIP-Nigel-Params/Higher-Symm/Box-15A/Only-C60/SD-CG/HFTN-CG
REM
REM
REM
REM
REM
REM ./C.cell (414f73aa93bd7a1190c7fd0f31ff2f98)
REM
REM compiler GCC version 9.2.1 20190827 (Red Hat 9.2.1-1)
REM options -cpp -mtune=generic -march=x86-64 -g -O0 -fpre-include=/usr/include/finclude/math-vector-fortran.h
REM seed -2054615893 -1485090671 1779451124 2094329865 886001543 276266060 -131031428 382973919 1850822547 -2044108457 1088065373 450653645 1990133513 1250823596 396781695 -1249653596 -1669264601 300487102 236957229 211775631 1867023860 743065338 1319476123 -183542216 313223988 -503655200 1015128721 1132961099 33583966 998071230 -1049896799 -1477526850 1545564493
REM
CELL 1.54180   50.00000   50.00000   50.00000   90.00000   90.00000   90.00000
LATT -1
SFAC C  
C      1  0.5112740000000  0.5650130000000  0.5419490000000 1.0
C      1  0.5086910000000  0.4352460000000  0.5349320000000 1.0
C      1  0.5088910000000  0.5037870000000  0.4264220000000 1.0
C      1  0.5561170000000  0.4621680000000  0.4814250000000 1.0
C      1  0.5532900000000  0.5299170000000  0.4772520000000 1.0
C      1  0.5514500000000  0.5035240000000  0.5387250000000 1.0
C      1  0.5238800000000  0.4572090000000  0.4426910000000 1.0
C      1  0.5252160000000  0.5694590000000  0.4931860000000 1.0
C      1  0.5217920000000  0.4736670000000  0.5639520000000 1.0
C      1  0.4487020000000  0.4688980000000  0.4554890000000 1.0
C      1  0.4494980000000  0.5562190000000  0.4984130000000 1.0
C      1  0.4483160000000  0.4813870000000  0.5382320000000 1.0
C      1  0.5055230000000  0.5203150000000  0.4799730000000 1.0
C      1  0.5048190000000  0.5125800000000  0.5288760000000 1.0
C      1  0.5092760000000  0.4679650000000  0.4936200000000 1.0
C      1  0.5395470000000  0.4426270000000  0.4654730000000 1.0
C      1  0.5402380000000  0.5553220000000  0.4709610000000 1.0
C      1  0.5382750000000  0.4989570000000  0.5644630000000 1.0
C      1  0.4778090000000  0.5586160000000  0.5048980000000 1.0
C      1  0.4755610000000  0.4719120000000  0.5443970000000 1.0
C      1  0.4765790000000  0.4728340000000  0.4480870000000 1.0
C      1  0.5635780000000  0.5283390000000  0.5355710000000 1.0
C      1  0.5645240000000  0.4530950000000  0.5063880000000 1.0
C      1  0.5650770000000  0.5165280000000  0.4559840000000 1.0
C      1  0.4408630000000  0.5058360000000  0.5501320000000 1.0
C      1  0.4465190000000  0.4486000000000  0.4741370000000 1.0
C      1  0.4404120000000  0.5385290000000  0.4774730000000 1.0
C      1  0.5300160000000  0.5585940000000  0.5203580000000 1.0
C      1  0.5268760000000  0.4581710000000  0.5391110000000 1.0
C      1  0.5284940000000  0.4867830000000  0.4405840000000 1.0
C      1  0.4926270000000  0.4845240000000  0.5653890000000 1.0
C      1  0.4951850000000  0.4501090000000  0.4485170000000 1.0
C      1  0.4960310000000  0.5674860000000  0.4836540000000 1.0
C      1  0.4820620000000  0.5672470000000  0.5332080000000 1.0
C      1  0.4800380000000  0.4431280000000  0.5404200000000 1.0
C      1  0.4798210000000  0.4949110000000  0.4289250000000 1.0
C      1  0.5530840000000  0.4534360000000  0.5307060000000 1.0
C      1  0.5545540000000  0.4968170000000  0.4410540000000 1.0
C      1  0.5561480000000  0.5529840000000  0.5280820000000 1.0
C      1  0.4596620000000  0.4580010000000  0.4981790000000 1.0
C      1  0.4550930000000  0.5143460000000  0.4698340000000 1.0
C      1  0.4553200000000  0.5250710000000  0.5340800000000 1.0
C      1  0.4699630000000  0.4337980000000  0.5138390000000 1.0
C      1  0.4650280000000  0.5189520000000  0.4409850000000 1.0
C      1  0.4675100000000  0.5469970000000  0.5516410000000 1.0
C      1  0.4359040000000  0.5378130000000  0.5158210000000 1.0
C      1  0.4396950000000  0.4760210000000  0.5107430000000 1.0
C      1  0.4380030000000  0.4888420000000  0.4746470000000 1.0
C      1  0.5055610000000  0.5138340000000  0.5575870000000 1.0
C      1  0.5095720000000  0.4417830000000  0.4811630000000 1.0
C      1  0.5057980000000  0.5439080000000  0.4634150000000 1.0
C      1  0.4964890000000  0.5439330000000  0.5627610000000 1.0
C      1  0.4984790000000  0.4243240000000  0.5049310000000 1.0
C      1  0.4935500000000  0.5320850000000  0.4359990000000 1.0
C      1  0.5330180000000  0.4824040000000  0.4834940000000 1.0
C      1  0.5320580000000  0.5126520000000  0.4904020000000 1.0
C      1  0.5288800000000  0.4978310000000  0.5192330000000 1.0
C      1  0.4795810000000  0.5087640000000  0.4883380000000 1.0
C      1  0.4777920000000  0.5075400000000  0.5186590000000 1.0
C      1  0.4823920000000  0.4783610000000  0.4911370000000 1.0
END
