TITL C-8691-6797-77 -1.05344346072754e-05 125000 -348.785560900476 0 0 60 (C2) n - 1
REM
REM in /home/bkarasulu/CARBON/AIRSS/Generating-Clusters/EDIP-Nigel-Params/Higher-Symm/Box-15A/Only-C60/SD-CG/HFTN-CG
REM
REM
REM
REM
REM
REM ./C.cell (414f73aa93bd7a1190c7fd0f31ff2f98)
REM
REM compiler GCC version 9.2.1 20190827 (Red Hat 9.2.1-1)
REM options -cpp -mtune=generic -march=x86-64 -g -O0 -fpre-include=/usr/include/finclude/math-vector-fortran.h
REM seed -1647619572 -1676168697 -1206303014 -337766238 880937626 -213920732 -1487850016 -1727852286 726574985 -902301523 2018751037 -1431481678 1904625804 -1314714862 -2049146886 1119306579 -1820596932 -219424157 -1832219533 757781832 -947700705 -321792132 -741810042 947773473 -1173808742 -612749218 756105214 684452228 -654631987 1489312587 70598167 -317467376 -652735142
REM
CELL 1.54180   50.00000   50.00000   50.00000   90.00000   90.00000   90.00000
LATT -1
SFAC C  
C      1  0.5503340000000  0.5446710000000  0.5246670000000 1.0
C      1  0.5520740000000  0.4572660000000  0.4724160000000 1.0
C      1  0.4445890000000  0.4573890000000  0.5276280000000 1.0
C      1  0.4464820000000  0.5447360000000  0.4752870000000 1.0
C      1  0.5531000000000  0.5251990000000  0.5441880000000 1.0
C      1  0.5491050000000  0.4774690000000  0.4535780000000 1.0
C      1  0.4436820000000  0.5252490000000  0.4557860000000 1.0
C      1  0.4475940000000  0.4776060000000  0.5464460000000 1.0
C      1  0.5231320000000  0.4379700000000  0.5289500000000 1.0
C      1  0.5302160000000  0.5631820000000  0.4714050000000 1.0
C      1  0.4666320000000  0.5632670000000  0.5285290000000 1.0
C      1  0.4734970000000  0.4379840000000  0.4711150000000 1.0
C      1  0.5260080000000  0.5325910000000  0.4396850000000 1.0
C      1  0.5319530000000  0.4702200000000  0.5622520000000 1.0
C      1  0.4707870000000  0.5327020000000  0.5602810000000 1.0
C      1  0.4647320000000  0.4702140000000  0.4377790000000 1.0
C      1  0.5136850000000  0.4291320000000  0.5023630000000 1.0
C      1  0.5171820000000  0.5714040000000  0.4965990000000 1.0
C      1  0.4796800000000  0.5714400000000  0.5033270000000 1.0
C      1  0.4829290000000  0.4291570000000  0.4977110000000 1.0
C      1  0.5133200000000  0.5074150000000  0.4298110000000 1.0
C      1  0.5199480000000  0.4956260000000  0.5706890000000 1.0
C      1  0.4834310000000  0.5075140000000  0.5701810000000 1.0
C      1  0.4767820000000  0.4955900000000  0.4293150000000 1.0
C      1  0.4713280000000  0.4468740000000  0.5200420000000 1.0
C      1  0.4740610000000  0.5533350000000  0.4804740000000 1.0
C      1  0.5227710000000  0.5533120000000  0.5194710000000 1.0
C      1  0.5253180000000  0.4468060000000  0.4800130000000 1.0
C      1  0.4708000000000  0.5175540000000  0.4475470000000 1.0
C      1  0.4753320000000  0.4831040000000  0.5545930000000 1.0
C      1  0.5259690000000  0.5175610000000  0.5524350000000 1.0
C      1  0.5213770000000  0.4830070000000  0.4454250000000 1.0
C      1  0.4824180000000  0.4366290000000  0.5454280000000 1.0
C      1  0.4843610000000  0.5635550000000  0.4538440000000 1.0
C      1  0.5124880000000  0.5635780000000  0.5460890000000 1.0
C      1  0.5142090000000  0.4365540000000  0.4546380000000 1.0
C      1  0.4829280000000  0.5416040000000  0.4356930000000 1.0
C      1  0.4853130000000  0.4564450000000  0.5662040000000 1.0
C      1  0.5138820000000  0.5416440000000  0.5642640000000 1.0
C      1  0.5113490000000  0.4563530000000  0.4338410000000 1.0
C      1  0.5124580000000  0.4725590000000  0.4925230000000 1.0
C      1  0.5087460000000  0.5290960000000  0.5100870000000 1.0
C      1  0.4880420000000  0.5291030000000  0.4898830000000 1.0
C      1  0.4842320000000  0.4725910000000  0.5075050000000 1.0
C      1  0.5088170000000  0.4909260000000  0.4707000000000 1.0
C      1  0.5132810000000  0.5061090000000  0.5267750000000 1.0
C      1  0.4879050000000  0.4909750000000  0.5293090000000 1.0
C      1  0.4834670000000  0.5061070000000  0.4732190000000 1.0
C      1  0.5393810000000  0.5358460000000  0.4657020000000 1.0
C      1  0.4574200000000  0.5359540000000  0.5342610000000 1.0
C      1  0.5374630000000  0.4634390000000  0.5331900000000 1.0
C      1  0.4592110000000  0.4634720000000  0.4668480000000 1.0
C      1  0.5141040000000  0.4461780000000  0.5656970000000 1.0
C      1  0.5139040000000  0.5633680000000  0.4450270000000 1.0
C      1  0.4829450000000  0.5634520000000  0.5549070000000 1.0
C      1  0.4825400000000  0.4461370000000  0.4343600000000 1.0
C      1  0.4652580000000  0.4851520000000  0.4866260000000 1.0
C      1  0.5314540000000  0.4851080000000  0.5133890000000 1.0
C      1  0.4426640000000  0.4958060000000  0.4975970000000 1.0
C      1  0.5540670000000  0.4957110000000  0.5024070000000 1.0
END
