TITL C-8693-7204-85 7.12862854241327e-07 125000 -364.530078723907 0 0 60 (C4) n - 1
REM
REM in /home/bkarasulu/CARBON/AIRSS/Generating-Clusters/EDIP-Nigel-Params/Higher-Symm/Box-15A/Only-C60/SD-CG/HFTN-CG
REM
REM
REM
REM
REM
REM ./C.cell (414f73aa93bd7a1190c7fd0f31ff2f98)
REM
REM compiler GCC version 9.2.1 20190827 (Red Hat 9.2.1-1)
REM options -cpp -mtune=generic -march=x86-64 -g -O0 -fpre-include=/usr/include/finclude/math-vector-fortran.h
REM seed 857436827 -1392871378 -1323475722 240227957 -1078078392 -1809762596 -1811591005 -361817352 -1549818178 1298082058 917232048 65014210 1473731750 -1752679552 1087368910 -1940206961 1673219363 -1608633685 27460705 -617182396 1576810666 1333956860 783805506 -559715336 1864707647 -183541942 504767418 214173395 1802130033 1830619660 772472977 1742791270 -2056601021
REM
CELL 1.54180   50.00000   50.00000   50.00000   90.00000   90.00000   90.00000
LATT -1
SFAC C  
C      1  0.5669940000000  0.5159450000000  0.5152200000000 1.0
C      1  0.5155800000000  0.4326860000000  0.5142280000000 1.0
C      1  0.4323430000000  0.4841090000000  0.5122790000000 1.0
C      1  0.4837570000000  0.5673690000000  0.5132710000000 1.0
C      1  0.5682950000000  0.4866710000000  0.4820990000000 1.0
C      1  0.5137020000000  0.5678710000000  0.4807340000000 1.0
C      1  0.4325200000000  0.5132610000000  0.4790260000000 1.0
C      1  0.4871130000000  0.4320610000000  0.4803910000000 1.0
C      1  0.4965640000000  0.5438560000000  0.5240820000000 1.0
C      1  0.5432330000000  0.5029200000000  0.5251960000000 1.0
C      1  0.5023060000000  0.4562370000000  0.5243700000000 1.0
C      1  0.4556360000000  0.4971730000000  0.5232560000000 1.0
C      1  0.4986930000000  0.4572820000000  0.4739220000000 1.0
C      1  0.5432180000000  0.4980920000000  0.4748390000000 1.0
C      1  0.5024200000000  0.5426260000000  0.4738480000000 1.0
C      1  0.4578950000000  0.5018160000000  0.4729310000000 1.0
C      1  0.5104650000000  0.4815400000000  0.5703070000000 1.0
C      1  0.4798290000000  0.4880770000000  0.5696130000000 1.0
C      1  0.4863650000000  0.5187210000000  0.5697020000000 1.0
C      1  0.5170010000000  0.5121850000000  0.5703960000000 1.0
C      1  0.5142570000000  0.5179440000000  0.4299040000000 1.0
C      1  0.4834750000000  0.5125910000000  0.4292280000000 1.0
C      1  0.4888260000000  0.4818020000000  0.4294040000000 1.0
C      1  0.5196080000000  0.4871550000000  0.4300800000000 1.0
C      1  0.4475260000000  0.5600850000000  0.4782120000000 1.0
C      1  0.5605390000000  0.5528850000000  0.4807430000000 1.0
C      1  0.5533360000000  0.4398440000000  0.4807900000000 1.0
C      1  0.4403230000000  0.4470440000000  0.4782600000000 1.0
C      1  0.4536150000000  0.4391430000000  0.5197760000000 1.0
C      1  0.5603930000000  0.4541330000000  0.5221280000000 1.0
C      1  0.5454120000000  0.5609370000000  0.5215980000000 1.0
C      1  0.4386340000000  0.5459470000000  0.5192460000000 1.0
C      1  0.5741150000000  0.4601510000000  0.4875550000000 1.0
C      1  0.4604710000000  0.4261320000000  0.4850860000000 1.0
C      1  0.4264650000000  0.5398020000000  0.4841200000000 1.0
C      1  0.5401090000000  0.5738210000000  0.4865890000000 1.0
C      1  0.5661950000000  0.5437280000000  0.5090060000000 1.0
C      1  0.4561060000000  0.5664200000000  0.5065120000000 1.0
C      1  0.4334150000000  0.4563040000000  0.5062090000000 1.0
C      1  0.5435030000000  0.4336120000000  0.5087030000000 1.0
C      1  0.5226240000000  0.5315050000000  0.4548300000000 1.0
C      1  0.5325680000000  0.4782800000000  0.4551490000000 1.0
C      1  0.4793560000000  0.4683320000000  0.4539820000000 1.0
C      1  0.4694130000000  0.5215560000000  0.4536630000000 1.0
C      1  0.5207420000000  0.4667940000000  0.5463480000000 1.0
C      1  0.5322390000000  0.5218810000000  0.5465030000000 1.0
C      1  0.4771660000000  0.5333790000000  0.5452550000000 1.0
C      1  0.4656690000000  0.4782910000000  0.5451000000000 1.0
C      1  0.4744220000000  0.4516200000000  0.5361500000000 1.0
C      1  0.4507220000000  0.5248100000000  0.5354880000000 1.0
C      1  0.5238950000000  0.5485190000000  0.5370740000000 1.0
C      1  0.5475950000000  0.4753290000000  0.5377370000000 1.0
C      1  0.4682930000000  0.5499440000000  0.4598180000000 1.0
C      1  0.4508480000000  0.4673620000000  0.4595810000000 1.0
C      1  0.5334090000000  0.4499160000000  0.4614530000000 1.0
C      1  0.5508550000000  0.5324980000000  0.4616900000000 1.0
C      1  0.4998640000000  0.5241720000000  0.4995450000000 1.0
C      1  0.5241480000000  0.5001220000000  0.5001300000000 1.0
C      1  0.5001030000000  0.4758300000000  0.4996390000000 1.0
C      1  0.4758190000000  0.4998810000000  0.4990540000000 1.0
END
