TITL C-8699-7882-271 5.84507252099743e-05 125000 -371.415975808772 0 0 60 (C1) n - 1
REM
REM in /home/bkarasulu/CARBON/AIRSS/Generating-Clusters/EDIP-Nigel-Params/Higher-Symm/Box-15A/Only-C60/SD-CG/HFTN-CG
REM
REM
REM
REM
REM
REM ./C.cell (414f73aa93bd7a1190c7fd0f31ff2f98)
REM
REM compiler GCC version 9.2.1 20190827 (Red Hat 9.2.1-1)
REM options -cpp -mtune=generic -march=x86-64 -g -O0 -fpre-include=/usr/include/finclude/math-vector-fortran.h
REM seed 501151275 1506516889 -230571190 -1056294370 1043505593 -873935478 -1578658972 1588425820 -1509008604 -882038512 -600806469 1506019066 2024908310 1109768347 -761449804 119890388 -1480634730 -1166539255 537902112 1810094272 -1233091764 -406705844 -760928482 -441239556 1433524136 -1520073135 68510461 2128488567 1348498043 -2121218727 816511856 1004647370 1949529531
REM
CELL 1.54180   50.00000   50.00000   50.00000   90.00000   90.00000   90.00000
LATT -1
SFAC C  
C      1  0.4536480000000  0.5644360000000  0.5081270000000 1.0
C      1  0.4585900000000  0.4695720000000  0.4368230000000 1.0
C      1  0.4508060000000  0.4621140000000  0.5525230000000 1.0
C      1  0.4701440000000  0.5673610000000  0.5311410000000 1.0
C      1  0.4737610000000  0.4897510000000  0.4233230000000 1.0
C      1  0.4667690000000  0.4413950000000  0.5418160000000 1.0
C      1  0.5129540000000  0.4645310000000  0.4380530000000 1.0
C      1  0.5090120000000  0.4630610000000  0.5609560000000 1.0
C      1  0.5074170000000  0.5723640000000  0.5004530000000 1.0
C      1  0.4995710000000  0.5669530000000  0.5268560000000 1.0
C      1  0.5030010000000  0.4892370000000  0.4286070000000 1.0
C      1  0.4968510000000  0.4433240000000  0.5443350000000 1.0
C      1  0.5063950000000  0.5053330000000  0.4747220000000 1.0
C      1  0.5041590000000  0.4732430000000  0.5090840000000 1.0
C      1  0.5062170000000  0.5190780000000  0.5181850000000 1.0
C      1  0.5483300000000  0.4711090000000  0.4807360000000 1.0
C      1  0.5571400000000  0.4925860000000  0.5398230000000 1.0
C      1  0.5535230000000  0.5434410000000  0.4831350000000 1.0
C      1  0.5076360000000  0.5614490000000  0.4746190000000 1.0
C      1  0.5121850000000  0.4456780000000  0.4591020000000 1.0
C      1  0.5137220000000  0.4904240000000  0.5671710000000 1.0
C      1  0.5529960000000  0.4853070000000  0.4563950000000 1.0
C      1  0.5575920000000  0.4644110000000  0.5384740000000 1.0
C      1  0.5546750000000  0.5557140000000  0.5082540000000 1.0
C      1  0.5541530000000  0.5475160000000  0.5338880000000 1.0
C      1  0.5551240000000  0.5107680000000  0.4455020000000 1.0
C      1  0.5511570000000  0.4421040000000  0.5242590000000 1.0
C      1  0.5370060000000  0.5061670000000  0.5558540000000 1.0
C      1  0.5337520000000  0.5525430000000  0.4624730000000 1.0
C      1  0.5356490000000  0.4447170000000  0.4783030000000 1.0
C      1  0.5429240000000  0.5150210000000  0.4835420000000 1.0
C      1  0.5345610000000  0.4786830000000  0.5076890000000 1.0
C      1  0.5352000000000  0.5086530000000  0.5118560000000 1.0
C      1  0.4465770000000  0.4844700000000  0.4578020000000 1.0
C      1  0.4443180000000  0.4777680000000  0.5298900000000 1.0
C      1  0.4426210000000  0.5384680000000  0.5084790000000 1.0
C      1  0.4861770000000  0.4410400000000  0.4704220000000 1.0
C      1  0.4890750000000  0.5052090000000  0.5677340000000 1.0
C      1  0.4830050000000  0.5510590000000  0.4638560000000 1.0
C      1  0.4910500000000  0.4957740000000  0.5304620000000 1.0
C      1  0.4898080000000  0.5249480000000  0.4913240000000 1.0
C      1  0.4917880000000  0.4775410000000  0.4811640000000 1.0
C      1  0.4839160000000  0.4313850000000  0.4973790000000 1.0
C      1  0.4885440000000  0.5332180000000  0.5608580000000 1.0
C      1  0.4849590000000  0.5328160000000  0.4416820000000 1.0
C      1  0.4472800000000  0.4642550000000  0.5042240000000 1.0
C      1  0.4463310000000  0.5268720000000  0.5362750000000 1.0
C      1  0.4410210000000  0.5111410000000  0.4498880000000 1.0
C      1  0.4633570000000  0.5460490000000  0.5514960000000 1.0
C      1  0.4624270000000  0.5164280000000  0.4317180000000 1.0
C      1  0.4594030000000  0.4379030000000  0.5124530000000 1.0
C      1  0.5078390000000  0.5406550000000  0.5397040000000 1.0
C      1  0.5071950000000  0.5139140000000  0.4456040000000 1.0
C      1  0.5042640000000  0.4437440000000  0.5151390000000 1.0
C      1  0.4610390000000  0.5019030000000  0.5262030000000 1.0
C      1  0.4612010000000  0.5131510000000  0.4966600000000 1.0
C      1  0.4608950000000  0.4834120000000  0.4840150000000 1.0
C      1  0.5329530000000  0.5290100000000  0.4425580000000 1.0
C      1  0.5312220000000  0.4339950000000  0.5064150000000 1.0
C      1  0.5351160000000  0.5358320000000  0.5505180000000 1.0
END
