TITL C-8692-4986-230 3.65566934430234e-06 125000 -370.261835453787 0 0 60 (C1) n - 1
REM
REM in /home/bkarasulu/CARBON/AIRSS/Generating-Clusters/EDIP-Nigel-Params/Higher-Symm/Box-15A/Only-C60/SD-CG/HFTN-CG
REM
REM
REM
REM
REM
REM ./C.cell (414f73aa93bd7a1190c7fd0f31ff2f98)
REM
REM compiler GCC version 9.2.1 20190827 (Red Hat 9.2.1-1)
REM options -cpp -mtune=generic -march=x86-64 -g -O0 -fpre-include=/usr/include/finclude/math-vector-fortran.h
REM seed -205397818 1734804111 1408593522 -2036926940 910302161 -1372308730 1833342925 1847323355 541427080 1003971876 932099969 -757624115 1957324202 -8104295 -586326042 -1670645167 502674073 -1454699080 -1917897786 1871519711 -582556370 659928789 469270412 237804365 -1607651687 -65182685 1463947908 1686447626 -2132223221 -1792782956 62022917 -182458255 893707642
REM
CELL 1.54180   50.00000   50.00000   50.00000   90.00000   90.00000   90.00000
LATT -1
SFAC C  
C      1  0.4732700000000  0.4683860000000  0.4519680000000 1.0
C      1  0.5265050000000  0.4676950000000  0.4499360000000 1.0
C      1  0.4712270000000  0.5147030000000  0.5580820000000 1.0
C      1  0.5290830000000  0.5160800000000  0.5520200000000 1.0
C      1  0.5210850000000  0.5561680000000  0.5220520000000 1.0
C      1  0.4684010000000  0.5599160000000  0.5380420000000 1.0
C      1  0.4395210000000  0.4949700000000  0.5277640000000 1.0
C      1  0.5657660000000  0.4973350000000  0.5244150000000 1.0
C      1  0.5160150000000  0.4303090000000  0.5156100000000 1.0
C      1  0.4873840000000  0.4290490000000  0.5161950000000 1.0
C      1  0.4408630000000  0.5061040000000  0.4539470000000 1.0
C      1  0.5593270000000  0.5067730000000  0.4496270000000 1.0
C      1  0.4574620000000  0.4701460000000  0.5252790000000 1.0
C      1  0.5476820000000  0.4724850000000  0.5235630000000 1.0
C      1  0.4341350000000  0.4685380000000  0.4824680000000 1.0
C      1  0.5660880000000  0.4695380000000  0.4783150000000 1.0
C      1  0.4734740000000  0.5109990000000  0.4979850000000 1.0
C      1  0.5307050000000  0.5113750000000  0.4983080000000 1.0
C      1  0.4848960000000  0.4928480000000  0.4417970000000 1.0
C      1  0.5145780000000  0.4917870000000  0.4394140000000 1.0
C      1  0.5700150000000  0.4968080000000  0.4737200000000 1.0
C      1  0.4317020000000  0.4961960000000  0.4785820000000 1.0
C      1  0.5086930000000  0.5776370000000  0.4511530000000 1.0
C      1  0.4826900000000  0.5829420000000  0.4611340000000 1.0
C      1  0.4446090000000  0.5098800000000  0.5511570000000 1.0
C      1  0.5562100000000  0.5138080000000  0.5451390000000 1.0
C      1  0.5126180000000  0.5390410000000  0.5446220000000 1.0
C      1  0.4836190000000  0.5385550000000  0.5480750000000 1.0
C      1  0.4860740000000  0.4848710000000  0.4848330000000 1.0
C      1  0.5165100000000  0.4865600000000  0.4823180000000 1.0
C      1  0.5610700000000  0.5113450000000  0.4981240000000 1.0
C      1  0.4433160000000  0.5104200000000  0.5020980000000 1.0
C      1  0.5354760000000  0.5121320000000  0.4359400000000 1.0
C      1  0.4642050000000  0.5138420000000  0.4408470000000 1.0
C      1  0.5150770000000  0.4460640000000  0.4658950000000 1.0
C      1  0.4849440000000  0.4455270000000  0.4661540000000 1.0
C      1  0.5169510000000  0.5504610000000  0.4485290000000 1.0
C      1  0.4620670000000  0.5646170000000  0.4532830000000 1.0
C      1  0.5201380000000  0.4877100000000  0.5199360000000 1.0
C      1  0.4871500000000  0.4794540000000  0.5160240000000 1.0
C      1  0.5053160000000  0.5796500000000  0.5199370000000 1.0
C      1  0.4776900000000  0.5753170000000  0.5164160000000 1.0
C      1  0.4874370000000  0.4920570000000  0.5653630000000 1.0
C      1  0.5161260000000  0.4932360000000  0.5635810000000 1.0
C      1  0.4722930000000  0.5613680000000  0.4899640000000 1.0
C      1  0.5292330000000  0.5542000000000  0.4739450000000 1.0
C      1  0.4878710000000  0.5360790000000  0.4904430000000 1.0
C      1  0.5173050000000  0.5396170000000  0.4965220000000 1.0
C      1  0.5528240000000  0.4560480000000  0.4987660000000 1.0
C      1  0.4480540000000  0.4535490000000  0.5015070000000 1.0
C      1  0.5312430000000  0.4702070000000  0.5675500000000 1.0
C      1  0.4744250000000  0.4677890000000  0.5696790000000 1.0
C      1  0.4744700000000  0.4295680000000  0.5412780000000 1.0
C      1  0.5303440000000  0.4319270000000  0.5397760000000 1.0
C      1  0.4617970000000  0.4531660000000  0.5496280000000 1.0
C      1  0.5437320000000  0.4552220000000  0.5477760000000 1.0
C      1  0.5302200000000  0.5383030000000  0.4272740000000 1.0
C      1  0.4677780000000  0.5414240000000  0.4390970000000 1.0
C      1  0.5268070000000  0.4449920000000  0.4930630000000 1.0
C      1  0.4744330000000  0.4432090000000  0.4940850000000 1.0
END
