TITL C-8691-6797-79 8.40839727769619e-06 125000 -359.085756023304 0 0 60 (C1) n - 1
REM
REM in /home/bkarasulu/CARBON/AIRSS/Generating-Clusters/EDIP-Nigel-Params/Higher-Symm/Box-15A/Only-C60/SD-CG/HFTN-CG
REM
REM
REM
REM
REM
REM ./C.cell (414f73aa93bd7a1190c7fd0f31ff2f98)
REM
REM compiler GCC version 9.2.1 20190827 (Red Hat 9.2.1-1)
REM options -cpp -mtune=generic -march=x86-64 -g -O0 -fpre-include=/usr/include/finclude/math-vector-fortran.h
REM seed -882837720 504800751 -1375120127 -786605937 1542678916 -1984290150 1245034354 564569800 -760404416 780767528 1835968565 -305100637 -1338873332 1864643653 1386342248 553085872 -807474240 -2010071005 1698819321 -302597618 -1095140883 -637830077 -1797987391 -920842999 228306991 215713364 -1516644514 760088061 220241202 -1552473667 -693915671 -33630822 1346850307
REM
CELL 1.54180   50.00000   50.00000   50.00000   90.00000   90.00000   90.00000
LATT -1
SFAC C  
C      1  0.5752670000000  0.5287150000000  0.5142450000000 1.0
C      1  0.4403130000000  0.5459250000000  0.5155730000000 1.0
C      1  0.4795770000000  0.4172890000000  0.5154340000000 1.0
C      1  0.5744610000000  0.5279240000000  0.4842920000000 1.0
C      1  0.4408040000000  0.5449920000000  0.4856570000000 1.0
C      1  0.4820990000000  0.4199070000000  0.4865610000000 1.0
C      1  0.5734440000000  0.4783100000000  0.5138320000000 1.0
C      1  0.4378970000000  0.4541750000000  0.5135430000000 1.0
C      1  0.4834990000000  0.5770590000000  0.5155340000000 1.0
C      1  0.5739800000000  0.4758820000000  0.4840680000000 1.0
C      1  0.4389400000000  0.4539990000000  0.4833470000000 1.0
C      1  0.4832490000000  0.5720530000000  0.4861790000000 1.0
C      1  0.4772850000000  0.4809120000000  0.4847220000000 1.0
C      1  0.5261790000000  0.4797900000000  0.4867320000000 1.0
C      1  0.5017060000000  0.5240850000000  0.4772870000000 1.0
C      1  0.4773890000000  0.4743150000000  0.5143800000000 1.0
C      1  0.5274290000000  0.4660690000000  0.5130180000000 1.0
C      1  0.5014550000000  0.5313180000000  0.5245910000000 1.0
C      1  0.4767840000000  0.5109650000000  0.4873440000000 1.0
C      1  0.5271270000000  0.5129360000000  0.4875460000000 1.0
C      1  0.5017640000000  0.4675690000000  0.4732330000000 1.0
C      1  0.4775230000000  0.5134870000000  0.5177400000000 1.0
C      1  0.5275190000000  0.5255490000000  0.5135660000000 1.0
C      1  0.5017640000000  0.4608010000000  0.5275610000000 1.0
C      1  0.4534630000000  0.4142500000000  0.5250030000000 1.0
C      1  0.5982290000000  0.5181960000000  0.5271040000000 1.0
C      1  0.4408810000000  0.5717630000000  0.5268110000000 1.0
C      1  0.4583330000000  0.4157630000000  0.4723350000000 1.0
C      1  0.5971220000000  0.5176250000000  0.4706790000000 1.0
C      1  0.4413620000000  0.5696170000000  0.4718450000000 1.0
C      1  0.4609810000000  0.5901070000000  0.5265680000000 1.0
C      1  0.5952150000000  0.4910830000000  0.5262020000000 1.0
C      1  0.4312240000000  0.4297570000000  0.5261660000000 1.0
C      1  0.4636890000000  0.5851460000000  0.4704390000000 1.0
C      1  0.5944450000000  0.4905010000000  0.4714410000000 1.0
C      1  0.4347690000000  0.4292340000000  0.4702890000000 1.0
C      1  0.5016840000000  0.4760840000000  0.5530330000000 1.0
C      1  0.5270470000000  0.5193370000000  0.5573330000000 1.0
C      1  0.4754580000000  0.5184610000000  0.5612650000000 1.0
C      1  0.5020870000000  0.4751090000000  0.4448060000000 1.0
C      1  0.5267460000000  0.5184120000000  0.4412000000000 1.0
C      1  0.4749450000000  0.5175250000000  0.4423180000000 1.0
C      1  0.5010580000000  0.5339700000000  0.5630320000000 1.0
C      1  0.5272610000000  0.4904460000000  0.5548210000000 1.0
C      1  0.4759710000000  0.4903570000000  0.5551880000000 1.0
C      1  0.5005100000000  0.5333110000000  0.4395730000000 1.0
C      1  0.5276530000000  0.4895750000000  0.4419290000000 1.0
C      1  0.4760350000000  0.4887410000000  0.4406850000000 1.0
C      1  0.4543820000000  0.4734870000000  0.4682220000000 1.0
C      1  0.5488830000000  0.4736820000000  0.4691080000000 1.0
C      1  0.5009550000000  0.5536320000000  0.4726340000000 1.0
C      1  0.4525940000000  0.4735200000000  0.5300690000000 1.0
C      1  0.5490010000000  0.4745800000000  0.5293720000000 1.0
C      1  0.4970700000000  0.5591110000000  0.5334160000000 1.0
C      1  0.4537280000000  0.5223820000000  0.4724240000000 1.0
C      1  0.5485070000000  0.5248770000000  0.4706810000000 1.0
C      1  0.5000840000000  0.4390310000000  0.4770640000000 1.0
C      1  0.4535170000000  0.5247280000000  0.5307530000000 1.0
C      1  0.5504870000000  0.5299680000000  0.5295960000000 1.0
C      1  0.4971730000000  0.4326040000000  0.5306080000000 1.0
END
