TITL C-8696-5006-257 -2.4134591742911e-06 125000 -361.909052497873 0 0 60 (C1) n - 1
REM
REM in /home/bkarasulu/CARBON/AIRSS/Generating-Clusters/EDIP-Nigel-Params/Higher-Symm/Box-15A/Only-C60/SD-CG/HFTN-CG
REM
REM
REM
REM
REM
REM ./C.cell (414f73aa93bd7a1190c7fd0f31ff2f98)
REM
REM compiler GCC version 9.2.1 20190827 (Red Hat 9.2.1-1)
REM options -cpp -mtune=generic -march=x86-64 -g -O0 -fpre-include=/usr/include/finclude/math-vector-fortran.h
REM seed 1260382817 -2016164769 -615319343 584880928 1099306286 -22020851 1768959311 1829411109 -1617350209 -1492755238 -1860691377 253274039 -1304703949 929713009 1903756987 -242171839 -1941593231 1960090833 864798551 -1400388030 1177210630 -1408238013 -1949547400 -1762787968 42353023 -422781130 -340013946 -381798737 174925807 1125198512 -1390786786 2041428926 83137986
REM
CELL 1.54180   50.00000   50.00000   50.00000   90.00000   90.00000   90.00000
LATT -1
SFAC C  
C      1  0.5091350000000  0.4455580000000  0.4414850000000 1.0
C      1  0.5473670000000  0.4740830000000  0.4437040000000 1.0
C      1  0.5478070000000  0.5209180000000  0.4459910000000 1.0
C      1  0.5137730000000  0.5495430000000  0.4462480000000 1.0
C      1  0.4700150000000  0.5416180000000  0.4449300000000 1.0
C      1  0.4457690000000  0.5019610000000  0.4437370000000 1.0
C      1  0.4633510000000  0.4582610000000  0.4418660000000 1.0
C      1  0.5733370000000  0.5146450000000  0.5318610000000 1.0
C      1  0.5356010000000  0.5697330000000  0.5326580000000 1.0
C      1  0.4806800000000  0.5758130000000  0.5368100000000 1.0
C      1  0.4263790000000  0.5175950000000  0.5323270000000 1.0
C      1  0.4328080000000  0.4651520000000  0.5368900000000 1.0
C      1  0.4828650000000  0.4286460000000  0.5367450000000 1.0
C      1  0.5572080000000  0.4494990000000  0.5289880000000 1.0
C      1  0.5502820000000  0.4709890000000  0.4724140000000 1.0
C      1  0.5525340000000  0.5219360000000  0.4745970000000 1.0
C      1  0.5151060000000  0.5559790000000  0.4745900000000 1.0
C      1  0.4654280000000  0.5463810000000  0.4730710000000 1.0
C      1  0.4412640000000  0.5013980000000  0.4725220000000 1.0
C      1  0.4606850000000  0.4542450000000  0.4704560000000 1.0
C      1  0.5094380000000  0.4405440000000  0.4700200000000 1.0
C      1  0.4457170000000  0.5260780000000  0.5504940000000 1.0
C      1  0.4461050000000  0.4722510000000  0.5590000000000 1.0
C      1  0.4876210000000  0.4416350000000  0.5596920000000 1.0
C      1  0.5368350000000  0.4537710000000  0.5475030000000 1.0
C      1  0.5604070000000  0.5004590000000  0.5520560000000 1.0
C      1  0.5374520000000  0.5491940000000  0.5513250000000 1.0
C      1  0.4847480000000  0.5585990000000  0.5568040000000 1.0
C      1  0.4829270000000  0.4393610000000  0.4837140000000 1.0
C      1  0.5339920000000  0.4489430000000  0.4846800000000 1.0
C      1  0.5580940000000  0.4955850000000  0.4875600000000 1.0
C      1  0.5379460000000  0.5433590000000  0.4892500000000 1.0
C      1  0.4884190000000  0.5582280000000  0.4876790000000 1.0
C      1  0.4479530000000  0.5268050000000  0.4870840000000 1.0
C      1  0.4440280000000  0.4742710000000  0.4850730000000 1.0
C      1  0.4843890000000  0.5732550000000  0.5106290000000 1.0
C      1  0.4385470000000  0.5337080000000  0.5133820000000 1.0
C      1  0.4346290000000  0.4687940000000  0.5105950000000 1.0
C      1  0.4810660000000  0.4315040000000  0.5103300000000 1.0
C      1  0.5377200000000  0.4399020000000  0.5117590000000 1.0
C      1  0.5676380000000  0.4936800000000  0.5146080000000 1.0
C      1  0.5480990000000  0.5530520000000  0.5144190000000 1.0
C      1  0.5180600000000  0.4766960000000  0.5479570000000 1.0
C      1  0.5322150000000  0.5011980000000  0.5580330000000 1.0
C      1  0.5197700000000  0.5268610000000  0.5531280000000 1.0
C      1  0.4923830000000  0.5321820000000  0.5601330000000 1.0
C      1  0.4709930000000  0.5136250000000  0.5550340000000 1.0
C      1  0.4702670000000  0.4856710000000  0.5622100000000 1.0
C      1  0.4936950000000  0.4686260000000  0.5633440000000 1.0
C      1  0.4474360000000  0.4777720000000  0.4299430000000 1.0
C      1  0.4844400000000  0.4457900000000  0.4285250000000 1.0
C      1  0.5325960000000  0.4549810000000  0.4297260000000 1.0
C      1  0.5556180000000  0.4980400000000  0.4320810000000 1.0
C      1  0.5374560000000  0.5432520000000  0.4328250000000 1.0
C      1  0.4904740000000  0.5555390000000  0.4319360000000 1.0
C      1  0.4512200000000  0.5262830000000  0.4311770000000 1.0
C      1  0.4994370000000  0.4983810000000  0.4487640000000 1.0
C      1  0.4997930000000  0.4955190000000  0.5005400000000 1.0
C      1  0.5095200000000  0.4822660000000  0.5213460000000 1.0
C      1  0.4985710000000  0.4988190000000  0.4743610000000 1.0
END
