TITL C-8698-8182-251 -9.18551684405232e-07 125000 -366.852967320432 0 0 60 (C1) n - 1
REM
REM in /home/bkarasulu/CARBON/AIRSS/Generating-Clusters/EDIP-Nigel-Params/Higher-Symm/Box-15A/Only-C60/SD-CG/HFTN-CG
REM
REM
REM
REM
REM
REM ./C.cell (414f73aa93bd7a1190c7fd0f31ff2f98)
REM
REM compiler GCC version 9.2.1 20190827 (Red Hat 9.2.1-1)
REM options -cpp -mtune=generic -march=x86-64 -g -O0 -fpre-include=/usr/include/finclude/math-vector-fortran.h
REM seed 35829469 -1058403459 -1401055322 1618552580 -868006797 1918818003 -21977714 1273441295 2143527348 797705584 -1221176232 -2071167233 -208801980 -1877543813 1382198388 -1952817165 1879247029 161496339 1558000324 718138537 1804452159 -1204324300 1102527475 -1720583306 1616682172 -929363420 1136705375 -1748983949 1796322510 205163943 -1729320566 -1870173715 -2022227195
REM
CELL 1.54180   50.00000   50.00000   50.00000   90.00000   90.00000   90.00000
LATT -1
SFAC C  
C      1  0.5535140000000  0.5302950000000  0.5278310000000 1.0
C      1  0.4484970000000  0.4505210000000  0.5208230000000 1.0
C      1  0.4585470000000  0.5034760000000  0.5602230000000 1.0
C      1  0.5031570000000  0.5284870000000  0.5291060000000 1.0
C      1  0.4449930000000  0.4944910000000  0.4569110000000 1.0
C      1  0.5270160000000  0.4950850000000  0.5515900000000 1.0
C      1  0.4763300000000  0.4378250000000  0.5269560000000 1.0
C      1  0.5383840000000  0.5200250000000  0.4889180000000 1.0
C      1  0.4466220000000  0.4785370000000  0.5208840000000 1.0
C      1  0.5170250000000  0.4959100000000  0.4835960000000 1.0
C      1  0.5130140000000  0.4426680000000  0.4954610000000 1.0
C      1  0.5601300000000  0.4844460000000  0.5028140000000 1.0
C      1  0.4785770000000  0.5174970000000  0.4895360000000 1.0
C      1  0.5305850000000  0.5603400000000  0.5338880000000 1.0
C      1  0.4969970000000  0.5581770000000  0.4487920000000 1.0
C      1  0.5240330000000  0.5452510000000  0.5600000000000 1.0
C      1  0.4856400000000  0.5069840000000  0.5159190000000 1.0
C      1  0.4840260000000  0.5148890000000  0.5719920000000 1.0
C      1  0.4520610000000  0.4527090000000  0.4708030000000 1.0
C      1  0.4458980000000  0.5515770000000  0.5319850000000 1.0
C      1  0.4320770000000  0.4724620000000  0.4689160000000 1.0
C      1  0.5616690000000  0.4784850000000  0.4737820000000 1.0
C      1  0.4813760000000  0.5686690000000  0.5076490000000 1.0
C      1  0.5010220000000  0.5227120000000  0.4183940000000 1.0
C      1  0.5227940000000  0.5541250000000  0.4597720000000 1.0
C      1  0.4595540000000  0.4759780000000  0.5677980000000 1.0
C      1  0.4777030000000  0.4634240000000  0.4661330000000 1.0
C      1  0.5680400000000  0.5110160000000  0.5122370000000 1.0
C      1  0.5734650000000  0.4993210000000  0.4590250000000 1.0
C      1  0.5403520000000  0.5211240000000  0.5518800000000 1.0
C      1  0.5418260000000  0.4691880000000  0.5479170000000 1.0
C      1  0.4744550000000  0.4879570000000  0.4509570000000 1.0
C      1  0.4869950000000  0.4698650000000  0.5626840000000 1.0
C      1  0.4936570000000  0.5381360000000  0.5568470000000 1.0
C      1  0.4977050000000  0.4500850000000  0.4502590000000 1.0
C      1  0.4650340000000  0.5708570000000  0.5304030000000 1.0
C      1  0.5346030000000  0.4392920000000  0.5159770000000 1.0
C      1  0.5261970000000  0.5133020000000  0.4283530000000 1.0
C      1  0.4887610000000  0.5319430000000  0.4423300000000 1.0
C      1  0.4913400000000  0.5096580000000  0.4641030000000 1.0
C      1  0.4643220000000  0.5596100000000  0.4865240000000 1.0
C      1  0.5039290000000  0.4924700000000  0.5694390000000 1.0
C      1  0.5015810000000  0.4820150000000  0.5118950000000 1.0
C      1  0.5238010000000  0.5456000000000  0.4877750000000 1.0
C      1  0.4575780000000  0.5038750000000  0.5295190000000 1.0
C      1  0.4875870000000  0.4273330000000  0.5001420000000 1.0
C      1  0.4395130000000  0.5201170000000  0.4677270000000 1.0
C      1  0.5222840000000  0.4461380000000  0.5426970000000 1.0
C      1  0.5087560000000  0.5540530000000  0.5121360000000 1.0
C      1  0.5572570000000  0.4623730000000  0.5215420000000 1.0
C      1  0.4427690000000  0.5278010000000  0.5176040000000 1.0
C      1  0.4547650000000  0.4348450000000  0.4943820000000 1.0
C      1  0.5579200000000  0.5218800000000  0.4657760000000 1.0
C      1  0.5215260000000  0.4478050000000  0.4679000000000 1.0
C      1  0.5264860000000  0.4845630000000  0.4363620000000 1.0
C      1  0.4541530000000  0.5323480000000  0.4896040000000 1.0
C      1  0.4962580000000  0.4597350000000  0.5356720000000 1.0
C      1  0.5328770000000  0.4759060000000  0.4648340000000 1.0
C      1  0.5409040000000  0.5340170000000  0.4452140000000 1.0
C      1  0.5020620000000  0.4707250000000  0.4298120000000 1.0
END
