TITL C-8699-7882-201 -1.48797949361599e-06 125000 -369.825539590245 0 0 60 (C1) n - 1
REM
REM in /home/bkarasulu/CARBON/AIRSS/Generating-Clusters/EDIP-Nigel-Params/Higher-Symm/Box-15A/Only-C60/SD-CG/HFTN-CG
REM
REM
REM
REM
REM
REM ./C.cell (414f73aa93bd7a1190c7fd0f31ff2f98)
REM
REM compiler GCC version 9.2.1 20190827 (Red Hat 9.2.1-1)
REM options -cpp -mtune=generic -march=x86-64 -g -O0 -fpre-include=/usr/include/finclude/math-vector-fortran.h
REM seed -1482029707 1276962721 -1122650933 -1127948597 -165035871 681277000 1992907182 -892692303 1805673356 -590197968 -1553031572 397070951 1510827109 -740491252 658339697 1350123358 -1835869212 8879204 -980191600 -1464417250 -1920842776 -100238944 344552952 2007819939 886831592 684029340 -1067882295 883435197 -748776983 -1940477549 1889611126 2059847346 -435619287
REM
CELL 1.54180   50.00000   50.00000   50.00000   90.00000   90.00000   90.00000
LATT -1
SFAC C  
C      1  0.5290590000000  0.5142800000000  0.5639520000000 1.0
C      1  0.5250410000000  0.4854280000000  0.5641530000000 1.0
C      1  0.4978940000000  0.4748530000000  0.5629460000000 1.0
C      1  0.4756290000000  0.4943700000000  0.5612240000000 1.0
C      1  0.4794700000000  0.5228770000000  0.5680340000000 1.0
C      1  0.5074390000000  0.5328720000000  0.5700070000000 1.0
C      1  0.5253690000000  0.4863060000000  0.4378550000000 1.0
C      1  0.5239190000000  0.5154060000000  0.4377840000000 1.0
C      1  0.4980020000000  0.5289620000000  0.4369690000000 1.0
C      1  0.4736800000000  0.5130210000000  0.4367940000000 1.0
C      1  0.4753130000000  0.4840460000000  0.4340460000000 1.0
C      1  0.5010350000000  0.4705530000000  0.4370580000000 1.0
C      1  0.5520500000000  0.4730560000000  0.5312160000000 1.0
C      1  0.5027830000000  0.4418860000000  0.5291290000000 1.0
C      1  0.4512790000000  0.4691640000000  0.5289150000000 1.0
C      1  0.4505960000000  0.5206880000000  0.5320820000000 1.0
C      1  0.4890460000000  0.5536000000000  0.5353640000000 1.0
C      1  0.5499550000000  0.5315050000000  0.5288290000000 1.0
C      1  0.5489110000000  0.5312890000000  0.4709880000000 1.0
C      1  0.4974510000000  0.5569810000000  0.4713720000000 1.0
C      1  0.4488590000000  0.5251050000000  0.4716540000000 1.0
C      1  0.4524510000000  0.4665600000000  0.4676390000000 1.0
C      1  0.5051950000000  0.4412390000000  0.4704560000000 1.0
C      1  0.5528970000000  0.4743090000000  0.4705330000000 1.0
C      1  0.4967730000000  0.4197150000000  0.5135930000000 1.0
C      1  0.4303870000000  0.4649730000000  0.5112030000000 1.0
C      1  0.4296130000000  0.5303300000000  0.5152610000000 1.0
C      1  0.4845330000000  0.5749790000000  0.5164050000000 1.0
C      1  0.5699580000000  0.5408120000000  0.5122570000000 1.0
C      1  0.5667270000000  0.4571400000000  0.5138780000000 1.0
C      1  0.4873430000000  0.5753280000000  0.4896500000000 1.0
C      1  0.4282370000000  0.5322830000000  0.4885680000000 1.0
C      1  0.4306560000000  0.4635130000000  0.4844390000000 1.0
C      1  0.4989040000000  0.4197290000000  0.4867470000000 1.0
C      1  0.5677100000000  0.4576350000000  0.4870320000000 1.0
C      1  0.5700490000000  0.5416220000000  0.4854900000000 1.0
C      1  0.4640440000000  0.5414430000000  0.5493980000000 1.0
C      1  0.5085210000000  0.5586770000000  0.5571780000000 1.0
C      1  0.5536090000000  0.5257650000000  0.5560140000000 1.0
C      1  0.5472270000000  0.4686890000000  0.5583320000000 1.0
C      1  0.4949220000000  0.4476590000000  0.5554290000000 1.0
C      1  0.4490040000000  0.4879120000000  0.5506880000000 1.0
C      1  0.4516970000000  0.4692410000000  0.4397870000000 1.0
C      1  0.5018800000000  0.4428890000000  0.4427490000000 1.0
C      1  0.5499800000000  0.4732150000000  0.4428540000000 1.0
C      1  0.5471570000000  0.5303310000000  0.4431880000000 1.0
C      1  0.4958310000000  0.5566080000000  0.4434780000000 1.0
C      1  0.4489740000000  0.5249780000000  0.4436520000000 1.0
C      1  0.4736660000000  0.5115380000000  0.5141660000000 1.0
C      1  0.4984450000000  0.5288210000000  0.5196200000000 1.0
C      1  0.5273400000000  0.5170890000000  0.5158670000000 1.0
C      1  0.5281310000000  0.4859020000000  0.5199980000000 1.0
C      1  0.5031530000000  0.4673980000000  0.5145590000000 1.0
C      1  0.4756380000000  0.4812590000000  0.5160300000000 1.0
C      1  0.4757010000000  0.4819810000000  0.4778120000000 1.0
C      1  0.5031660000000  0.4674310000000  0.4837060000000 1.0
C      1  0.5285950000000  0.4858750000000  0.4821050000000 1.0
C      1  0.5273150000000  0.5169280000000  0.4853500000000 1.0
C      1  0.4991210000000  0.5291940000000  0.4805630000000 1.0
C      1  0.4726680000000  0.5127630000000  0.4839570000000 1.0
END
