TITL C-8691-6797-181 1.82234033288405e-05 125000 -362.298104014617 0 0 60 (C1) n - 1
REM
REM in /home/bkarasulu/CARBON/AIRSS/Generating-Clusters/EDIP-Nigel-Params/Higher-Symm/Box-15A/Only-C60/SD-CG/HFTN-CG
REM
REM
REM
REM
REM
REM ./C.cell (414f73aa93bd7a1190c7fd0f31ff2f98)
REM
REM compiler GCC version 9.2.1 20190827 (Red Hat 9.2.1-1)
REM options -cpp -mtune=generic -march=x86-64 -g -O0 -fpre-include=/usr/include/finclude/math-vector-fortran.h
REM seed -667994124 -2022762512 839316424 -765565374 510942335 -651601529 2081510013 1878650842 7103319 2122828645 540915868 650096607 1442635854 862731127 1195936276 1353503259 399091032 -302176427 2031405932 809836589 -2043439711 849432185 1422875348 1755534244 720825213 1055183346 1533493559 1670331394 -301234102 -252331713 70648405 597355155 -334345891
REM
CELL 1.54180   50.00000   50.00000   50.00000   90.00000   90.00000   90.00000
LATT -1
SFAC C  
C      1  0.4784170000000  0.5428790000000  0.5635420000000 1.0
C      1  0.5513150000000  0.5456990000000  0.5402410000000 1.0
C      1  0.5516580000000  0.5448680000000  0.4642480000000 1.0
C      1  0.4790250000000  0.5396840000000  0.4397490000000 1.0
C      1  0.4339210000000  0.5417520000000  0.5009590000000 1.0
C      1  0.4803080000000  0.4497410000000  0.5139930000000 1.0
C      1  0.5125130000000  0.4498860000000  0.5231610000000 1.0
C      1  0.5270560000000  0.4536150000000  0.4961120000000 1.0
C      1  0.5055280000000  0.4503360000000  0.4732160000000 1.0
C      1  0.4793680000000  0.4605730000000  0.4855730000000 1.0
C      1  0.5030250000000  0.5395360000000  0.4589190000000 1.0
C      1  0.4589870000000  0.5399090000000  0.4843070000000 1.0
C      1  0.4699580000000  0.5417740000000  0.5343140000000 1.0
C      1  0.5210920000000  0.5435840000000  0.5392620000000 1.0
C      1  0.5414160000000  0.5432810000000  0.4924190000000 1.0
C      1  0.5222960000000  0.5662070000000  0.4956730000000 1.0
C      1  0.5006100000000  0.5647510000000  0.4757740000000 1.0
C      1  0.4751980000000  0.5645740000000  0.4907330000000 1.0
C      1  0.4813550000000  0.5656140000000  0.5196520000000 1.0
C      1  0.5105840000000  0.5664610000000  0.5225370000000 1.0
C      1  0.4326450000000  0.4731200000000  0.4845660000000 1.0
C      1  0.4694520000000  0.4735350000000  0.5577480000000 1.0
C      1  0.5490880000000  0.4745480000000  0.5471080000000 1.0
C      1  0.5616530000000  0.4731260000000  0.4675220000000 1.0
C      1  0.4913470000000  0.4686670000000  0.4291490000000 1.0
C      1  0.4543050000000  0.5385230000000  0.4548590000000 1.0
C      1  0.4405130000000  0.5406970000000  0.5292810000000 1.0
C      1  0.5077100000000  0.5450470000000  0.5657850000000 1.0
C      1  0.5624850000000  0.5461370000000  0.5131410000000 1.0
C      1  0.5298460000000  0.5399530000000  0.4456840000000 1.0
C      1  0.5061460000000  0.4200090000000  0.4749610000000 1.0
C      1  0.4820930000000  0.4089740000000  0.4856160000000 1.0
C      1  0.4827180000000  0.4184720000000  0.5124880000000 1.0
C      1  0.5122520000000  0.4194640000000  0.5205880000000 1.0
C      1  0.5263300000000  0.4147950000000  0.4953540000000 1.0
C      1  0.4890190000000  0.4952950000000  0.5555450000000 1.0
C      1  0.5489230000000  0.4979800000000  0.5296090000000 1.0
C      1  0.5461510000000  0.4978030000000  0.4671260000000 1.0
C      1  0.4752940000000  0.4895760000000  0.4404590000000 1.0
C      1  0.4417840000000  0.4946710000000  0.5019960000000 1.0
C      1  0.5246050000000  0.4601120000000  0.5496480000000 1.0
C      1  0.5558020000000  0.4630200000000  0.4932120000000 1.0
C      1  0.5136000000000  0.4622340000000  0.4460270000000 1.0
C      1  0.4538110000000  0.4597010000000  0.4708500000000 1.0
C      1  0.4599450000000  0.4604930000000  0.5340800000000 1.0
C      1  0.4555050000000  0.4693330000000  0.4439290000000 1.0
C      1  0.4378820000000  0.4745700000000  0.5227970000000 1.0
C      1  0.5070090000000  0.4748570000000  0.5666170000000 1.0
C      1  0.5659050000000  0.4810130000000  0.5129120000000 1.0
C      1  0.5316260000000  0.4845150000000  0.4456480000000 1.0
C      1  0.5261740000000  0.5154420000000  0.4960140000000 1.0
C      1  0.5015010000000  0.5158930000000  0.4782000000000 1.0
C      1  0.4749400000000  0.5141830000000  0.4932870000000 1.0
C      1  0.4829270000000  0.5163300000000  0.5226720000000 1.0
C      1  0.5137630000000  0.5164370000000  0.5255010000000 1.0
C      1  0.4837180000000  0.5165250000000  0.5749410000000 1.0
C      1  0.5642800000000  0.5198330000000  0.5411660000000 1.0
C      1  0.5613760000000  0.5196470000000  0.4555130000000 1.0
C      1  0.4697620000000  0.5147050000000  0.4284000000000 1.0
C      1  0.4224850000000  0.5160410000000  0.5056190000000 1.0
END
