TITL C-8696-5006-191 -2.34915952138334e-06 125000 -361.706656725697 0 0 60 (C6v) n - 1
REM
REM in /home/bkarasulu/CARBON/AIRSS/Generating-Clusters/EDIP-Nigel-Params/Higher-Symm/Box-15A/Only-C60/SD-CG/HFTN-CG
REM
REM
REM
REM
REM
REM ./C.cell (414f73aa93bd7a1190c7fd0f31ff2f98)
REM
REM compiler GCC version 9.2.1 20190827 (Red Hat 9.2.1-1)
REM options -cpp -mtune=generic -march=x86-64 -g -O0 -fpre-include=/usr/include/finclude/math-vector-fortran.h
REM seed 1491685678 -620731734 -1480031160 1471843229 -139788499 -1489092202 -1238767200 363146432 2132852008 1683817551 597536259 -770778085 -1923471587 2101094081 1808571158 694481006 1540012436 835920737 -1380508953 -157333288 -1885964198 1497485572 1556969177 594871672 -1782785593 458238134 563886421 -583169301 -742385968 -1525217797 -2056947493 -602275253 -1019653786
REM
CELL 1.54180   50.00000   50.00000   50.00000   90.00000   90.00000   90.00000
LATT -1
SFAC C  
C      1  0.4606460000000  0.5022430000000  0.4279920000000 1.0
C      1  0.4179620000000  0.5022330000000  0.4980790000000 1.0
C      1  0.4573170000000  0.5021850000000  0.5700880000000 1.0
C      1  0.5393560000000  0.5021460000000  0.5720100000000 1.0
C      1  0.5820400000000  0.5021560000000  0.5019230000000 1.0
C      1  0.5426850000000  0.5022050000000  0.4299140000000 1.0
C      1  0.5469130000000  0.5301740000000  0.5285750000000 1.0
C      1  0.5482000000000  0.5301970000000  0.4736780000000 1.0
C      1  0.5013000000000  0.5302300000000  0.4451150000000 1.0
C      1  0.4531140000000  0.5302410000000  0.4714500000000 1.0
C      1  0.4518280000000  0.5302190000000  0.5263480000000 1.0
C      1  0.4987280000000  0.5301850000000  0.5549100000000 1.0
C      1  0.4525170000000  0.5702260000000  0.4989160000000 1.0
C      1  0.4753110000000  0.5701980000000  0.5406220000000 1.0
C      1  0.5228260000000  0.5701750000000  0.5417360000000 1.0
C      1  0.5475470000000  0.5701810000000  0.5011430000000 1.0
C      1  0.5247540000000  0.5702090000000  0.4594370000000 1.0
C      1  0.4772390000000  0.5702320000000  0.4583240000000 1.0
C      1  0.4658560000000  0.5243000000000  0.5560930000000 1.0
C      1  0.5315020000000  0.5242690000000  0.5576310000000 1.0
C      1  0.5656580000000  0.5242770000000  0.5015480000000 1.0
C      1  0.5341670000000  0.5243160000000  0.4439280000000 1.0
C      1  0.4685200000000  0.5243470000000  0.4423900000000 1.0
C      1  0.4343640000000  0.5243390000000  0.4984720000000 1.0
C      1  0.4731990000000  0.4352700000000  0.4509880000000 1.0
C      1  0.4441620000000  0.4352640000000  0.4986650000000 1.0
C      1  0.4709340000000  0.4352310000000  0.5476500000000 1.0
C      1  0.5267420000000  0.4352040000000  0.5489570000000 1.0
C      1  0.5557780000000  0.4352110000000  0.5012800000000 1.0
C      1  0.5290070000000  0.4352440000000  0.4522950000000 1.0
C      1  0.5239520000000  0.5173800000000  0.5145900000000 1.0
C      1  0.5246090000000  0.5173920000000  0.4865620000000 1.0
C      1  0.5006650000000  0.5174090000000  0.4719800000000 1.0
C      1  0.4760640000000  0.5174150000000  0.4854250000000 1.0
C      1  0.4754070000000  0.5174030000000  0.5134530000000 1.0
C      1  0.4993510000000  0.5173860000000  0.5280350000000 1.0
C      1  0.4863320000000  0.4329820000000  0.4750200000000 1.0
C      1  0.4715420000000  0.4329790000000  0.4993060000000 1.0
C      1  0.4851790000000  0.4329620000000  0.5242570000000 1.0
C      1  0.5136060000000  0.4329490000000  0.5249230000000 1.0
C      1  0.5283960000000  0.4329520000000  0.5006380000000 1.0
C      1  0.5147600000000  0.4329690000000  0.4756860000000 1.0
C      1  0.4586160000000  0.4761210000000  0.4242890000000 1.0
C      1  0.4137440000000  0.4761110000000  0.4979690000000 1.0
C      1  0.4551160000000  0.4760600000000  0.5736700000000 1.0
C      1  0.5413620000000  0.4760190000000  0.5756910000000 1.0
C      1  0.5862340000000  0.4760300000000  0.5020110000000 1.0
C      1  0.5448620000000  0.4760810000000  0.4263090000000 1.0
C      1  0.4230180000000  0.4513130000000  0.4981760000000 1.0
C      1  0.4599360000000  0.4512680000000  0.5657260000000 1.0
C      1  0.5368960000000  0.4512320000000  0.5675300000000 1.0
C      1  0.5769370000000  0.4512410000000  0.5017830000000 1.0
C      1  0.5400190000000  0.4512870000000  0.4342320000000 1.0
C      1  0.4630600000000  0.4513230000000  0.4324290000000 1.0
C      1  0.5012300000000  0.5601600000000  0.4487210000000 1.0
C      1  0.4561980000000  0.5601700000000  0.4733320000000 1.0
C      1  0.4549960000000  0.5601490000000  0.5246370000000 1.0
C      1  0.4988260000000  0.5601170000000  0.5513300000000 1.0
C      1  0.5438570000000  0.5601070000000  0.5267190000000 1.0
C      1  0.5450600000000  0.5601280000000  0.4754140000000 1.0
END
