TITL C-8695-8180-145 -2.88264121395318e-05 125000 -360.576072495316 0 0 60 (C1) n - 1
REM
REM in /home/bkarasulu/CARBON/AIRSS/Generating-Clusters/EDIP-Nigel-Params/Higher-Symm/Box-15A/Only-C60/SD-CG/HFTN-CG
REM
REM
REM
REM
REM
REM ./C.cell (414f73aa93bd7a1190c7fd0f31ff2f98)
REM
REM compiler GCC version 9.2.1 20190827 (Red Hat 9.2.1-1)
REM options -cpp -mtune=generic -march=x86-64 -g -O0 -fpre-include=/usr/include/finclude/math-vector-fortran.h
REM seed 964273930 1760628897 532898554 -890938834 -1046671102 -1069445367 1286768649 954549426 270630023 -613311823 1032152005 231662985 215957415 -1170394617 1390502853 630543984 1293198839 1735096061 289868294 -1028380125 -858742025 213287443 -603837197 1420138972 914109837 -1303610082 -855268036 1012550312 1855989502 113669311 -2112934872 2096937203 -1363147169
REM
CELL 1.54180   50.00000   50.00000   50.00000   90.00000   90.00000   90.00000
LATT -1
SFAC C  
C      1  0.5035060000000  0.5429090000000  0.5562440000000 1.0
C      1  0.5696900000000  0.5077090000000  0.5231860000000 1.0
C      1  0.5023380000000  0.4299930000000  0.4761370000000 1.0
C      1  0.4947430000000  0.4825090000000  0.4418940000000 1.0
C      1  0.5727850000000  0.4738990000000  0.4895630000000 1.0
C      1  0.4899150000000  0.4828910000000  0.5021900000000 1.0
C      1  0.4166720000000  0.5104920000000  0.5639510000000 1.0
C      1  0.5187010000000  0.4415570000000  0.4558760000000 1.0
C      1  0.5424950000000  0.4804240000000  0.4381180000000 1.0
C      1  0.5055790000000  0.4488520000000  0.5544980000000 1.0
C      1  0.4372550000000  0.4978710000000  0.5552120000000 1.0
C      1  0.4581170000000  0.5541220000000  0.5128150000000 1.0
C      1  0.4787880000000  0.5326310000000  0.5155390000000 1.0
C      1  0.5064610000000  0.4946110000000  0.5712300000000 1.0
C      1  0.4881260000000  0.5509790000000  0.4344720000000 1.0
C      1  0.5527970000000  0.4627330000000  0.5324800000000 1.0
C      1  0.4631380000000  0.4534410000000  0.4646000000000 1.0
C      1  0.5283270000000  0.5560610000000  0.5163670000000 1.0
C      1  0.4706460000000  0.5441040000000  0.4572650000000 1.0
C      1  0.5631830000000  0.5200150000000  0.4972700000000 1.0
C      1  0.4836950000000  0.5216980000000  0.4731440000000 1.0
C      1  0.4853790000000  0.4981820000000  0.5511010000000 1.0
C      1  0.5642530000000  0.4986960000000  0.4769850000000 1.0
C      1  0.4678870000000  0.4724330000000  0.4447810000000 1.0
C      1  0.4564130000000  0.4616320000000  0.5294970000000 1.0
C      1  0.5629110000000  0.4486690000000  0.4820890000000 1.0
C      1  0.5275620000000  0.5406170000000  0.4699120000000 1.0
C      1  0.5531310000000  0.5034080000000  0.5641840000000 1.0
C      1  0.4823070000000  0.5266820000000  0.5449210000000 1.0
C      1  0.4422430000000  0.5004750000000  0.4896430000000 1.0
C      1  0.5279580000000  0.4585800000000  0.5135060000000 1.0
C      1  0.5587250000000  0.4984760000000  0.4497060000000 1.0
C      1  0.5085060000000  0.5315250000000  0.4377260000000 1.0
C      1  0.5463810000000  0.5446550000000  0.4932740000000 1.0
C      1  0.4713370000000  0.5063590000000  0.4965230000000 1.0
C      1  0.5738060000000  0.4788280000000  0.5186630000000 1.0
C      1  0.5282300000000  0.5434440000000  0.5425760000000 1.0
C      1  0.4766050000000  0.5737900000000  0.5003150000000 1.0
C      1  0.5047900000000  0.5337540000000  0.4864140000000 1.0
C      1  0.5272890000000  0.5165170000000  0.5705320000000 1.0
C      1  0.4438290000000  0.5295290000000  0.4504390000000 1.0
C      1  0.4264780000000  0.4825220000000  0.5041930000000 1.0
C      1  0.5038850000000  0.5703230000000  0.5091940000000 1.0
C      1  0.4806030000000  0.4564830000000  0.5115650000000 1.0
C      1  0.4375520000000  0.5463240000000  0.4951040000000 1.0
C      1  0.5365970000000  0.4411680000000  0.4900930000000 1.0
C      1  0.4599840000000  0.4824000000000  0.5505240000000 1.0
C      1  0.4657000000000  0.5127200000000  0.4233290000000 1.0
C      1  0.4305370000000  0.4601320000000  0.5186270000000 1.0
C      1  0.4769700000000  0.4405810000000  0.4854560000000 1.0
C      1  0.4309430000000  0.5249910000000  0.4776690000000 1.0
C      1  0.5195530000000  0.4682370000000  0.5693850000000 1.0
C      1  0.5186620000000  0.4669940000000  0.4428460000000 1.0
C      1  0.5728440000000  0.5171840000000  0.5493760000000 1.0
C      1  0.5469980000000  0.4744480000000  0.5595410000000 1.0
C      1  0.4699730000000  0.5685220000000  0.4731200000000 1.0
C      1  0.4941830000000  0.5076910000000  0.4274740000000 1.0
C      1  0.5178280000000  0.4841870000000  0.5032940000000 1.0
C      1  0.5044470000000  0.4455010000000  0.5269530000000 1.0
C      1  0.4497620000000  0.4938390000000  0.4374210000000 1.0
END
