TITL C-8692-4986-70 -8.60717757911233e-06 125000 -366.067167365414 0 0 60 (C1) n - 1
REM
REM in /home/bkarasulu/CARBON/AIRSS/Generating-Clusters/EDIP-Nigel-Params/Higher-Symm/Box-15A/Only-C60/SD-CG/HFTN-CG
REM
REM
REM
REM
REM
REM ./C.cell (414f73aa93bd7a1190c7fd0f31ff2f98)
REM
REM compiler GCC version 9.2.1 20190827 (Red Hat 9.2.1-1)
REM options -cpp -mtune=generic -march=x86-64 -g -O0 -fpre-include=/usr/include/finclude/math-vector-fortran.h
REM seed 1120925105 1132735781 -1554763516 -1261334039 -1909280203 154500850 -904008050 1844378831 -792248046 -1187481150 1535511041 757885784 1445131759 470195933 1667891065 1863976665 -665648033 -501325363 1197185429 -1009601843 658482269 -994616295 -1016111890 -542093528 682836636 -1113576163 -389709843 1989409029 -1989699092 -347129800 -2097515155 1860575438 966053169
REM
CELL 1.54180   50.00000   50.00000   50.00000   90.00000   90.00000   90.00000
LATT -1
SFAC C  
C      1  0.5726900000000  0.5131220000000  0.5208650000000 1.0
C      1  0.5699040000000  0.4862010000000  0.5096590000000 1.0
C      1  0.5687990000000  0.4931280000000  0.4812010000000 1.0
C      1  0.5703950000000  0.5222470000000  0.4834790000000 1.0
C      1  0.4333490000000  0.4892490000000  0.5173560000000 1.0
C      1  0.4359490000000  0.5196820000000  0.5098210000000 1.0
C      1  0.4350670000000  0.5118490000000  0.4795440000000 1.0
C      1  0.4335220000000  0.4819100000000  0.4870590000000 1.0
C      1  0.5021050000000  0.4885740000000  0.4642550000000 1.0
C      1  0.5049100000000  0.5310410000000  0.4925830000000 1.0
C      1  0.5047740000000  0.5061200000000  0.5370660000000 1.0
C      1  0.4956400000000  0.4641040000000  0.5159240000000 1.0
C      1  0.5036370000000  0.5209060000000  0.4639150000000 1.0
C      1  0.5101010000000  0.4815350000000  0.4937780000000 1.0
C      1  0.5064940000000  0.4736710000000  0.5424630000000 1.0
C      1  0.5098930000000  0.5073950000000  0.5082770000000 1.0
C      1  0.5063650000000  0.5078590000000  0.5807660000000 1.0
C      1  0.5087510000000  0.4375190000000  0.5128620000000 1.0
C      1  0.5118960000000  0.4899690000000  0.4230570000000 1.0
C      1  0.5140000000000  0.5760680000000  0.4890880000000 1.0
C      1  0.4841580000000  0.4888080000000  0.5766450000000 1.0
C      1  0.4910300000000  0.5734510000000  0.5079800000000 1.0
C      1  0.4881590000000  0.5102380000000  0.4241330000000 1.0
C      1  0.4882840000000  0.4274730000000  0.4918910000000 1.0
C      1  0.5041340000000  0.5758400000000  0.4625850000000 1.0
C      1  0.5049050000000  0.5339500000000  0.5715390000000 1.0
C      1  0.5072920000000  0.4272410000000  0.5399560000000 1.0
C      1  0.5038130000000  0.4634430000000  0.4276690000000 1.0
C      1  0.4955130000000  0.4276420000000  0.4649640000000 1.0
C      1  0.4896120000000  0.4606680000000  0.5776740000000 1.0
C      1  0.4984400000000  0.5716230000000  0.5348000000000 1.0
C      1  0.4953950000000  0.5384920000000  0.4301370000000 1.0
C      1  0.4696730000000  0.4729820000000  0.4532730000000 1.0
C      1  0.4677560000000  0.5466760000000  0.4694650000000 1.0
C      1  0.4715100000000  0.5231880000000  0.5447040000000 1.0
C      1  0.4608640000000  0.4503390000000  0.5252060000000 1.0
C      1  0.5320420000000  0.5275200000000  0.4523730000000 1.0
C      1  0.5346210000000  0.4567080000000  0.4761340000000 1.0
C      1  0.5368400000000  0.4763630000000  0.5448420000000 1.0
C      1  0.5395840000000  0.5467930000000  0.5222320000000 1.0
C      1  0.5518150000000  0.5257390000000  0.5366550000000 1.0
C      1  0.5457990000000  0.4715830000000  0.5177960000000 1.0
C      1  0.5454820000000  0.4816820000000  0.4672730000000 1.0
C      1  0.5486050000000  0.5395310000000  0.4740910000000 1.0
C      1  0.4567530000000  0.4784520000000  0.5315360000000 1.0
C      1  0.4617250000000  0.5318190000000  0.5186280000000 1.0
C      1  0.4590860000000  0.5189940000000  0.4644380000000 1.0
C      1  0.4576300000000  0.4666220000000  0.4794240000000 1.0
C      1  0.4661330000000  0.5005310000000  0.4423160000000 1.0
C      1  0.4790060000000  0.5472670000000  0.4982060000000 1.0
C      1  0.4657020000000  0.4963090000000  0.5542520000000 1.0
C      1  0.4627640000000  0.4425620000000  0.4968160000000 1.0
C      1  0.5345460000000  0.4982110000000  0.4441510000000 1.0
C      1  0.5361700000000  0.4475660000000  0.5032310000000 1.0
C      1  0.5336150000000  0.5070030000000  0.5533700000000 1.0
C      1  0.5287890000000  0.5497650000000  0.4953190000000 1.0
C      1  0.4859240000000  0.5583890000000  0.4495180000000 1.0
C      1  0.4985350000000  0.4387930000000  0.5632240000000 1.0
C      1  0.4985390000000  0.4414640000000  0.4421900000000 1.0
C      1  0.5026720000000  0.5561300000000  0.5563480000000 1.0
END
