TITL C-8696-5006-200 7.31735431363109e-07 125000 -361.498354603297 0 0 60 (C2) n - 1
REM
REM in /home/bkarasulu/CARBON/AIRSS/Generating-Clusters/EDIP-Nigel-Params/Higher-Symm/Box-15A/Only-C60/SD-CG/HFTN-CG
REM
REM
REM
REM
REM
REM ./C.cell (414f73aa93bd7a1190c7fd0f31ff2f98)
REM
REM compiler GCC version 9.2.1 20190827 (Red Hat 9.2.1-1)
REM options -cpp -mtune=generic -march=x86-64 -g -O0 -fpre-include=/usr/include/finclude/math-vector-fortran.h
REM seed -1811184707 -100799216 -951715177 1764027109 1599389347 -1081702425 -879067362 1149860913 -937323521 -1682716930 -1659438611 15168534 -945892119 1752055712 2076912930 -1186092561 1679171995 -313255552 46179356 -1307310256 -1424602082 405403120 652167450 -992722355 -1904711666 2111480601 -644447419 1267672126 1180276297 701847343 1567167964 -985041921 2098956842
REM
CELL 1.54180   50.00000   50.00000   50.00000   90.00000   90.00000   90.00000
LATT -1
SFAC C  
C      1  0.4872650000000  0.4988250000000  0.4685770000000 1.0
C      1  0.5127360000000  0.4987920000000  0.5314220000000 1.0
C      1  0.5467940000000  0.4751580000000  0.4486200000000 1.0
C      1  0.4532170000000  0.4750730000000  0.5513500000000 1.0
C      1  0.5284990000000  0.5621270000000  0.4850180000000 1.0
C      1  0.4714720000000  0.5620950000000  0.5150580000000 1.0
C      1  0.4635340000000  0.5445800000000  0.4462130000000 1.0
C      1  0.5364450000000  0.5445320000000  0.5538410000000 1.0
C      1  0.4931290000000  0.4829890000000  0.5149140000000 1.0
C      1  0.5068790000000  0.4830110000000  0.4850650000000 1.0
C      1  0.5296120000000  0.5422610000000  0.4411570000000 1.0
C      1  0.4703680000000  0.5421750000000  0.5588950000000 1.0
C      1  0.4731840000000  0.5650390000000  0.4876370000000 1.0
C      1  0.5267850000000  0.5650360000000  0.5124430000000 1.0
C      1  0.5562710000000  0.4557850000000  0.4965750000000 1.0
C      1  0.4437490000000  0.4557540000000  0.5033710000000 1.0
C      1  0.4807600000000  0.5230220000000  0.5760370000000 1.0
C      1  0.5192290000000  0.5231240000000  0.4239910000000 1.0
C      1  0.4424140000000  0.5429370000000  0.5564580000000 1.0
C      1  0.5575660000000  0.5430340000000  0.4435950000000 1.0
C      1  0.4644340000000  0.5075150000000  0.4843460000000 1.0
C      1  0.5355630000000  0.5075130000000  0.5156630000000 1.0
C      1  0.4491640000000  0.5192860000000  0.4426090000000 1.0
C      1  0.5508270000000  0.5192390000000  0.5574150000000 1.0
C      1  0.4492350000000  0.4635730000000  0.4480310000000 1.0
C      1  0.5507820000000  0.4635330000000  0.5519250000000 1.0
C      1  0.5142090000000  0.5427550000000  0.5299330000000 1.0
C      1  0.4857710000000  0.5427850000000  0.4701200000000 1.0
C      1  0.5444410000000  0.4536930000000  0.4690060000000 1.0
C      1  0.4555810000000  0.4536340000000  0.5309370000000 1.0
C      1  0.4696000000000  0.4468910000000  0.4584030000000 1.0
C      1  0.5304250000000  0.4468550000000  0.5415320000000 1.0
C      1  0.5313750000000  0.5003180000000  0.4871480000000 1.0
C      1  0.4686250000000  0.5002880000000  0.5128530000000 1.0
C      1  0.4858720000000  0.5515220000000  0.5362470000000 1.0
C      1  0.5141040000000  0.5515730000000  0.4638170000000 1.0
C      1  0.5132430000000  0.4344420000000  0.4944880000000 1.0
C      1  0.4867880000000  0.4344290000000  0.5054320000000 1.0
C      1  0.4940000000000  0.4983840000000  0.5758350000000 1.0
C      1  0.5060010000000  0.4984800000000  0.4241630000000 1.0
C      1  0.5615850000000  0.5082290000000  0.5323040000000 1.0
C      1  0.4384110000000  0.5082400000000  0.4677070000000 1.0
C      1  0.5651800000000  0.5199810000000  0.4555110000000 1.0
C      1  0.4348110000000  0.5198960000000  0.5445130000000 1.0
C      1  0.5205570000000  0.4750500000000  0.4339460000000 1.0
C      1  0.4794540000000  0.4749590000000  0.5660230000000 1.0
C      1  0.5025000000000  0.4489260000000  0.5508190000000 1.0
C      1  0.4975240000000  0.4489870000000  0.4491190000000 1.0
C      1  0.4854940000000  0.4545480000000  0.5268510000000 1.0
C      1  0.5145270000000  0.4545880000000  0.4730930000000 1.0
C      1  0.4819830000000  0.5001650000000  0.4401740000000 1.0
C      1  0.5180170000000  0.5001000000000  0.5598260000000 1.0
C      1  0.4468340000000  0.4974350000000  0.5326040000000 1.0
C      1  0.5531670000000  0.4975000000000  0.4673930000000 1.0
C      1  0.5471810000000  0.5633640000000  0.5334230000000 1.0
C      1  0.4527890000000  0.5633830000000  0.4666540000000 1.0
C      1  0.4652070000000  0.4434020000000  0.4873170000000 1.0
C      1  0.5348200000000  0.4434030000000  0.5126140000000 1.0
C      1  0.5583970000000  0.4778890000000  0.5277100000000 1.0
C      1  0.4416140000000  0.4778950000000  0.4722630000000 1.0
END
