TITL C-8691-6797-99 -3.77660151019426e-08 125000 -380.830092479444 0 0 60 (C1) n - 1
REM
REM in /home/bkarasulu/CARBON/AIRSS/Generating-Clusters/EDIP-Nigel-Params/Higher-Symm/Box-15A/Only-C60/SD-CG/HFTN-CG
REM
REM
REM
REM
REM
REM ./C.cell (414f73aa93bd7a1190c7fd0f31ff2f98)
REM
REM compiler GCC version 9.2.1 20190827 (Red Hat 9.2.1-1)
REM options -cpp -mtune=generic -march=x86-64 -g -O0 -fpre-include=/usr/include/finclude/math-vector-fortran.h
REM seed -1955717417 -832763377 277805041 -1161029899 -1474133097 -124070755 102852969 800205005 -228850973 -1606367974 -863874813 -387022084 1832690382 -1943450139 2079425602 -888324429 -728516144 -537691841 -1672532325 -547470931 -546307114 -722521741 1468845199 -1471590975 -1937376097 -1140804702 904613676 1588371880 1987357930 -767035175 -110126099 -803570122 1304334653
REM
CELL 1.54180   50.00000   50.00000   50.00000   90.00000   90.00000   90.00000
LATT -1
SFAC C  
C      1  0.4851480000000  0.5092830000000  0.5848580000000 1.0
C      1  0.4852770000000  0.5834950000000  0.5178760000000 1.0
C      1  0.4849900000000  0.5437990000000  0.4263210000000 1.0
C      1  0.4853970000000  0.4423520000000  0.4366680000000 1.0
C      1  0.4849710000000  0.4206930000000  0.5339170000000 1.0
C      1  0.4982740000000  0.4728910000000  0.5001470000000 1.0
C      1  0.4918530000000  0.4909480000000  0.5221460000000 1.0
C      1  0.4951040000000  0.5186850000000  0.5148830000000 1.0
C      1  0.4996500000000  0.5208570000000  0.4846810000000 1.0
C      1  0.4956680000000  0.4923460000000  0.4766830000000 1.0
C      1  0.5297060000000  0.4388940000000  0.4765420000000 1.0
C      1  0.5279520000000  0.4604680000000  0.5487160000000 1.0
C      1  0.5300030000000  0.5361190000000  0.5541330000000 1.0
C      1  0.5297840000000  0.5634240000000  0.4829320000000 1.0
C      1  0.5282500000000  0.5035350000000  0.4365320000000 1.0
C      1  0.5441280000000  0.5421570000000  0.5284490000000 1.0
C      1  0.5444060000000  0.5407450000000  0.4690020000000 1.0
C      1  0.5438400000000  0.4832050000000  0.4519430000000 1.0
C      1  0.5441760000000  0.4493800000000  0.5010040000000 1.0
C      1  0.5434500000000  0.4859930000000  0.5480250000000 1.0
C      1  0.5284620000000  0.5613120000000  0.5129420000000 1.0
C      1  0.5220830000000  0.5284840000000  0.4535540000000 1.0
C      1  0.5284450000000  0.4581830000000  0.4533320000000 1.0
C      1  0.5219270000000  0.4495990000000  0.5206900000000 1.0
C      1  0.5287170000000  0.5069640000000  0.5622550000000 1.0
C      1  0.4813070000000  0.4881080000000  0.4502770000000 1.0
C      1  0.4804950000000  0.4477620000000  0.4952610000000 1.0
C      1  0.4798460000000  0.4795550000000  0.5472790000000 1.0
C      1  0.4813950000000  0.5384710000000  0.5337520000000 1.0
C      1  0.4813910000000  0.5442230000000  0.4736740000000 1.0
C      1  0.4586370000000  0.5502930000000  0.4932190000000 1.0
C      1  0.4584820000000  0.5088100000000  0.4494850000000 1.0
C      1  0.4579920000000  0.4544990000000  0.4758290000000 1.0
C      1  0.4570750000000  0.4617780000000  0.5363740000000 1.0
C      1  0.4578570000000  0.5226790000000  0.5465630000000 1.0
C      1  0.4411060000000  0.5109130000000  0.5237400000000 1.0
C      1  0.4424780000000  0.5250530000000  0.4969120000000 1.0
C      1  0.4423980000000  0.5044950000000  0.4749300000000 1.0
C      1  0.4421800000000  0.4772510000000  0.4878660000000 1.0
C      1  0.4408530000000  0.4805750000000  0.5181240000000 1.0
C      1  0.5031630000000  0.4674870000000  0.5650720000000 1.0
C      1  0.5043000000000  0.5527720000000  0.5525480000000 1.0
C      1  0.5038850000000  0.5668420000000  0.4663050000000 1.0
C      1  0.5034180000000  0.4879330000000  0.4276340000000 1.0
C      1  0.5039740000000  0.4256980000000  0.4879160000000 1.0
C      1  0.4683070000000  0.4610560000000  0.4491390000000 1.0
C      1  0.4675830000000  0.4386540000000  0.5209290000000 1.0
C      1  0.4676120000000  0.5013180000000  0.5642280000000 1.0
C      1  0.4683730000000  0.5609380000000  0.5186740000000 1.0
C      1  0.4681380000000  0.5366070000000  0.4477770000000 1.0
C      1  0.5586900000000  0.5209120000000  0.5144300000000 1.0
C      1  0.5595990000000  0.5207850000000  0.4848690000000 1.0
C      1  0.5577540000000  0.4924390000000  0.4760890000000 1.0
C      1  0.5589000000000  0.4751510000000  0.4997750000000 1.0
C      1  0.5576970000000  0.4929420000000  0.5233830000000 1.0
C      1  0.5085160000000  0.4940940000000  0.5795420000000 1.0
C      1  0.5088100000000  0.5741320000000  0.5307320000000 1.0
C      1  0.5087510000000  0.5518110000000  0.4394380000000 1.0
C      1  0.5087360000000  0.4577630000000  0.4314550000000 1.0
C      1  0.5086430000000  0.4223890000000  0.5185490000000 1.0
END
