TITL C-8695-8180-189 7.46753975722567e-07 125000 -363.610849860552 0 0 60 (C1) n - 1
REM
REM in /home/bkarasulu/CARBON/AIRSS/Generating-Clusters/EDIP-Nigel-Params/Higher-Symm/Box-15A/Only-C60/SD-CG/HFTN-CG
REM
REM
REM
REM
REM
REM ./C.cell (414f73aa93bd7a1190c7fd0f31ff2f98)
REM
REM compiler GCC version 9.2.1 20190827 (Red Hat 9.2.1-1)
REM options -cpp -mtune=generic -march=x86-64 -g -O0 -fpre-include=/usr/include/finclude/math-vector-fortran.h
REM seed -1493903331 -1198317169 -123754178 -661904107 -912046262 -992387843 -1894556347 1699808331 -673783094 1256672351 599554918 -1106960619 -2028429144 1389128070 2019447951 1906502405 702251958 386877824 993827415 -1844967796 1082238023 -1313303794 1510235764 1498964459 1199430956 1905911170 502319137 -1133296561 1470464439 -1816872622 -1788726664 828854394 2560803
REM
CELL 1.54180   50.00000   50.00000   50.00000   90.00000   90.00000   90.00000
LATT -1
SFAC C  
C      1  0.4334390000000  0.5320980000000  0.4743860000000 1.0
C      1  0.4324600000000  0.4753120000000  0.5211430000000 1.0
C      1  0.5181400000000  0.5334870000000  0.4357260000000 1.0
C      1  0.5179690000000  0.4632200000000  0.5647620000000 1.0
C      1  0.5039690000000  0.5628110000000  0.5274320000000 1.0
C      1  0.5032830000000  0.4358560000000  0.4725280000000 1.0
C      1  0.4740710000000  0.5037060000000  0.5697700000000 1.0
C      1  0.4744730000000  0.4937830000000  0.4308720000000 1.0
C      1  0.5730650000000  0.5021160000000  0.5353820000000 1.0
C      1  0.5745030000000  0.5012120000000  0.4682990000000 1.0
C      1  0.5778510000000  0.4760240000000  0.4766940000000 1.0
C      1  0.5776220000000  0.5249650000000  0.5218760000000 1.0
C      1  0.5539820000000  0.5395660000000  0.5213420000000 1.0
C      1  0.5561890000000  0.4588220000000  0.4746970000000 1.0
C      1  0.4838500000000  0.5508010000000  0.5491630000000 1.0
C      1  0.4835660000000  0.4512730000000  0.4576460000000 1.0
C      1  0.4494040000000  0.4851770000000  0.4218130000000 1.0
C      1  0.4497410000000  0.5116080000000  0.5811430000000 1.0
C      1  0.5543440000000  0.4822820000000  0.5410600000000 1.0
C      1  0.5541370000000  0.5189360000000  0.4623810000000 1.0
C      1  0.5365090000000  0.5340760000000  0.5424090000000 1.0
C      1  0.5392210000000  0.4636340000000  0.4534550000000 1.0
C      1  0.4615090000000  0.4605390000000  0.4763840000000 1.0
C      1  0.4590690000000  0.5441340000000  0.5307350000000 1.0
C      1  0.4778850000000  0.4301140000000  0.5112530000000 1.0
C      1  0.4707620000000  0.5583240000000  0.4802770000000 1.0
C      1  0.5154660000000  0.4788260000000  0.5202810000000 1.0
C      1  0.5145500000000  0.5197830000000  0.4821420000000 1.0
C      1  0.4730480000000  0.5044070000000  0.4593370000000 1.0
C      1  0.4714350000000  0.4974350000000  0.5397010000000 1.0
C      1  0.5409500000000  0.5452960000000  0.4953960000000 1.0
C      1  0.5405950000000  0.4540390000000  0.4985860000000 1.0
C      1  0.5005690000000  0.5043200000000  0.5283870000000 1.0
C      1  0.5024300000000  0.4934980000000  0.4732080000000 1.0
C      1  0.4593970000000  0.5358710000000  0.4639030000000 1.0
C      1  0.4597640000000  0.4720530000000  0.5267170000000 1.0
C      1  0.4344990000000  0.5064500000000  0.4855850000000 1.0
C      1  0.4305190000000  0.5026300000000  0.5143650000000 1.0
C      1  0.5345470000000  0.5111250000000  0.4417480000000 1.0
C      1  0.5324480000000  0.4875170000000  0.5602180000000 1.0
C      1  0.5571200000000  0.5457970000000  0.4711510000000 1.0
C      1  0.5523330000000  0.4596400000000  0.5241580000000 1.0
C      1  0.4741310000000  0.4586890000000  0.5035230000000 1.0
C      1  0.4774510000000  0.5449790000000  0.5067130000000 1.0
C      1  0.4329780000000  0.5179710000000  0.5609050000000 1.0
C      1  0.4335970000000  0.4819580000000  0.4435310000000 1.0
C      1  0.5196580000000  0.4331810000000  0.4964500000000 1.0
C      1  0.5166690000000  0.5639750000000  0.4987510000000 1.0
C      1  0.5177890000000  0.5140900000000  0.5516530000000 1.0
C      1  0.5197870000000  0.4841940000000  0.4481350000000 1.0
C      1  0.5034590000000  0.5366560000000  0.4598450000000 1.0
C      1  0.5066370000000  0.4579670000000  0.5393220000000 1.0
C      1  0.4991510000000  0.5633550000000  0.4725140000000 1.0
C      1  0.5039790000000  0.4320180000000  0.5227550000000 1.0
C      1  0.4491010000000  0.4866470000000  0.4675920000000 1.0
C      1  0.4474140000000  0.5172570000000  0.5357580000000 1.0
C      1  0.4943430000000  0.5261230000000  0.5670160000000 1.0
C      1  0.4938920000000  0.4715270000000  0.4356410000000 1.0
C      1  0.5005850000000  0.4728720000000  0.4959010000000 1.0
C      1  0.4986960000000  0.5239840000000  0.5064830000000 1.0
END
