TITL C-8698-8182-60 5.18858089906341e-06 125000 -361.9696804218 0 0 60 (C1) n - 1
REM
REM in /home/bkarasulu/CARBON/AIRSS/Generating-Clusters/EDIP-Nigel-Params/Higher-Symm/Box-15A/Only-C60/SD-CG/HFTN-CG
REM
REM
REM
REM
REM
REM ./C.cell (414f73aa93bd7a1190c7fd0f31ff2f98)
REM
REM compiler GCC version 9.2.1 20190827 (Red Hat 9.2.1-1)
REM options -cpp -mtune=generic -march=x86-64 -g -O0 -fpre-include=/usr/include/finclude/math-vector-fortran.h
REM seed 1324489051 -1445009860 -1386482598 -1242876941 -1531011364 -1293220675 -1577909965 -1205398491 -359226407 354239323 -566985535 -1600636136 1050059552 458866595 -1800321299 806942777 2047962967 1577764560 665154249 -266899846 -1059484081 -1803505703 1607791170 1261040535 -230166720 224966280 -179477764 -539857406 -285991328 1970483825 -3234092 1824759385 -1177064742
REM
CELL 1.54180   50.00000   50.00000   50.00000   90.00000   90.00000   90.00000
LATT -1
SFAC C  
C      1  0.4563680000000  0.4428360000000  0.5455930000000 1.0
C      1  0.4650090000000  0.5355160000000  0.4535860000000 1.0
C      1  0.5041890000000  0.4533830000000  0.5639880000000 1.0
C      1  0.4620120000000  0.5595970000000  0.4675480000000 1.0
C      1  0.5534590000000  0.5118450000000  0.5329680000000 1.0
C      1  0.4947110000000  0.4378010000000  0.5164100000000 1.0
C      1  0.4887550000000  0.5326330000000  0.4380870000000 1.0
C      1  0.5120980000000  0.4322660000000  0.4931320000000 1.0
C      1  0.4809320000000  0.4881340000000  0.4678800000000 1.0
C      1  0.5357990000000  0.5318950000000  0.4339700000000 1.0
C      1  0.4973510000000  0.5740870000000  0.4971830000000 1.0
C      1  0.5016550000000  0.4885380000000  0.5129420000000 1.0
C      1  0.5135410000000  0.5176590000000  0.4456570000000 1.0
C      1  0.4714640000000  0.5107990000000  0.5534030000000 1.0
C      1  0.5442520000000  0.5567080000000  0.4406700000000 1.0
C      1  0.5420970000000  0.4908110000000  0.4855330000000 1.0
C      1  0.4643250000000  0.5132410000000  0.4725780000000 1.0
C      1  0.5307720000000  0.4798610000000  0.5130420000000 1.0
C      1  0.4309010000000  0.4628760000000  0.5057710000000 1.0
C      1  0.5129790000000  0.5689120000000  0.5215920000000 1.0
C      1  0.5482290000000  0.5539560000000  0.4876420000000 1.0
C      1  0.4794370000000  0.4738820000000  0.4963640000000 1.0
C      1  0.5670200000000  0.5071660000000  0.4909040000000 1.0
C      1  0.5544370000000  0.4649500000000  0.5401570000000 1.0
C      1  0.5038160000000  0.5475590000000  0.5401020000000 1.0
C      1  0.4996570000000  0.4970360000000  0.4285940000000 1.0
C      1  0.5477740000000  0.4663120000000  0.4687140000000 1.0
C      1  0.4647940000000  0.4670470000000  0.4528240000000 1.0
C      1  0.4415620000000  0.5074640000000  0.4900300000000 1.0
C      1  0.4494000000000  0.4413970000000  0.4974180000000 1.0
C      1  0.4851380000000  0.4725360000000  0.4325660000000 1.0
C      1  0.4661870000000  0.4343370000000  0.5205490000000 1.0
C      1  0.5406370000000  0.5373570000000  0.5357710000000 1.0
C      1  0.5028120000000  0.5969890000000  0.4817620000000 1.0
C      1  0.5004760000000  0.5139260000000  0.4978730000000 1.0
C      1  0.5427530000000  0.5706080000000  0.4647540000000 1.0
C      1  0.5760270000000  0.5066510000000  0.5171990000000 1.0
C      1  0.4239450000000  0.4887930000000  0.5340480000000 1.0
C      1  0.5078160000000  0.4349740000000  0.4653080000000 1.0
C      1  0.5603130000000  0.4468080000000  0.4848170000000 1.0
C      1  0.4746640000000  0.5307190000000  0.5053990000000 1.0
C      1  0.5404080000000  0.5590210000000  0.5159820000000 1.0
C      1  0.5188400000000  0.5086160000000  0.4748200000000 1.0
C      1  0.5391390000000  0.4423300000000  0.5308600000000 1.0
C      1  0.5113390000000  0.4402520000000  0.5403410000000 1.0
C      1  0.4510780000000  0.4846650000000  0.5061910000000 1.0
C      1  0.4739060000000  0.5581160000000  0.4929350000000 1.0
C      1  0.4907230000000  0.5005390000000  0.5715350000000 1.0
C      1  0.4588230000000  0.4664560000000  0.5607920000000 1.0
C      1  0.5250630000000  0.5917300000000  0.4675010000000 1.0
C      1  0.5391330000000  0.4383190000000  0.5018680000000 1.0
C      1  0.4494750000000  0.4912140000000  0.5493470000000 1.0
C      1  0.5660570000000  0.5334240000000  0.4824580000000 1.0
C      1  0.5254420000000  0.4541630000000  0.4567760000000 1.0
C      1  0.4852380000000  0.4725370000000  0.5713040000000 1.0
C      1  0.4242050000000  0.5256220000000  0.5023720000000 1.0
C      1  0.5436150000000  0.4898080000000  0.5474940000000 1.0
C      1  0.4139560000000  0.5133950000000  0.5242330000000 1.0
C      1  0.4655730000000  0.4461150000000  0.4731800000000 1.0
C      1  0.4784200000000  0.5338120000000  0.5356830000000 1.0
END
