TITL C-8697-8172-177 -0.00290466535041716 125000 -354.58865204432 0 0 60 (Cs) n - 1
REM
REM in /home/bkarasulu/CARBON/AIRSS/Generating-Clusters/EDIP-Nigel-Params/Higher-Symm/Box-15A/Only-C60/SD-CG/HFTN-CG
REM
REM
REM
REM
REM
REM ./C.cell (414f73aa93bd7a1190c7fd0f31ff2f98)
REM
REM compiler GCC version 9.2.1 20190827 (Red Hat 9.2.1-1)
REM options -cpp -mtune=generic -march=x86-64 -g -O0 -fpre-include=/usr/include/finclude/math-vector-fortran.h
REM seed -1328635469 1832021742 -882555130 593910234 -113695262 -76734969 -1719309145 855336536 -1629860379 -1059910833 -94163995 600245589 -1848526190 50812916 -1793999167 1643016743 1125440758 -2146237045 -176633554 -816191163 -2082108700 -2120410246 1262784328 1627801512 933009601 1236744326 -1937005481 -1967916495 -1657694214 279712850 973655213 -206696950 -529750333
REM
CELL 1.54180   50.00000   50.00000   50.00000   90.00000   90.00000   90.00000
LATT -1
SFAC C  
C      1  0.5250250000000  0.4950380000000  0.4774180000000 1.0
C      1  0.4747810000000  0.4951330000000  0.4776140000000 1.0
C      1  0.4280340000000  0.5265860000000  0.5091020000000 1.0
C      1  0.5721350000000  0.5263150000000  0.5085410000000 1.0
C      1  0.4846580000000  0.4707300000000  0.4907400000000 1.0
C      1  0.5151590000000  0.4706730000000  0.4906210000000 1.0
C      1  0.5605780000000  0.5073500000000  0.5235730000000 1.0
C      1  0.4396350000000  0.5075780000000  0.5240430000000 1.0
C      1  0.5239360000000  0.4430880000000  0.4515040000000 1.0
C      1  0.4754740000000  0.4431790000000  0.4516930000000 1.0
C      1  0.5255420000000  0.5727230000000  0.5355610000000 1.0
C      1  0.4750090000000  0.5728180000000  0.5357570000000 1.0
C      1  0.5301580000000  0.4686090000000  0.5161790000000 1.0
C      1  0.4698510000000  0.4687230000000  0.5164130000000 1.0
C      1  0.5622440000000  0.5395390000000  0.4860960000000 1.0
C      1  0.4377990000000  0.5397730000000  0.4865800000000 1.0
C      1  0.4810420000000  0.5200420000000  0.4347280000000 1.0
C      1  0.5185250000000  0.5199720000000  0.4345820000000 1.0
C      1  0.5162480000000  0.5189250000000  0.4988620000000 1.0
C      1  0.4838150000000  0.5189860000000  0.4989890000000 1.0
C      1  0.4621630000000  0.5362320000000  0.4494980000000 1.0
C      1  0.5375790000000  0.5360900000000  0.4492050000000 1.0
C      1  0.5694500000000  0.4512330000000  0.4877460000000 1.0
C      1  0.4302740000000  0.4514950000000  0.4882870000000 1.0
C      1  0.4765340000000  0.5709650000000  0.4893070000000 1.0
C      1  0.5236490000000  0.5708760000000  0.4891240000000 1.0
C      1  0.4856970000000  0.4493180000000  0.5325750000000 1.0
C      1  0.5143650000000  0.4492640000000  0.5324640000000 1.0
C      1  0.5575170000000  0.4577770000000  0.5119010000000 1.0
C      1  0.4424190000000  0.4579930000000  0.5123480000000 1.0
C      1  0.4263130000000  0.4787340000000  0.4848450000000 1.0
C      1  0.5734860000000  0.4784570000000  0.4842730000000 1.0
C      1  0.4758610000000  0.5016920000000  0.5537830000000 1.0
C      1  0.5245630000000  0.5016000000000  0.5535930000000 1.0
C      1  0.5157790000000  0.5460010000000  0.5340760000000 1.0
C      1  0.4846600000000  0.5460590000000  0.5341980000000 1.0
C      1  0.4669810000000  0.4991760000000  0.5252450000000 1.0
C      1  0.5332110000000  0.4990510000000  0.5249880000000 1.0
C      1  0.4842990000000  0.4647190000000  0.4357640000000 1.0
C      1  0.5150680000000  0.4646610000000  0.4356440000000 1.0
C      1  0.5152000000000  0.4234070000000  0.4699550000000 1.0
C      1  0.4842790000000  0.4234660000000  0.4700750000000 1.0
C      1  0.4847450000000  0.4276310000000  0.5009890000000 1.0
C      1  0.5149900000000  0.4275750000000  0.5008720000000 1.0
C      1  0.5148170000000  0.4941230000000  0.4489120000000 1.0
C      1  0.4847640000000  0.4941790000000  0.4490290000000 1.0
C      1  0.4687920000000  0.5436810000000  0.4846840000000 1.0
C      1  0.5312520000000  0.5435630000000  0.4844410000000 1.0
C      1  0.5159530000000  0.5287070000000  0.5595450000000 1.0
C      1  0.4846190000000  0.5287660000000  0.5596670000000 1.0
C      1  0.5136810000000  0.4763340000000  0.5885230000000 1.0
C      1  0.4869190000000  0.4763840000000  0.5886270000000 1.0
C      1  0.4454590000000  0.4951290000000  0.4708080000000 1.0
C      1  0.5542940000000  0.4949240000000  0.4703850000000 1.0
C      1  0.4854430000000  0.5843820000000  0.5120370000000 1.0
C      1  0.5149680000000  0.5843260000000  0.5119220000000 1.0
C      1  0.4659960000000  0.4858030000000  0.5747320000000 1.0
C      1  0.5345310000000  0.4856740000000  0.5744650000000 1.0
C      1  0.4378380000000  0.5225030000000  0.4616780000000 1.0
C      1  0.5619460000000  0.5222690000000  0.4611950000000 1.0
END
