TITL C-8695-8180-138 -7.38112359122084e-07 125000 -363.512396431332 0 0 60 (C1) n - 1
REM
REM in /home/bkarasulu/CARBON/AIRSS/Generating-Clusters/EDIP-Nigel-Params/Higher-Symm/Box-15A/Only-C60/SD-CG/HFTN-CG
REM
REM
REM
REM
REM
REM ./C.cell (414f73aa93bd7a1190c7fd0f31ff2f98)
REM
REM compiler GCC version 9.2.1 20190827 (Red Hat 9.2.1-1)
REM options -cpp -mtune=generic -march=x86-64 -g -O0 -fpre-include=/usr/include/finclude/math-vector-fortran.h
REM seed 825764288 186758500 -1356365651 1346625740 2094774696 1728032145 -622918778 -361480860 1548538194 59694759 1627831215 1620087919 305735380 -163364181 -903261161 -1833126218 515697119 1604050248 -707997785 -2102934769 -1357060894 1735150115 1797954878 661605035 -1736509670 1039345435 600431983 686692665 1009240051 1002305175 -738228965 1525838696 1857945454
REM
CELL 1.54180   50.00000   50.00000   50.00000   90.00000   90.00000   90.00000
LATT -1
SFAC C  
C      1  0.4431920000000  0.5178100000000  0.4642760000000 1.0
C      1  0.5524380000000  0.4746030000000  0.5427250000000 1.0
C      1  0.5489990000000  0.4396650000000  0.4997840000000 1.0
C      1  0.4434610000000  0.5633150000000  0.4946990000000 1.0
C      1  0.5072020000000  0.5244250000000  0.5156710000000 1.0
C      1  0.4880050000000  0.4836230000000  0.4811500000000 1.0
C      1  0.4680640000000  0.5303250000000  0.4685160000000 1.0
C      1  0.5292750000000  0.4757240000000  0.5264930000000 1.0
C      1  0.4589980000000  0.4568050000000  0.5472510000000 1.0
C      1  0.5524300000000  0.5428370000000  0.4555100000000 1.0
C      1  0.4697750000000  0.4672230000000  0.4513890000000 1.0
C      1  0.5307260000000  0.5255970000000  0.5524490000000 1.0
C      1  0.4159410000000  0.4920610000000  0.4962210000000 1.0
C      1  0.5824270000000  0.4945610000000  0.5081080000000 1.0
C      1  0.4685120000000  0.5410990000000  0.5440150000000 1.0
C      1  0.5186450000000  0.4600920000000  0.4537320000000 1.0
C      1  0.5435270000000  0.5569930000000  0.5022530000000 1.0
C      1  0.4661680000000  0.4370180000000  0.5013330000000 1.0
C      1  0.5146230000000  0.5298570000000  0.4272020000000 1.0
C      1  0.4979840000000  0.4791000000000  0.5740160000000 1.0
C      1  0.5746590000000  0.4500390000000  0.4972680000000 1.0
C      1  0.4192850000000  0.5518460000000  0.5021750000000 1.0
C      1  0.5548650000000  0.5220360000000  0.5367330000000 1.0
C      1  0.4476990000000  0.4704010000000  0.4694320000000 1.0
C      1  0.5563630000000  0.5323120000000  0.5098370000000 1.0
C      1  0.4431630000000  0.4537420000000  0.4928470000000 1.0
C      1  0.5753680000000  0.5180390000000  0.4931210000000 1.0
C      1  0.4253910000000  0.4694360000000  0.5115410000000 1.0
C      1  0.4617810000000  0.5058610000000  0.5156740000000 1.0
C      1  0.5334230000000  0.4969560000000  0.4819440000000 1.0
C      1  0.4308590000000  0.4938950000000  0.4718970000000 1.0
C      1  0.5680840000000  0.4961380000000  0.5332700000000 1.0
C      1  0.4396160000000  0.5418610000000  0.5455400000000 1.0
C      1  0.5570850000000  0.4659820000000  0.4529730000000 1.0
C      1  0.5177710000000  0.4837860000000  0.4350390000000 1.0
C      1  0.4748830000000  0.5181460000000  0.5609060000000 1.0
C      1  0.4998380000000  0.5026960000000  0.5578360000000 1.0
C      1  0.5027810000000  0.5079730000000  0.4396060000000 1.0
C      1  0.5391690000000  0.5404060000000  0.4307630000000 1.0
C      1  0.4746540000000  0.4666230000000  0.5685190000000 1.0
C      1  0.4456040000000  0.5039660000000  0.5402380000000 1.0
C      1  0.5480180000000  0.4944620000000  0.4566810000000 1.0
C      1  0.5167400000000  0.5486710000000  0.5435200000000 1.0
C      1  0.4902490000000  0.4475760000000  0.4556920000000 1.0
C      1  0.5316080000000  0.5486170000000  0.4765990000000 1.0
C      1  0.4760980000000  0.4551000000000  0.5228450000000 1.0
C      1  0.4815020000000  0.4839890000000  0.5118690000000 1.0
C      1  0.5169090000000  0.5221660000000  0.4855700000000 1.0
C      1  0.4840100000000  0.4336400000000  0.4794060000000 1.0
C      1  0.5254130000000  0.5639850000000  0.5222440000000 1.0
C      1  0.4358110000000  0.4749470000000  0.5399990000000 1.0
C      1  0.5681450000000  0.5175390000000  0.4631070000000 1.0
C      1  0.4683980000000  0.5484710000000  0.4919070000000 1.0
C      1  0.5257380000000  0.4561800000000  0.5050370000000 1.0
C      1  0.4766970000000  0.5316710000000  0.5161760000000 1.0
C      1  0.5165230000000  0.4728060000000  0.4814770000000 1.0
C      1  0.5715570000000  0.4485870000000  0.4697500000000 1.0
C      1  0.4253890000000  0.5588810000000  0.5282280000000 1.0
C      1  0.4925800000000  0.5123190000000  0.4679000000000 1.0
C      1  0.5058850000000  0.4955210000000  0.5280430000000 1.0
END
