TITL C-8696-5006-110 -1.35170388064263e-06 125000 -364.483981188463 0 0 60 (Cs) n - 1
REM
REM in /home/bkarasulu/CARBON/AIRSS/Generating-Clusters/EDIP-Nigel-Params/Higher-Symm/Box-15A/Only-C60/SD-CG/HFTN-CG
REM
REM
REM
REM
REM
REM ./C.cell (414f73aa93bd7a1190c7fd0f31ff2f98)
REM
REM compiler GCC version 9.2.1 20190827 (Red Hat 9.2.1-1)
REM options -cpp -mtune=generic -march=x86-64 -g -O0 -fpre-include=/usr/include/finclude/math-vector-fortran.h
REM seed -306538241 1624447501 -873127383 127115749 2088492816 -562747466 -1653786640 1909543648 1427770058 1386520610 1172387597 1215329673 734766440 -1466870324 1742211066 -480411557 1560575570 -1889370467 1840956139 2423628 340877686 -2006945783 76439125 2132521562 1348163662 2140370548 -330986040 371962905 -1582446539 1764237108 -187844009 1581183620 1189782712
REM
CELL 1.54180   50.00000   50.00000   50.00000   90.00000   90.00000   90.00000
LATT -1
SFAC C  
C      1  0.5424180000000  0.4360760000000  0.5026240000000 1.0
C      1  0.5424510000000  0.5639020000000  0.5026410000000 1.0
C      1  0.4671970000000  0.5495400000000  0.5342640000000 1.0
C      1  0.4671720000000  0.4504680000000  0.5342510000000 1.0
C      1  0.4676260000000  0.4330890000000  0.5094430000000 1.0
C      1  0.4676600000000  0.5669250000000  0.5094610000000 1.0
C      1  0.5372950000000  0.5277340000000  0.4494020000000 1.0
C      1  0.5372810000000  0.4722600000000  0.4493940000000 1.0
C      1  0.5556250000000  0.4695330000000  0.4726060000000 1.0
C      1  0.5556410000000  0.5304450000000  0.4726140000000 1.0
C      1  0.4640490000000  0.5254840000000  0.4442400000000 1.0
C      1  0.4640370000000  0.4745490000000  0.4442330000000 1.0
C      1  0.4948250000000  0.5773750000000  0.4984700000000 1.0
C      1  0.4947860000000  0.4226280000000  0.4984490000000 1.0
C      1  0.5262200000000  0.4845020000000  0.5652410000000 1.0
C      1  0.5262280000000  0.5154680000000  0.5652450000000 1.0
C      1  0.4502820000000  0.5561610000000  0.4888090000000 1.0
C      1  0.4502540000000  0.4438670000000  0.4887940000000 1.0
C      1  0.5187170000000  0.4295140000000  0.5154200000000 1.0
C      1  0.5187530000000  0.5704720000000  0.5154390000000 1.0
C      1  0.4744770000000  0.4840020000000  0.5157540000000 1.0
C      1  0.4744850000000  0.5160070000000  0.5157580000000 1.0
C      1  0.4459790000000  0.4732170000000  0.5365530000000 1.0
C      1  0.4459930000000  0.5268010000000  0.5365600000000 1.0
C      1  0.4458540000000  0.4855630000000  0.4628730000000 1.0
C      1  0.4458620000000  0.5144750000000  0.4628770000000 1.0
C      1  0.5387390000000  0.5346550000000  0.5452710000000 1.0
C      1  0.5387210000000  0.4653130000000  0.5452620000000 1.0
C      1  0.5297310000000  0.5640960000000  0.4568360000000 1.0
C      1  0.5296980000000  0.4359000000000  0.4568190000000 1.0
C      1  0.5024960000000  0.5154720000000  0.5284640000000 1.0
C      1  0.5024880000000  0.4845190000000  0.5284590000000 1.0
C      1  0.4841710000000  0.4501830000000  0.4728830000000 1.0
C      1  0.4841960000000  0.5498320000000  0.4728960000000 1.0
C      1  0.4981760000000  0.5245600000000  0.5655600000000 1.0
C      1  0.4981630000000  0.4754240000000  0.5655540000000 1.0
C      1  0.4997610000000  0.5261310000000  0.4815640000000 1.0
C      1  0.4997480000000  0.4738740000000  0.4815570000000 1.0
C      1  0.5456630000000  0.5160370000000  0.4982060000000 1.0
C      1  0.5456550000000  0.4839400000000  0.4982010000000 1.0
C      1  0.5112180000000  0.4844800000000  0.4564370000000 1.0
C      1  0.5112260000000  0.5155260000000  0.4564410000000 1.0
C      1  0.5028710000000  0.5730920000000  0.4656420000000 1.0
C      1  0.5028330000000  0.4269160000000  0.4656230000000 1.0
C      1  0.4425490000000  0.4718250000000  0.4882510000000 1.0
C      1  0.4425630000000  0.5282080000000  0.4882580000000 1.0
C      1  0.4914300000000  0.5499570000000  0.5531610000000 1.0
C      1  0.4914040000000  0.4500330000000  0.5531480000000 1.0
C      1  0.4887340000000  0.4843570000000  0.4342350000000 1.0
C      1  0.4887420000000  0.5156660000000  0.4342390000000 1.0
C      1  0.5511520000000  0.4404240000000  0.4764880000000 1.0
C      1  0.5511820000000  0.5595560000000  0.4765040000000 1.0
C      1  0.4310480000000  0.4845340000000  0.5128420000000 1.0
C      1  0.4310560000000  0.5154980000000  0.5128460000000 1.0
C      1  0.5186070000000  0.5288580000000  0.5050340000000 1.0
C      1  0.5185920000000  0.4711310000000  0.5050260000000 1.0
C      1  0.5173300000000  0.4445920000000  0.5400060000000 1.0
C      1  0.5173580000000  0.5553890000000  0.5400200000000 1.0
C      1  0.5557720000000  0.5263560000000  0.5234290000000 1.0
C      1  0.5557590000000  0.4736100000000  0.5234220000000 1.0
END
