TITL C-8693-7204-315 7.08137079494978e-06 125000 -368.167579206629 0 0 60 (C1) n - 1
REM
REM in /home/bkarasulu/CARBON/AIRSS/Generating-Clusters/EDIP-Nigel-Params/Higher-Symm/Box-15A/Only-C60/SD-CG/HFTN-CG
REM
REM
REM
REM
REM
REM ./C.cell (414f73aa93bd7a1190c7fd0f31ff2f98)
REM
REM compiler GCC version 9.2.1 20190827 (Red Hat 9.2.1-1)
REM options -cpp -mtune=generic -march=x86-64 -g -O0 -fpre-include=/usr/include/finclude/math-vector-fortran.h
REM seed 1737159318 -1718863498 1204657774 498754218 -1144405134 -635403011 -1895113388 -271585294 -1699388251 -1382580188 1302122922 707269655 -397101181 1733980077 -1777304147 -239091725 -637157484 -1844274396 -613343401 -1931144261 1193172613 265803837 1918253050 85145085 1972633636 1473921274 -285187995 -1025171303 222717189 -442096532 -793538514 -1303177789 -74052306
REM
CELL 1.54180   50.00000   50.00000   50.00000   90.00000   90.00000   90.00000
LATT -1
SFAC C  
C      1  0.4956990000000  0.5228330000000  0.5113100000000 1.0
C      1  0.4837310000000  0.5250990000000  0.4861400000000 1.0
C      1  0.4910790000000  0.5051370000000  0.4697530000000 1.0
C      1  0.4805940000000  0.4808270000000  0.4774260000000 1.0
C      1  0.4897650000000  0.4680070000000  0.5004070000000 1.0
C      1  0.4892150000000  0.4807840000000  0.5246100000000 1.0
C      1  0.4760330000000  0.5056980000000  0.5250750000000 1.0
C      1  0.4292620000000  0.4936460000000  0.5368130000000 1.0
C      1  0.4296960000000  0.5236680000000  0.5292190000000 1.0
C      1  0.4317580000000  0.5337530000000  0.4993520000000 1.0
C      1  0.4322690000000  0.5201550000000  0.4715910000000 1.0
C      1  0.4347030000000  0.4913170000000  0.4658190000000 1.0
C      1  0.4327790000000  0.4683750000000  0.4845920000000 1.0
C      1  0.4313070000000  0.4697040000000  0.5153510000000 1.0
C      1  0.5190140000000  0.4640560000000  0.4571800000000 1.0
C      1  0.5171710000000  0.4334490000000  0.5028330000000 1.0
C      1  0.5162820000000  0.4588070000000  0.5519700000000 1.0
C      1  0.5187550000000  0.5131200000000  0.5520300000000 1.0
C      1  0.5190140000000  0.5585730000000  0.5242720000000 1.0
C      1  0.5149440000000  0.5572670000000  0.4706440000000 1.0
C      1  0.5181080000000  0.5151170000000  0.4364200000000 1.0
C      1  0.5311300000000  0.5622560000000  0.4962530000000 1.0
C      1  0.5308110000000  0.5400110000000  0.4509320000000 1.0
C      1  0.5327960000000  0.4904110000000  0.4483280000000 1.0
C      1  0.5319330000000  0.4498410000000  0.4813280000000 1.0
C      1  0.5305920000000  0.4409570000000  0.5302300000000 1.0
C      1  0.5318360000000  0.4853560000000  0.5547720000000 1.0
C      1  0.5350310000000  0.5373240000000  0.5390840000000 1.0
C      1  0.4867780000000  0.4390260000000  0.5019150000000 1.0
C      1  0.4863860000000  0.4634070000000  0.5477820000000 1.0
C      1  0.4890650000000  0.5157540000000  0.5605680000000 1.0
C      1  0.4900600000000  0.5508020000000  0.5228970000000 1.0
C      1  0.4851830000000  0.5518130000000  0.4735820000000 1.0
C      1  0.4873290000000  0.5125400000000  0.4418220000000 1.0
C      1  0.4871200000000  0.4621440000000  0.4545380000000 1.0
C      1  0.4450120000000  0.4473080000000  0.5268260000000 1.0
C      1  0.4458600000000  0.4894780000000  0.5595460000000 1.0
C      1  0.4478950000000  0.5381090000000  0.5456940000000 1.0
C      1  0.4465020000000  0.5583150000000  0.4996910000000 1.0
C      1  0.4442750000000  0.5358690000000  0.4515140000000 1.0
C      1  0.4461170000000  0.4855430000000  0.4405440000000 1.0
C      1  0.4455560000000  0.4448970000000  0.4751400000000 1.0
C      1  0.5561520000000  0.4555190000000  0.5234750000000 1.0
C      1  0.5548310000000  0.4830040000000  0.5363530000000 1.0
C      1  0.5588980000000  0.5300940000000  0.5202540000000 1.0
C      1  0.5566530000000  0.5465120000000  0.4942770000000 1.0
C      1  0.5551730000000  0.5312330000000  0.4661050000000 1.0
C      1  0.5563980000000  0.5011570000000  0.4638950000000 1.0
C      1  0.5577610000000  0.4596030000000  0.4931620000000 1.0
C      1  0.4736730000000  0.4848370000000  0.4340560000000 1.0
C      1  0.4728110000000  0.4376660000000  0.4728060000000 1.0
C      1  0.4719300000000  0.4403890000000  0.5303570000000 1.0
C      1  0.4732670000000  0.4881000000000  0.5650410000000 1.0
C      1  0.4754970000000  0.5415750000000  0.5490660000000 1.0
C      1  0.4734510000000  0.5655640000000  0.5000970000000 1.0
C      1  0.4716070000000  0.5401510000000  0.4463770000000 1.0
C      1  0.5214190000000  0.5067240000000  0.5082780000000 1.0
C      1  0.5639650000000  0.4888690000000  0.4897250000000 1.0
C      1  0.4522090000000  0.5010620000000  0.5048590000000 1.0
C      1  0.5503100000000  0.5023080000000  0.5135240000000 1.0
END
