TITL C-8692-4986-49 -2.24306733272772e-06 125000 -370.08824424531 0 0 60 (C1) n - 1
REM
REM in /home/bkarasulu/CARBON/AIRSS/Generating-Clusters/EDIP-Nigel-Params/Higher-Symm/Box-15A/Only-C60/SD-CG/HFTN-CG
REM
REM
REM
REM
REM
REM ./C.cell (414f73aa93bd7a1190c7fd0f31ff2f98)
REM
REM compiler GCC version 9.2.1 20190827 (Red Hat 9.2.1-1)
REM options -cpp -mtune=generic -march=x86-64 -g -O0 -fpre-include=/usr/include/finclude/math-vector-fortran.h
REM seed 1283831369 -1368468900 -1251979750 -219666153 352524448 -494717973 -1292416122 2130236340 1261058862 537102135 -1491232103 27044085 -417307871 -61724295 -1286091283 850907402 1257974118 18461726 1061147738 -1357606291 655735629 -588704719 875631248 572266998 994290062 1198857880 1299067891 -517695198 -1492219029 -2115398730 355913619 -480587877 1014000357
REM
CELL 1.54180   50.00000   50.00000   50.00000   90.00000   90.00000   90.00000
LATT -1
SFAC C  
C      1  0.4853510000000  0.5552630000000  0.4519300000000 1.0
C      1  0.4915290000000  0.4329630000000  0.5398310000000 1.0
C      1  0.4921380000000  0.4262090000000  0.5098800000000 1.0
C      1  0.5032190000000  0.5216850000000  0.4292460000000 1.0
C      1  0.4556520000000  0.4804280000000  0.4736180000000 1.0
C      1  0.5565630000000  0.4585240000000  0.5121380000000 1.0
C      1  0.4785940000000  0.5346320000000  0.5642590000000 1.0
C      1  0.4612120000000  0.4722440000000  0.5502440000000 1.0
C      1  0.5186270000000  0.4590280000000  0.4347200000000 1.0
C      1  0.4934240000000  0.5170300000000  0.5462120000000 1.0
C      1  0.4816450000000  0.4805370000000  0.4583960000000 1.0
C      1  0.4502220000000  0.5382500000000  0.5272060000000 1.0
C      1  0.4624320000000  0.5579990000000  0.4685300000000 1.0
C      1  0.5414700000000  0.4638340000000  0.4865540000000 1.0
C      1  0.5112020000000  0.5492800000000  0.4637320000000 1.0
C      1  0.4957980000000  0.4609030000000  0.4752920000000 1.0
C      1  0.4930750000000  0.5302180000000  0.5189920000000 1.0
C      1  0.5782820000000  0.5177880000000  0.5024480000000 1.0
C      1  0.4497130000000  0.5071050000000  0.4866800000000 1.0
C      1  0.5110740000000  0.4416860000000  0.4577020000000 1.0
C      1  0.5185880000000  0.5051840000000  0.4874920000000 1.0
C      1  0.4955850000000  0.4777930000000  0.4314010000000 1.0
C      1  0.4867780000000  0.5596600000000  0.5145240000000 1.0
C      1  0.4771600000000  0.4459840000000  0.4917610000000 1.0
C      1  0.5043420000000  0.4753130000000  0.5227510000000 1.0
C      1  0.5600260000000  0.5296440000000  0.4847640000000 1.0
C      1  0.5391080000000  0.5244680000000  0.5313330000000 1.0
C      1  0.5223870000000  0.5133310000000  0.5540060000000 1.0
C      1  0.4303340000000  0.5405920000000  0.4817760000000 1.0
C      1  0.4634600000000  0.5670170000000  0.4958970000000 1.0
C      1  0.4673230000000  0.5528800000000  0.5461940000000 1.0
C      1  0.4077330000000  0.5026750000000  0.5108100000000 1.0
C      1  0.4338510000000  0.4773680000000  0.5468160000000 1.0
C      1  0.5285640000000  0.4889380000000  0.5656590000000 1.0
C      1  0.5331630000000  0.4362980000000  0.4763340000000 1.0
C      1  0.5184880000000  0.5543910000000  0.4925660000000 1.0
C      1  0.4683680000000  0.4454990000000  0.5489970000000 1.0
C      1  0.4794550000000  0.4906400000000  0.5341400000000 1.0
C      1  0.5015970000000  0.4987380000000  0.4136630000000 1.0
C      1  0.4544320000000  0.5085100000000  0.5174910000000 1.0
C      1  0.5408350000000  0.5109090000000  0.4693490000000 1.0
C      1  0.5518740000000  0.4825240000000  0.4639710000000 1.0
C      1  0.5627870000000  0.4807270000000  0.5274850000000 1.0
C      1  0.4834130000000  0.5418090000000  0.4272070000000 1.0
C      1  0.5483640000000  0.5510380000000  0.5376330000000 1.0
C      1  0.5149120000000  0.4525430000000  0.5392810000000 1.0
C      1  0.4519110000000  0.4582040000000  0.4912680000000 1.0
C      1  0.5231920000000  0.4239130000000  0.5026320000000 1.0
C      1  0.4297410000000  0.4964850000000  0.5270560000000 1.0
C      1  0.5185400000000  0.5267810000000  0.5073760000000 1.0
C      1  0.5630660000000  0.5080520000000  0.5236830000000 1.0
C      1  0.5230090000000  0.4626090000000  0.5651370000000 1.0
C      1  0.4390510000000  0.5553660000000  0.5062700000000 1.0
C      1  0.5378530000000  0.4388610000000  0.5246470000000 1.0
C      1  0.5589460000000  0.5661360000000  0.5178470000000 1.0
C      1  0.5489070000000  0.5560940000000  0.4935830000000 1.0
C      1  0.4193470000000  0.5115260000000  0.4864490000000 1.0
C      1  0.5242640000000  0.5273420000000  0.4492580000000 1.0
C      1  0.5145490000000  0.4768200000000  0.4942270000000 1.0
C      1  0.5434730000000  0.4717290000000  0.4396570000000 1.0
END
