TITL C-8696-5006-39 1.30089637943408 125000 -347.225211397706 0 0 60 (C1) n - 1
REM
REM in /home/bkarasulu/CARBON/AIRSS/Generating-Clusters/EDIP-Nigel-Params/Higher-Symm/Box-15A/Only-C60/SD-CG/HFTN-CG
REM
REM
REM
REM
REM
REM ./C.cell (414f73aa93bd7a1190c7fd0f31ff2f98)
REM
REM compiler GCC version 9.2.1 20190827 (Red Hat 9.2.1-1)
REM options -cpp -mtune=generic -march=x86-64 -g -O0 -fpre-include=/usr/include/finclude/math-vector-fortran.h
REM seed -2096723944 -265738581 1902722606 1241239406 -434297834 1268076823 498057976 1977416336 126402522 -1019806262 1367589436 823115686 1986922373 -1208379502 1714592169 1918996978 743725342 289957215 525801684 -9464030 -1267221766 -1977891319 804004358 -2140797963 1137646695 1698712469 1926378297 2128201241 1068955457 2137762278 -565979916 1723123260 904669182
REM
CELL 1.54180   50.00000   50.00000   50.00000   90.00000   90.00000   90.00000
LATT -1
SFAC C  
C      1  0.5082280000000  0.5171710000000  0.5277720000000 1.0
C      1  0.4977600000000  0.5263660000000  0.5008700000000 1.0
C      1  0.5036650000000  0.5062070000000  0.4802980000000 1.0
C      1  0.4993820000000  0.4775690000000  0.4853470000000 1.0
C      1  0.5134890000000  0.4687870000000  0.5102730000000 1.0
C      1  0.5075550000000  0.4866960000000  0.5348450000000 1.0
C      1  0.4503390000000  0.5139560000000  0.5334930000000 1.0
C      1  0.5630100000000  0.5295600000000  0.4949270000000 1.0
C      1  0.4404330000000  0.5024420000000  0.4883610000000 1.0
C      1  0.5618120000000  0.4867350000000  0.4770010000000 1.0
C      1  0.4427600000000  0.4671830000000  0.5175110000000 1.0
C      1  0.5649600000000  0.4931950000000  0.5231890000000 1.0
C      1  0.4420040000000  0.6073130000000  0.5323160000000 1.0
C      1  0.5138000000000  0.5676250000000  0.5018210000000 1.0
C      1  0.4757110000000  0.5242740000000  0.4434590000000 1.0
C      1  0.5369210000000  0.4005070000000  0.4445580000000 1.0
C      1  0.4837550000000  0.4202750000000  0.5029130000000 1.0
C      1  0.5269720000000  0.4823270000000  0.5574200000000 1.0
C      1  0.5387030000000  0.5303410000000  0.5639660000000 1.0
C      1  0.4670020000000  0.5651960000000  0.5090530000000 1.0
C      1  0.5280560000000  0.5483540000000  0.4581810000000 1.0
C      1  0.4679370000000  0.4741560000000  0.4486270000000 1.0
C      1  0.5392620000000  0.4374020000000  0.4840210000000 1.0
C      1  0.4794820000000  0.4484210000000  0.5455020000000 1.0
C      1  0.5584190000000  0.5202300000000  0.5208640000000 1.0
C      1  0.4481920000000  0.5218510000000  0.5068550000000 1.0
C      1  0.5571630000000  0.5138980000000  0.4724420000000 1.0
C      1  0.4472370000000  0.4756170000000  0.4910300000000 1.0
C      1  0.5616230000000  0.4748990000000  0.5023100000000 1.0
C      1  0.4568400000000  0.4866250000000  0.5328300000000 1.0
C      1  0.4784010000000  0.3940450000000  0.4887050000000 1.0
C      1  0.5387410000000  0.4568950000000  0.5626630000000 1.0
C      1  0.4555640000000  0.6322160000000  0.5416140000000 1.0
C      1  0.5061780000000  0.5929330000000  0.5172880000000 1.0
C      1  0.4747490000000  0.5488490000000  0.4256350000000 1.0
C      1  0.5162360000000  0.4004030000000  0.4230500000000 1.0
C      1  0.5344560000000  0.5317780000000  0.5352910000000 1.0
C      1  0.4692990000000  0.5397180000000  0.4962570000000 1.0
C      1  0.5321740000000  0.5210270000000  0.4603060000000 1.0
C      1  0.4715450000000  0.4655790000000  0.4757920000000 1.0
C      1  0.5403950000000  0.4545450000000  0.5066960000000 1.0
C      1  0.4808360000000  0.4764140000000  0.5451680000000 1.0
C      1  0.5388870000000  0.3780760000000  0.4239760000000 1.0
C      1  0.4717130000000  0.4352150000000  0.4779960000000 1.0
C      1  0.5472070000000  0.4383870000000  0.5305170000000 1.0
C      1  0.4241230000000  0.6285880000000  0.5448930000000 1.0
C      1  0.5330190000000  0.5605600000000  0.5259580000000 1.0
C      1  0.4633490000000  0.5423370000000  0.4664570000000 1.0
C      1  0.4652280000000  0.5659170000000  0.4474940000000 1.0
C      1  0.5186660000000  0.3793370000000  0.4043250000000 1.0
C      1  0.4682970000000  0.4076920000000  0.4648190000000 1.0
C      1  0.5297640000000  0.4331430000000  0.5514350000000 1.0
C      1  0.4383850000000  0.6514980000000  0.5531650000000 1.0
C      1  0.5223950000000  0.5848330000000  0.5403140000000 1.0
C      1  0.5233720000000  0.5682440000000  0.4755550000000 1.0
C      1  0.4673870000000  0.4984640000000  0.4373150000000 1.0
C      1  0.5371340000000  0.4198460000000  0.4642770000000 1.0
C      1  0.4780300000000  0.4270400000000  0.5292860000000 1.0
C      1  0.5358290000000  0.5046090000000  0.5710990000000 1.0
C      1  0.4561750000000  0.5866360000000  0.5205980000000 1.0
END
