TITL C-8696-5006-146 -1.25904751794566e-05 125000 -354.278395515549 0 0 60 (C1) n - 1
REM
REM in /home/bkarasulu/CARBON/AIRSS/Generating-Clusters/EDIP-Nigel-Params/Higher-Symm/Box-15A/Only-C60/SD-CG/HFTN-CG
REM
REM
REM
REM
REM
REM ./C.cell (414f73aa93bd7a1190c7fd0f31ff2f98)
REM
REM compiler GCC version 9.2.1 20190827 (Red Hat 9.2.1-1)
REM options -cpp -mtune=generic -march=x86-64 -g -O0 -fpre-include=/usr/include/finclude/math-vector-fortran.h
REM seed 739758155 -2053775111 1034071799 1383865671 -1943816273 -1734933377 638570394 -466830852 1832688054 1573739955 1134579594 1525968539 2073638803 -369471838 1783817596 -817549727 719175550 640923301 876494182 294290190 1837207421 -597943745 -755998109 -2076593557 150585562 -491944711 -451538485 1610724841 317233663 -1106254311 989355889 1452243127 -886605741
REM
CELL 1.54180   50.00000   50.00000   50.00000   90.00000   90.00000   90.00000
LATT -1
SFAC C  
C      1  0.5399220000000  0.5407360000000  0.5085940000000 1.0
C      1  0.4423950000000  0.5215850000000  0.5017490000000 1.0
C      1  0.5258620000000  0.4368320000000  0.5149760000000 1.0
C      1  0.4854120000000  0.4662220000000  0.5493070000000 1.0
C      1  0.5485150000000  0.5174530000000  0.5603440000000 1.0
C      1  0.4658170000000  0.5387460000000  0.5477460000000 1.0
C      1  0.5544290000000  0.5627360000000  0.5139290000000 1.0
C      1  0.4174010000000  0.5137930000000  0.5111380000000 1.0
C      1  0.5497440000000  0.4236550000000  0.5099060000000 1.0
C      1  0.5671810000000  0.4775740000000  0.4365430000000 1.0
C      1  0.4517740000000  0.5356610000000  0.4512230000000 1.0
C      1  0.4574770000000  0.4616970000000  0.4253430000000 1.0
C      1  0.4393380000000  0.4594820000000  0.4940270000000 1.0
C      1  0.5724470000000  0.4775920000000  0.5062640000000 1.0
C      1  0.4972550000000  0.5839560000000  0.5018180000000 1.0
C      1  0.4903510000000  0.5238080000000  0.4258030000000 1.0
C      1  0.4950060000000  0.4966810000000  0.4212110000000 1.0
C      1  0.5216540000000  0.4897620000000  0.4236320000000 1.0
C      1  0.4491770000000  0.4654730000000  0.4688010000000 1.0
C      1  0.5632140000000  0.4730530000000  0.4805020000000 1.0
C      1  0.5002990000000  0.5714180000000  0.4783090000000 1.0
C      1  0.5696960000000  0.4788130000000  0.5337760000000 1.0
C      1  0.4942480000000  0.5775480000000  0.5287170000000 1.0
C      1  0.4422450000000  0.4587660000000  0.5217080000000 1.0
C      1  0.5200730000000  0.4694770000000  0.5655510000000 1.0
C      1  0.5218970000000  0.5248400000000  0.5596270000000 1.0
C      1  0.4634370000000  0.5028310000000  0.5609660000000 1.0
C      1  0.5582630000000  0.4560400000000  0.5474240000000 1.0
C      1  0.5179410000000  0.5740990000000  0.5448910000000 1.0
C      1  0.4259240000000  0.4765140000000  0.5379020000000 1.0
C      1  0.5453240000000  0.4597810000000  0.5718610000000 1.0
C      1  0.5171360000000  0.5522080000000  0.5622660000000 1.0
C      1  0.4401390000000  0.4880380000000  0.5589540000000 1.0
C      1  0.4669850000000  0.4533750000000  0.5331930000000 1.0
C      1  0.5663880000000  0.5031020000000  0.5465660000000 1.0
C      1  0.4723270000000  0.5632790000000  0.5374740000000 1.0
C      1  0.5199720000000  0.4651260000000  0.5141710000000 1.0
C      1  0.5177650000000  0.5239700000000  0.5103100000000 1.0
C      1  0.4657950000000  0.5050770000000  0.5099850000000 1.0
C      1  0.4338510000000  0.5350510000000  0.4316600000000 1.0
C      1  0.4609440000000  0.4489070000000  0.4024590000000 1.0
C      1  0.5766070000000  0.4742540000000  0.4120700000000 1.0
C      1  0.4404990000000  0.4520340000000  0.4455520000000 1.0
C      1  0.5820560000000  0.4719240000000  0.4595660000000 1.0
C      1  0.4438190000000  0.5350010000000  0.4775540000000 1.0
C      1  0.5121870000000  0.4761950000000  0.4883010000000 1.0
C      1  0.4996360000000  0.5230840000000  0.4875040000000 1.0
C      1  0.4866290000000  0.4959950000000  0.4869470000000 1.0
C      1  0.4778180000000  0.4786100000000  0.4369920000000 1.0
C      1  0.5394470000000  0.4801520000000  0.4422930000000 1.0
C      1  0.4798080000000  0.5412000000000  0.4448750000000 1.0
C      1  0.4979060000000  0.5453470000000  0.4682610000000 1.0
C      1  0.4694770000000  0.4857440000000  0.4639590000000 1.0
C      1  0.5363320000000  0.4801350000000  0.4711570000000 1.0
C      1  0.4074430000000  0.4926700000000  0.5244820000000 1.0
C      1  0.5580640000000  0.4299480000000  0.5354780000000 1.0
C      1  0.5421140000000  0.5787390000000  0.5317670000000 1.0
C      1  0.5100130000000  0.4792500000000  0.5390070000000 1.0
C      1  0.5080010000000  0.5111970000000  0.5366700000000 1.0
C      1  0.4771220000000  0.5137670000000  0.5369350000000 1.0
END
