TITL C-8698-8182-29 0.421477718340298 125000 -353.920943971939 0 0 60 (C1) n - 1
REM
REM in /home/bkarasulu/CARBON/AIRSS/Generating-Clusters/EDIP-Nigel-Params/Higher-Symm/Box-15A/Only-C60/SD-CG/HFTN-CG
REM
REM
REM
REM
REM
REM ./C.cell (414f73aa93bd7a1190c7fd0f31ff2f98)
REM
REM compiler GCC version 9.2.1 20190827 (Red Hat 9.2.1-1)
REM options -cpp -mtune=generic -march=x86-64 -g -O0 -fpre-include=/usr/include/finclude/math-vector-fortran.h
REM seed -1704028722 745296018 2089214365 1291890931 -839857126 -228963092 -381770059 175248655 1360279305 302655310 -1731323035 671810844 235425853 2066016974 -1586428302 1938240403 1082280914 340600657 100579217 -750735659 183802899 -828858986 -895723573 -728602401 -1074642235 953418579 516740480 -1369496355 -1496124357 284991793 -1841100910 -725428214 -1940395618
REM
CELL 1.54180   50.00000   50.00000   50.00000   90.00000   90.00000   90.00000
LATT -1
SFAC C  
C      1  0.5031360000000  0.5357100000000  0.4254330000000 1.0
C      1  0.5524580000000  0.5314430000000  0.4680990000000 1.0
C      1  0.5673220000000  0.5215120000000  0.4914090000000 1.0
C      1  0.5564510000000  0.5354270000000  0.5144090000000 1.0
C      1  0.5373010000000  0.5424400000000  0.5807760000000 1.0
C      1  0.5138720000000  0.5545230000000  0.5875070000000 1.0
C      1  0.4682960000000  0.5791230000000  0.5408260000000 1.0
C      1  0.4410030000000  0.5861360000000  0.5328060000000 1.0
C      1  0.4375150000000  0.5878000000000  0.5045990000000 1.0
C      1  0.4730630000000  0.5598020000000  0.4548460000000 1.0
C      1  0.4765550000000  0.5440110000000  0.4305580000000 1.0
C      1  0.4863630000000  0.5854230000000  0.4576430000000 1.0
C      1  0.5113740000000  0.5867640000000  0.4457800000000 1.0
C      1  0.5350900000000  0.5744930000000  0.4483140000000 1.0
C      1  0.5509280000000  0.5610040000000  0.4666440000000 1.0
C      1  0.5621860000000  0.5744720000000  0.4885990000000 1.0
C      1  0.5578090000000  0.5644670000000  0.5144530000000 1.0
C      1  0.5413880000000  0.5788570000000  0.5315060000000 1.0
C      1  0.5169670000000  0.5877230000000  0.5379660000000 1.0
C      1  0.4909970000000  0.5947930000000  0.5314220000000 1.0
C      1  0.4875010000000  0.6063160000000  0.5064770000000 1.0
C      1  0.4829820000000  0.6004120000000  0.4806960000000 1.0
C      1  0.4473270000000  0.5221530000000  0.4761010000000 1.0
C      1  0.4606430000000  0.5059930000000  0.4557650000000 1.0
C      1  0.4888620000000  0.5001000000000  0.4614770000000 1.0
C      1  0.5212550000000  0.4918440000000  0.4801320000000 1.0
C      1  0.5402800000000  0.4827180000000  0.5012800000000 1.0
C      1  0.5336620000000  0.4940080000000  0.5285160000000 1.0
C      1  0.5117270000000  0.5063530000000  0.5557260000000 1.0
C      1  0.4874250000000  0.5187790000000  0.5644380000000 1.0
C      1  0.4534200000000  0.5349120000000  0.5565520000000 1.0
C      1  0.4306560000000  0.5401850000000  0.5389470000000 1.0
C      1  0.4367280000000  0.5367540000000  0.5104320000000 1.0
C      1  0.5225840000000  0.3573220000000  0.4995420000000 1.0
C      1  0.5030200000000  0.3717250000000  0.4889800000000 1.0
C      1  0.4907580000000  0.3950350000000  0.4814020000000 1.0
C      1  0.5031900000000  0.4190320000000  0.4859030000000 1.0
C      1  0.5199730000000  0.4383140000000  0.4928720000000 1.0
C      1  0.5412040000000  0.4530250000000  0.5021250000000 1.0
C      1  0.5626060000000  0.4402420000000  0.5135960000000 1.0
C      1  0.5762540000000  0.4190420000000  0.5217150000000 1.0
C      1  0.5783630000000  0.3928000000000  0.5245140000000 1.0
C      1  0.5672620000000  0.3690590000000  0.5206660000000 1.0
C      1  0.5462820000000  0.3559040000000  0.5112600000000 1.0
C      1  0.5324700000000  0.5272180000000  0.5575990000000 1.0
C      1  0.4942670000000  0.5466440000000  0.5689160000000 1.0
C      1  0.4692260000000  0.5591110000000  0.5621980000000 1.0
C      1  0.4228010000000  0.5673220000000  0.5436040000000 1.0
C      1  0.4436440000000  0.5611890000000  0.4964190000000 1.0
C      1  0.4504400000000  0.5508190000000  0.4707370000000 1.0
C      1  0.4596790000000  0.5213510000000  0.4317590000000 1.0
C      1  0.5076910000000  0.5167570000000  0.4462010000000 1.0
C      1  0.5315230000000  0.5115870000000  0.4610880000000 1.0
C      1  0.5661230000000  0.4933720000000  0.4939130000000 1.0
C      1  0.5497170000000  0.5177500000000  0.5363740000000 1.0
C      1  0.3950680000000  0.3923260000000  0.4346050000000 1.0
C      1  0.4424590000000  0.3936680000000  0.4577790000000 1.0
C      1  0.4661860000000  0.3943430000000  0.4693830000000 1.0
C      1  0.3721040000000  0.3916750000000  0.4233760000000 1.0
C      1  0.4187630000000  0.3929980000000  0.4461920000000 1.0
END
