TITL C-8694-7203-9 -3.3062766430139e-05 125000 -354.486715792476 0 0 60 (C1) n - 1
REM
REM in /home/bkarasulu/CARBON/AIRSS/Generating-Clusters/EDIP-Nigel-Params/Higher-Symm/Box-15A/Only-C60/SD-CG/HFTN-CG
REM
REM
REM
REM
REM
REM ./C.cell (414f73aa93bd7a1190c7fd0f31ff2f98)
REM
REM compiler GCC version 9.2.1 20190827 (Red Hat 9.2.1-1)
REM options -cpp -mtune=generic -march=x86-64 -g -O0 -fpre-include=/usr/include/finclude/math-vector-fortran.h
REM seed -1414296933 -1419160252 1287631056 410201454 468010965 -1410102727 1366050805 425782136 -316291758 798819570 1436579637 2051194476 1556888149 -686342085 -780346189 -2038735426 1558038475 -1787096911 -1038206282 -1991922844 -650267507 1236237264 -121075215 -547277863 1763768001 1341754649 -1127691643 -1193932982 212677833 -428187072 1852924438 -1091193453 -1815155426
REM
CELL 1.54180   50.00000   50.00000   50.00000   90.00000   90.00000   90.00000
LATT -1
SFAC C  
C      1  0.4842150000000  0.4998540000000  0.4419690000000 1.0
C      1  0.5131940000000  0.5005190000000  0.4420540000000 1.0
C      1  0.4342500000000  0.5493820000000  0.4684400000000 1.0
C      1  0.5550690000000  0.5529760000000  0.4754450000000 1.0
C      1  0.5844060000000  0.4782320000000  0.5270920000000 1.0
C      1  0.4161220000000  0.4818700000000  0.5255960000000 1.0
C      1  0.4433010000000  0.4794230000000  0.4538380000000 1.0
C      1  0.5540650000000  0.4835380000000  0.4564180000000 1.0
C      1  0.5133770000000  0.5085310000000  0.5232710000000 1.0
C      1  0.4866240000000  0.5010340000000  0.5210980000000 1.0
C      1  0.4419130000000  0.5251040000000  0.4562100000000 1.0
C      1  0.5525850000000  0.5287540000000  0.4598460000000 1.0
C      1  0.5640680000000  0.5050030000000  0.4716180000000 1.0
C      1  0.4349970000000  0.5011520000000  0.4704260000000 1.0
C      1  0.5192730000000  0.4987780000000  0.5510390000000 1.0
C      1  0.4803400000000  0.4973710000000  0.5502380000000 1.0
C      1  0.4452020000000  0.5203470000000  0.5419220000000 1.0
C      1  0.5570120000000  0.5178520000000  0.5449440000000 1.0
C      1  0.5154210000000  0.5422110000000  0.5653200000000 1.0
C      1  0.4883460000000  0.5423670000000  0.5633240000000 1.0
C      1  0.5424070000000  0.5636190000000  0.5109690000000 1.0
C      1  0.4649660000000  0.5634250000000  0.5027320000000 1.0
C      1  0.4381490000000  0.4925590000000  0.5386630000000 1.0
C      1  0.5631680000000  0.4902090000000  0.5402910000000 1.0
C      1  0.4684750000000  0.5244190000000  0.4434490000000 1.0
C      1  0.5282230000000  0.5259430000000  0.4427140000000 1.0
C      1  0.5115390000000  0.5487170000000  0.4470330000000 1.0
C      1  0.4833400000000  0.5482020000000  0.4473940000000 1.0
C      1  0.5145050000000  0.4536660000000  0.4595320000000 1.0
C      1  0.4846860000000  0.4519760000000  0.4570590000000 1.0
C      1  0.4432400000000  0.5177540000000  0.5039670000000 1.0
C      1  0.5590950000000  0.5175020000000  0.5066370000000 1.0
C      1  0.4915900000000  0.5632490000000  0.5101670000000 1.0
C      1  0.5171340000000  0.5590310000000  0.4989410000000 1.0
C      1  0.5639690000000  0.5469010000000  0.5020960000000 1.0
C      1  0.4432860000000  0.5465350000000  0.4949810000000 1.0
C      1  0.4679470000000  0.4389010000000  0.4795980000000 1.0
C      1  0.5314800000000  0.4401250000000  0.4821280000000 1.0
C      1  0.5297120000000  0.5103490000000  0.4993840000000 1.0
C      1  0.4709920000000  0.5078930000000  0.4975640000000 1.0
C      1  0.5119200000000  0.4653480000000  0.5151820000000 1.0
C      1  0.4824570000000  0.4555040000000  0.5161050000000 1.0
C      1  0.5283370000000  0.4767310000000  0.4471830000000 1.0
C      1  0.4699500000000  0.4747310000000  0.4441340000000 1.0
C      1  0.4878700000000  0.4691730000000  0.5605700000000 1.0
C      1  0.5180690000000  0.4676200000000  0.5586810000000 1.0
C      1  0.5153960000000  0.5347690000000  0.4830210000000 1.0
C      1  0.4841920000000  0.5337700000000  0.4831670000000 1.0
C      1  0.4449260000000  0.4587920000000  0.4928160000000 1.0
C      1  0.5541390000000  0.4598110000000  0.4932020000000 1.0
C      1  0.4747680000000  0.4509850000000  0.5438160000000 1.0
C      1  0.5266110000000  0.4501240000000  0.5364350000000 1.0
C      1  0.4322450000000  0.4603280000000  0.5184960000000 1.0
C      1  0.5664810000000  0.4584040000000  0.5190740000000 1.0
C      1  0.4680980000000  0.4783800000000  0.4876610000000 1.0
C      1  0.5290200000000  0.4794210000000  0.4909140000000 1.0
C      1  0.4680660000000  0.5230280000000  0.5612190000000 1.0
C      1  0.5343950000000  0.5214440000000  0.5642640000000 1.0
C      1  0.4853900000000  0.4276210000000  0.5026690000000 1.0
C      1  0.5159880000000  0.4287440000000  0.5059790000000 1.0
END
