TITL C-8692-4986-1 7.76544350409334e-07 125000 -364.479023869835 0 0 60 (C1) n - 1
REM
REM in /home/bkarasulu/CARBON/AIRSS/Generating-Clusters/EDIP-Nigel-Params/Higher-Symm/Box-15A/Only-C60/SD-CG/HFTN-CG
REM
REM
REM
REM
REM
REM ./C.cell (414f73aa93bd7a1190c7fd0f31ff2f98)
REM
REM compiler GCC version 9.2.1 20190827 (Red Hat 9.2.1-1)
REM options -cpp -mtune=generic -march=x86-64 -g -O0 -fpre-include=/usr/include/finclude/math-vector-fortran.h
REM seed 527831045 256647869 1758435973 -1453750937 -1662705379 -1810906917 -1349284400 1072149853 1705961525 -184882007 -1688634680 -1110506967 1628965178 1204698209 -1583659432 -914538101 181119688 -1609634745 1934983797 382913485 544184484 1263789364 -1540901173 -1302479292 270303827 1844025843 229306337 -1171771711 -1109545985 -1014633364 -218976191 573183851 795957017
REM
CELL 1.54180   50.00000   50.00000   50.00000   90.00000   90.00000   90.00000
LATT -1
SFAC C  
C      1  0.4701120000000  0.5032670000000  0.5777590000000 1.0
C      1  0.4713470000000  0.5594750000000  0.4545980000000 1.0
C      1  0.4697600000000  0.4302400000000  0.4709350000000 1.0
C      1  0.4816860000000  0.5196290000000  0.4980180000000 1.0
C      1  0.4838210000000  0.4919910000000  0.4804400000000 1.0
C      1  0.4755400000000  0.4955120000000  0.5178580000000 1.0
C      1  0.4711880000000  0.4991930000000  0.4523370000000 1.0
C      1  0.4751690000000  0.4569460000000  0.5200580000000 1.0
C      1  0.4716360000000  0.5429200000000  0.5276950000000 1.0
C      1  0.4448260000000  0.5281890000000  0.5302460000000 1.0
C      1  0.4427780000000  0.5106220000000  0.4616180000000 1.0
C      1  0.4473540000000  0.4630750000000  0.5072300000000 1.0
C      1  0.4426520000000  0.5318270000000  0.4825980000000 1.0
C      1  0.4454840000000  0.4702870000000  0.4791910000000 1.0
C      1  0.4502340000000  0.4985750000000  0.5337670000000 1.0
C      1  0.5480320000000  0.4418100000000  0.5000070000000 1.0
C      1  0.5396020000000  0.5287280000000  0.5480660000000 1.0
C      1  0.5361140000000  0.5283610000000  0.4553880000000 1.0
C      1  0.4608620000000  0.5538710000000  0.4799050000000 1.0
C      1  0.4564120000000  0.4524970000000  0.4592240000000 1.0
C      1  0.4588410000000  0.4857310000000  0.5593820000000 1.0
C      1  0.5235360000000  0.5725890000000  0.5339400000000 1.0
C      1  0.5286450000000  0.4881660000000  0.4236890000000 1.0
C      1  0.5258010000000  0.4406750000000  0.5432710000000 1.0
C      1  0.4742680000000  0.4697890000000  0.4428640000000 1.0
C      1  0.4786080000000  0.4654620000000  0.5498900000000 1.0
C      1  0.4757000000000  0.5627160000000  0.5034980000000 1.0
C      1  0.5254980000000  0.4642740000000  0.4382870000000 1.0
C      1  0.5277870000000  0.4639760000000  0.5583480000000 1.0
C      1  0.5253490000000  0.5777500000000  0.5067920000000 1.0
C      1  0.5475990000000  0.5682790000000  0.4928110000000 1.0
C      1  0.5486950000000  0.4571470000000  0.4552260000000 1.0
C      1  0.5474740000000  0.4829280000000  0.5486310000000 1.0
C      1  0.5002300000000  0.4607820000000  0.4537740000000 1.0
C      1  0.5029340000000  0.4806800000000  0.5577430000000 1.0
C      1  0.5009960000000  0.5730990000000  0.4930870000000 1.0
C      1  0.5200130000000  0.5083530000000  0.4411450000000 1.0
C      1  0.5238230000000  0.4361390000000  0.5158990000000 1.0
C      1  0.5195640000000  0.5503300000000  0.5502280000000 1.0
C      1  0.5582490000000  0.4227730000000  0.4818170000000 1.0
C      1  0.5588260000000  0.5235060000000  0.5680880000000 1.0
C      1  0.5628050000000  0.5297720000000  0.4637090000000 1.0
C      1  0.5280850000000  0.5029960000000  0.5375020000000 1.0
C      1  0.5177630000000  0.5445620000000  0.4731250000000 1.0
C      1  0.5417730000000  0.4649640000000  0.4829660000000 1.0
C      1  0.5018220000000  0.4516610000000  0.5021730000000 1.0
C      1  0.4924750000000  0.5387120000000  0.5503560000000 1.0
C      1  0.4922200000000  0.5175500000000  0.4399860000000 1.0
C      1  0.5642310000000  0.5507180000000  0.4809370000000 1.0
C      1  0.5587390000000  0.4304510000000  0.4555530000000 1.0
C      1  0.5636490000000  0.4966510000000  0.5670940000000 1.0
C      1  0.4944510000000  0.5436900000000  0.4528110000000 1.0
C      1  0.4958810000000  0.4396650000000  0.4745370000000 1.0
C      1  0.4925540000000  0.5161300000000  0.5683340000000 1.0
C      1  0.5150110000000  0.4794640000000  0.4910890000000 1.0
C      1  0.5251810000000  0.5033220000000  0.5075720000000 1.0
C      1  0.5104300000000  0.5270580000000  0.4980040000000 1.0
C      1  0.4288890000000  0.5307550000000  0.5072310000000 1.0
C      1  0.4263620000000  0.4890740000000  0.4697400000000 1.0
C      1  0.4306330000000  0.4806460000000  0.5219330000000 1.0
END
