TITL C-8694-7203-29 -1.50543848066572e-06 125000 -364.332348604571 0 0 60 (C1) n - 1
REM
REM in /home/bkarasulu/CARBON/AIRSS/Generating-Clusters/EDIP-Nigel-Params/Higher-Symm/Box-15A/Only-C60/SD-CG/HFTN-CG
REM
REM
REM
REM
REM
REM ./C.cell (414f73aa93bd7a1190c7fd0f31ff2f98)
REM
REM compiler GCC version 9.2.1 20190827 (Red Hat 9.2.1-1)
REM options -cpp -mtune=generic -march=x86-64 -g -O0 -fpre-include=/usr/include/finclude/math-vector-fortran.h
REM seed 1288634135 910527894 1791311973 -1298552842 -2070862186 -1242601286 1154911513 -1195551813 -1237789636 623703867 94899443 -1502943067 535222296 1660512891 -1718300456 1402686112 -359408843 -707401109 1467223315 -1087482054 1494351220 761616009 1249815942 -373605764 -1626086945 -1242289534 -1436554727 1882018104 -1525512274 -695419542 -807261709 1768562549 -1476411559
REM
CELL 1.54180   50.00000   50.00000   50.00000   90.00000   90.00000   90.00000
LATT -1
SFAC C  
C      1  0.4761890000000  0.4522300000000  0.4940140000000 1.0
C      1  0.4889410000000  0.4632840000000  0.4682510000000 1.0
C      1  0.4804560000000  0.4863160000000  0.4506880000000 1.0
C      1  0.4807720000000  0.5238290000000  0.4586890000000 1.0
C      1  0.4897960000000  0.5424550000000  0.4805700000000 1.0
C      1  0.4764100000000  0.5465350000000  0.5072230000000 1.0
C      1  0.4888570000000  0.5318230000000  0.5312400000000 1.0
C      1  0.4762660000000  0.5088230000000  0.5471410000000 1.0
C      1  0.4863560000000  0.4799760000000  0.5407040000000 1.0
C      1  0.4896860000000  0.4583320000000  0.5207560000000 1.0
C      1  0.4469260000000  0.5411490000000  0.5057590000000 1.0
C      1  0.4369370000000  0.5304110000000  0.5292020000000 1.0
C      1  0.4463840000000  0.5091260000000  0.5441630000000 1.0
C      1  0.4350730000000  0.4846320000000  0.5379360000000 1.0
C      1  0.4357940000000  0.4655410000000  0.5192040000000 1.0
C      1  0.4468560000000  0.4593520000000  0.4946280000000 1.0
C      1  0.4387870000000  0.4755590000000  0.4735950000000 1.0
C      1  0.4507390000000  0.4913610000000  0.4539330000000 1.0
C      1  0.4508760000000  0.5202110000000  0.4590660000000 1.0
C      1  0.4383610000000  0.5292740000000  0.4822270000000 1.0
C      1  0.5427430000000  0.4778060000000  0.5393910000000 1.0
C      1  0.5464150000000  0.4601270000000  0.5146460000000 1.0
C      1  0.5326790000000  0.4552080000000  0.4887360000000 1.0
C      1  0.5361750000000  0.4675880000000  0.4619700000000 1.0
C      1  0.5397380000000  0.4951580000000  0.4510970000000 1.0
C      1  0.5342930000000  0.5212930000000  0.4626470000000 1.0
C      1  0.5454490000000  0.5382820000000  0.4846160000000 1.0
C      1  0.5325450000000  0.5431730000000  0.5107630000000 1.0
C      1  0.5415340000000  0.5317720000000  0.5365030000000 1.0
C      1  0.5361280000000  0.5050740000000  0.5480900000000 1.0
C      1  0.4832370000000  0.5747890000000  0.5118790000000 1.0
C      1  0.4995710000000  0.5534100000000  0.5500530000000 1.0
C      1  0.4851740000000  0.5143070000000  0.5756520000000 1.0
C      1  0.4996700000000  0.4701400000000  0.5654410000000 1.0
C      1  0.5021500000000  0.4338480000000  0.5341670000000 1.0
C      1  0.4825760000000  0.4234610000000  0.4908600000000 1.0
C      1  0.4979430000000  0.4409840000000  0.4508500000000 1.0
C      1  0.4927100000000  0.4857050000000  0.4214810000000 1.0
C      1  0.4920780000000  0.5353900000000  0.4326490000000 1.0
C      1  0.5009370000000  0.5675450000000  0.4678080000000 1.0
C      1  0.5307890000000  0.4951820000000  0.4224070000000 1.0
C      1  0.5306420000000  0.5406420000000  0.4398510000000 1.0
C      1  0.5404660000000  0.5642190000000  0.4688460000000 1.0
C      1  0.5223940000000  0.5719680000000  0.5122540000000 1.0
C      1  0.5294380000000  0.5497800000000  0.5568900000000 1.0
C      1  0.5287720000000  0.5074510000000  0.5766200000000 1.0
C      1  0.5366890000000  0.4580300000000  0.5614220000000 1.0
C      1  0.5415350000000  0.4346620000000  0.5308940000000 1.0
C      1  0.5217280000000  0.4266900000000  0.4891230000000 1.0
C      1  0.5244220000000  0.4497750000000  0.4405660000000 1.0
C      1  0.5080960000000  0.5606060000000  0.4394410000000 1.0
C      1  0.5220940000000  0.5824860000000  0.4842160000000 1.0
C      1  0.5006330000000  0.5785130000000  0.5338390000000 1.0
C      1  0.5172870000000  0.5347840000000  0.5800210000000 1.0
C      1  0.5038690000000  0.4930060000000  0.5843960000000 1.0
C      1  0.5112230000000  0.4414160000000  0.5619510000000 1.0
C      1  0.5216360000000  0.4169580000000  0.5172620000000 1.0
C      1  0.5000000000000  0.4178170000000  0.4687750000000 1.0
C      1  0.5191490000000  0.4668590000000  0.4170860000000 1.0
C      1  0.5049310000000  0.5138780000000  0.4158520000000 1.0
END
