TITL C-8691-6797-49 -9.47088880828034e-06 125000 -358.629926638593 0 0 60 (C1) n - 1
REM
REM in /home/bkarasulu/CARBON/AIRSS/Generating-Clusters/EDIP-Nigel-Params/Higher-Symm/Box-15A/Only-C60/SD-CG/HFTN-CG
REM
REM
REM
REM
REM
REM ./C.cell (414f73aa93bd7a1190c7fd0f31ff2f98)
REM
REM compiler GCC version 9.2.1 20190827 (Red Hat 9.2.1-1)
REM options -cpp -mtune=generic -march=x86-64 -g -O0 -fpre-include=/usr/include/finclude/math-vector-fortran.h
REM seed 91486328 1740950228 -1972380950 -135631262 1940171060 18443944 243592734 -1476996427 860050221 -258530813 -2047801450 -1206493993 826063102 749022694 1317859707 1894545385 -1022276590 -270968934 1907154919 875565119 404077519 -1815359985 -1441309117 779083431 1612115530 764594996 -241157975 1071828281 -1810224002 729833422 -655317028 2075565112 -1614606813
REM
CELL 1.54180   50.00000   50.00000   50.00000   90.00000   90.00000   90.00000
LATT -1
SFAC C  
C      1  0.5136590000000  0.4794920000000  0.5801330000000 1.0
C      1  0.5142960000000  0.5261130000000  0.5780540000000 1.0
C      1  0.5615930000000  0.5262540000000  0.5422490000000 1.0
C      1  0.5645130000000  0.4795800000000  0.5405760000000 1.0
C      1  0.5092850000000  0.5655220000000  0.5122920000000 1.0
C      1  0.5141700000000  0.4342150000000  0.5170540000000 1.0
C      1  0.4769810000000  0.5428230000000  0.5161170000000 1.0
C      1  0.4840960000000  0.4582730000000  0.5165790000000 1.0
C      1  0.5695470000000  0.5271920000000  0.4883260000000 1.0
C      1  0.5738510000000  0.4785560000000  0.4890690000000 1.0
C      1  0.5402540000000  0.4485040000000  0.5137670000000 1.0
C      1  0.5368270000000  0.5545080000000  0.5101520000000 1.0
C      1  0.4827240000000  0.4736050000000  0.4131490000000 1.0
C      1  0.4858100000000  0.5262580000000  0.4182290000000 1.0
C      1  0.5084430000000  0.4616490000000  0.4551260000000 1.0
C      1  0.5175740000000  0.5439290000000  0.4474000000000 1.0
C      1  0.4409680000000  0.4807560000000  0.4667970000000 1.0
C      1  0.4329690000000  0.5306380000000  0.4700000000000 1.0
C      1  0.5027460000000  0.4790960000000  0.4324690000000 1.0
C      1  0.5146470000000  0.5276950000000  0.4232810000000 1.0
C      1  0.4897900000000  0.5573650000000  0.4900340000000 1.0
C      1  0.4985750000000  0.4317070000000  0.4922930000000 1.0
C      1  0.4469330000000  0.5449070000000  0.5173030000000 1.0
C      1  0.4548530000000  0.4553510000000  0.5114360000000 1.0
C      1  0.4873240000000  0.4504290000000  0.4731480000000 1.0
C      1  0.5005610000000  0.5380940000000  0.4703650000000 1.0
C      1  0.5380920000000  0.4716760000000  0.5311670000000 1.0
C      1  0.5396130000000  0.5266390000000  0.5206170000000 1.0
C      1  0.4406040000000  0.4756320000000  0.5263790000000 1.0
C      1  0.4349560000000  0.5196900000000  0.5290360000000 1.0
C      1  0.4581540000000  0.4594460000000  0.4806990000000 1.0
C      1  0.4372370000000  0.5484530000000  0.4911330000000 1.0
C      1  0.4904740000000  0.4753640000000  0.5624410000000 1.0
C      1  0.4907180000000  0.5289850000000  0.5611310000000 1.0
C      1  0.4934090000000  0.4530290000000  0.5438330000000 1.0
C      1  0.4906160000000  0.5505380000000  0.5417700000000 1.0
C      1  0.5809250000000  0.4892060000000  0.5169570000000 1.0
C      1  0.5778770000000  0.5188050000000  0.5167850000000 1.0
C      1  0.5528470000000  0.5513590000000  0.4860480000000 1.0
C      1  0.5506300000000  0.4583330000000  0.4866990000000 1.0
C      1  0.5262730000000  0.5245720000000  0.4799710000000 1.0
C      1  0.5306580000000  0.4752780000000  0.4706850000000 1.0
C      1  0.4643910000000  0.4941610000000  0.4166940000000 1.0
C      1  0.4092940000000  0.5155000000000  0.4735200000000 1.0
C      1  0.4504040000000  0.5040190000000  0.5504230000000 1.0
C      1  0.5203090000000  0.4994050000000  0.5171560000000 1.0
C      1  0.4694390000000  0.5038220000000  0.4978710000000 1.0
C      1  0.5246100000000  0.4992630000000  0.4289740000000 1.0
C      1  0.4895620000000  0.5014460000000  0.5209010000000 1.0
C      1  0.5187770000000  0.4966890000000  0.4880910000000 1.0
C      1  0.4550280000000  0.5096630000000  0.4661290000000 1.0
C      1  0.5695800000000  0.5026120000000  0.4700380000000 1.0
C      1  0.5118450000000  0.5036330000000  0.5972130000000 1.0
C      1  0.4693380000000  0.5125180000000  0.4387240000000 1.0
C      1  0.4400870000000  0.4981220000000  0.5077220000000 1.0
C      1  0.5446130000000  0.4958590000000  0.4523340000000 1.0
C      1  0.4192040000000  0.4915540000000  0.4849500000000 1.0
C      1  0.5563170000000  0.5022820000000  0.5583300000000 1.0
C      1  0.5259060000000  0.5019220000000  0.5608610000000 1.0
C      1  0.4803590000000  0.5022800000000  0.5495020000000 1.0
END
