TITL C-8691-6797-251 -9.80089909461211e-07 125000 -370.535780535674 0 0 60 (C2) n - 1
REM
REM in /home/bkarasulu/CARBON/AIRSS/Generating-Clusters/EDIP-Nigel-Params/Higher-Symm/Box-15A/Only-C60/SD-CG/HFTN-CG
REM
REM
REM
REM
REM
REM ./C.cell (414f73aa93bd7a1190c7fd0f31ff2f98)
REM
REM compiler GCC version 9.2.1 20190827 (Red Hat 9.2.1-1)
REM options -cpp -mtune=generic -march=x86-64 -g -O0 -fpre-include=/usr/include/finclude/math-vector-fortran.h
REM seed 1833302136 -1285793841 2063722542 113214290 -1846967502 2015362685 1932473268 -584261759 1597193878 -324526818 -968046048 138384457 -1501997912 1901884233 -391689649 563662025 -1728359465 -122714600 1380908620 1456833497 433394723 -1617878468 -1816144301 2009324893 1616814713 -434494545 955727774 1489433330 844952385 586065042 1109600323 -56343036 -2100869386
REM
CELL 1.54180   50.00000   50.00000   50.00000   90.00000   90.00000   90.00000
LATT -1
SFAC C  
C      1  0.4840760000000  0.5009190000000  0.4273170000000 1.0
C      1  0.4833660000000  0.4995240000000  0.5725280000000 1.0
C      1  0.5125890000000  0.5047450000000  0.4249230000000 1.0
C      1  0.5117400000000  0.4949250000000  0.5751930000000 1.0
C      1  0.5424780000000  0.4406120000000  0.5531810000000 1.0
C      1  0.5445810000000  0.5582050000000  0.4472340000000 1.0
C      1  0.4584710000000  0.5599930000000  0.5484760000000 1.0
C      1  0.4573190000000  0.4411520000000  0.4511230000000 1.0
C      1  0.5214800000000  0.5709320000000  0.5165050000000 1.0
C      1  0.5197000000000  0.4285080000000  0.4836910000000 1.0
C      1  0.4801710000000  0.4228430000000  0.5197200000000 1.0
C      1  0.4824640000000  0.5776650000000  0.4801020000000 1.0
C      1  0.5339440000000  0.4391740000000  0.5049000000000 1.0
C      1  0.5356300000000  0.5598800000000  0.4954310000000 1.0
C      1  0.4654730000000  0.5679010000000  0.5002400000000 1.0
C      1  0.4636440000000  0.4330620000000  0.4994230000000 1.0
C      1  0.4878860000000  0.4732050000000  0.5114070000000 1.0
C      1  0.4887280000000  0.5271130000000  0.4884820000000 1.0
C      1  0.5097640000000  0.5158430000000  0.5036920000000 1.0
C      1  0.5093650000000  0.4838970000000  0.4963990000000 1.0
C      1  0.5496310000000  0.5216020000000  0.5252960000000 1.0
C      1  0.5492640000000  0.4770540000000  0.4751750000000 1.0
C      1  0.4469160000000  0.4752180000000  0.5281750000000 1.0
C      1  0.4478790000000  0.5262120000000  0.4713250000000 1.0
C      1  0.5273190000000  0.4839050000000  0.4544480000000 1.0
C      1  0.5273120000000  0.5153520000000  0.5458120000000 1.0
C      1  0.4708300000000  0.5232600000000  0.4481590000000 1.0
C      1  0.4697170000000  0.4775480000000  0.5515580000000 1.0
C      1  0.5375000000000  0.4692190000000  0.5021030000000 1.0
C      1  0.5383410000000  0.5297500000000  0.4982580000000 1.0
C      1  0.4612780000000  0.5380320000000  0.4966350000000 1.0
C      1  0.4602280000000  0.4630350000000  0.5029910000000 1.0
C      1  0.5214370000000  0.4829330000000  0.5499190000000 1.0
C      1  0.5223670000000  0.5164720000000  0.4502890000000 1.0
C      1  0.4773140000000  0.5147340000000  0.5466780000000 1.0
C      1  0.4773670000000  0.4858820000000  0.4531060000000 1.0
C      1  0.4342420000000  0.5004170000000  0.5148610000000 1.0
C      1  0.4343990000000  0.5013690000000  0.4845140000000 1.0
C      1  0.5665820000000  0.4995850000000  0.5155720000000 1.0
C      1  0.5667140000000  0.4986030000000  0.4850620000000 1.0
C      1  0.4439810000000  0.4744030000000  0.4793190000000 1.0
C      1  0.4445030000000  0.5271130000000  0.5201500000000 1.0
C      1  0.5646260000000  0.5241930000000  0.4715320000000 1.0
C      1  0.5636700000000  0.4740630000000  0.5290790000000 1.0
C      1  0.4964570000000  0.5343600000000  0.4615520000000 1.0
C      1  0.4951590000000  0.4657540000000  0.5384080000000 1.0
C      1  0.5022900000000  0.4731140000000  0.4673720000000 1.0
C      1  0.5027090000000  0.5268180000000  0.5326520000000 1.0
C      1  0.5024740000000  0.5580540000000  0.5321840000000 1.0
C      1  0.5012010000000  0.4418960000000  0.4678340000000 1.0
C      1  0.4975510000000  0.4352250000000  0.5381010000000 1.0
C      1  0.4996750000000  0.5648130000000  0.4618860000000 1.0
C      1  0.5484270000000  0.5307180000000  0.4488040000000 1.0
C      1  0.5470850000000  0.4679830000000  0.5516500000000 1.0
C      1  0.4528440000000  0.4686550000000  0.4521210000000 1.0
C      1  0.4532600000000  0.5326210000000  0.5474320000000 1.0
C      1  0.5262970000000  0.4295200000000  0.5327030000000 1.0
C      1  0.5285140000000  0.5697340000000  0.4675580000000 1.0
C      1  0.4757060000000  0.5709210000000  0.5289180000000 1.0
C      1  0.4740630000000  0.4297610000000  0.4708420000000 1.0
END
