TITL C-8694-7203-252 -5.81481096797044e-05 125000 -357.526327057823 0 0 60 (C1) n - 1
REM
REM in /home/bkarasulu/CARBON/AIRSS/Generating-Clusters/EDIP-Nigel-Params/Higher-Symm/Box-15A/Only-C60/SD-CG/HFTN-CG
REM
REM
REM
REM
REM
REM ./C.cell (414f73aa93bd7a1190c7fd0f31ff2f98)
REM
REM compiler GCC version 9.2.1 20190827 (Red Hat 9.2.1-1)
REM options -cpp -mtune=generic -march=x86-64 -g -O0 -fpre-include=/usr/include/finclude/math-vector-fortran.h
REM seed -272589698 62088497 -1135308588 -244133799 751290393 194151281 -1987603854 -1321389254 -137808559 -1731512084 -789115397 391194161 -599917601 -1098376430 1631631898 213719843 -1610042282 132244658 -312934295 -165037533 -996387015 181732229 10360920 1743106736 1848594857 -590461317 -800459991 -1196380574 337022270 1975271104 310853997 -1883190808 1628599502
REM
CELL 1.54180   50.00000   50.00000   50.00000   90.00000   90.00000   90.00000
LATT -1
SFAC C  
C      1  0.4322660000000  0.5360370000000  0.4941100000000 1.0
C      1  0.5677160000000  0.4640270000000  0.4941390000000 1.0
C      1  0.5291680000000  0.5542220000000  0.4463770000000 1.0
C      1  0.4708460000000  0.4457880000000  0.4463860000000 1.0
C      1  0.5142180000000  0.5008680000000  0.5718890000000 1.0
C      1  0.4859760000000  0.5001370000000  0.5717500000000 1.0
C      1  0.4544410000000  0.4680000000000  0.4557280000000 1.0
C      1  0.5456300000000  0.5320030000000  0.4556290000000 1.0
C      1  0.5323530000000  0.4907490000000  0.5525980000000 1.0
C      1  0.4675950000000  0.5096790000000  0.5523520000000 1.0
C      1  0.4553000000000  0.4513220000000  0.5389070000000 1.0
C      1  0.5448680000000  0.5484680000000  0.5388120000000 1.0
C      1  0.5232260000000  0.5489290000000  0.5592250000000 1.0
C      1  0.4770360000000  0.4509760000000  0.5592060000000 1.0
C      1  0.5578060000000  0.5024050000000  0.5521800000000 1.0
C      1  0.4425140000000  0.4972490000000  0.5525230000000 1.0
C      1  0.5023700000000  0.5665710000000  0.5502400000000 1.0
C      1  0.4971990000000  0.4327370000000  0.5501700000000 1.0
C      1  0.5091950000000  0.4458930000000  0.4479030000000 1.0
C      1  0.4908260000000  0.5541800000000  0.4480330000000 1.0
C      1  0.4508570000000  0.5568170000000  0.4936240000000 1.0
C      1  0.5491930000000  0.4431890000000  0.4936880000000 1.0
C      1  0.4431830000000  0.4859560000000  0.5043920000000 1.0
C      1  0.5570250000000  0.5140020000000  0.5041660000000 1.0
C      1  0.4399970000000  0.5326740000000  0.4674970000000 1.0
C      1  0.5600430000000  0.4672640000000  0.4674910000000 1.0
C      1  0.4439700000000  0.4779320000000  0.5323140000000 1.0
C      1  0.5562920000000  0.5219040000000  0.5320950000000 1.0
C      1  0.4681170000000  0.5371590000000  0.5461450000000 1.0
C      1  0.5299910000000  0.4630070000000  0.5462100000000 1.0
C      1  0.4830650000000  0.4748220000000  0.5120970000000 1.0
C      1  0.5171330000000  0.5251720000000  0.5119930000000 1.0
C      1  0.5057490000000  0.4306590000000  0.4737240000000 1.0
C      1  0.4944130000000  0.5694370000000  0.4738180000000 1.0
C      1  0.5073130000000  0.5260750000000  0.5440910000000 1.0
C      1  0.4926470000000  0.4740870000000  0.5443780000000 1.0
C      1  0.4938830000000  0.5119360000000  0.4242150000000 1.0
C      1  0.5061780000000  0.4881750000000  0.4241690000000 1.0
C      1  0.5496040000000  0.5074030000000  0.4439960000000 1.0
C      1  0.4505380000000  0.4925890000000  0.4440760000000 1.0
C      1  0.4798660000000  0.5550870000000  0.5005910000000 1.0
C      1  0.5200770000000  0.4448860000000  0.5001220000000 1.0
C      1  0.4608890000000  0.4422070000000  0.4915760000000 1.0
C      1  0.5392950000000  0.5577950000000  0.4915150000000 1.0
C      1  0.4693730000000  0.4389240000000  0.5173120000000 1.0
C      1  0.5309080000000  0.5609980000000  0.5172870000000 1.0
C      1  0.5500530000000  0.5332100000000  0.4836740000000 1.0
C      1  0.4501180000000  0.4668050000000  0.4838060000000 1.0
C      1  0.4754900000000  0.4287660000000  0.4702540000000 1.0
C      1  0.5246270000000  0.5712640000000  0.4702540000000 1.0
C      1  0.5259290000000  0.4965210000000  0.4889680000000 1.0
C      1  0.4741920000000  0.5035170000000  0.4891000000000 1.0
C      1  0.5385460000000  0.4864920000000  0.4608350000000 1.0
C      1  0.4615570000000  0.5134990000000  0.4609320000000 1.0
C      1  0.4901450000000  0.5270310000000  0.4986710000000 1.0
C      1  0.5100340000000  0.4730350000000  0.4987000000000 1.0
C      1  0.5183900000000  0.4403620000000  0.5323180000000 1.0
C      1  0.4806700000000  0.5590600000000  0.5329000000000 1.0
C      1  0.5175860000000  0.4730860000000  0.4443650000000 1.0
C      1  0.4825110000000  0.5269570000000  0.4444840000000 1.0
END
