TITL C-8691-6797-246 -1.07848039249575e-05 125000 -364.063679420809 0 0 60 (C1) n - 1
REM
REM in /home/bkarasulu/CARBON/AIRSS/Generating-Clusters/EDIP-Nigel-Params/Higher-Symm/Box-15A/Only-C60/SD-CG/HFTN-CG
REM
REM
REM
REM
REM
REM ./C.cell (414f73aa93bd7a1190c7fd0f31ff2f98)
REM
REM compiler GCC version 9.2.1 20190827 (Red Hat 9.2.1-1)
REM options -cpp -mtune=generic -march=x86-64 -g -O0 -fpre-include=/usr/include/finclude/math-vector-fortran.h
REM seed -203956827 245371937 383590506 -2057842293 1124494582 -890941070 -1299089443 1333191715 539580529 -1181510891 1326730685 1712524249 -756212180 570161756 1248802573 -1634704288 -2111456369 1324329292 1830268229 -29863311 425754009 -992691970 -723205734 1922777528 1915397180 -2042768460 843236023 849622846 995586038 -403663956 1869965102 -127274025 -556201625
REM
CELL 1.54180   50.00000   50.00000   50.00000   90.00000   90.00000   90.00000
LATT -1
SFAC C  
C      1  0.5698730000000  0.5121430000000  0.4687360000000 1.0
C      1  0.4924980000000  0.5150010000000  0.4763330000000 1.0
C      1  0.5309420000000  0.4491970000000  0.5120920000000 1.0
C      1  0.4917240000000  0.5576020000000  0.4497340000000 1.0
C      1  0.5177370000000  0.4492400000000  0.5390310000000 1.0
C      1  0.4550010000000  0.4580340000000  0.4721390000000 1.0
C      1  0.4307110000000  0.4735430000000  0.5126500000000 1.0
C      1  0.5224330000000  0.4534480000000  0.4617210000000 1.0
C      1  0.4746160000000  0.4381170000000  0.4705180000000 1.0
C      1  0.5459520000000  0.4906770000000  0.5508240000000 1.0
C      1  0.5534570000000  0.5341870000000  0.4735210000000 1.0
C      1  0.5292330000000  0.4914910000000  0.4999330000000 1.0
C      1  0.4841000000000  0.4245550000000  0.5151170000000 1.0
C      1  0.5564260000000  0.5479610000000  0.4989070000000 1.0
C      1  0.4342470000000  0.4997220000000  0.4582090000000 1.0
C      1  0.5732820000000  0.4622500000000  0.4683780000000 1.0
C      1  0.5671330000000  0.4772940000000  0.5340260000000 1.0
C      1  0.5392660000000  0.5619220000000  0.5158530000000 1.0
C      1  0.5004060000000  0.4910150000000  0.5687730000000 1.0
C      1  0.5059730000000  0.4886150000000  0.5203440000000 1.0
C      1  0.5356200000000  0.5426740000000  0.4519500000000 1.0
C      1  0.4755750000000  0.4787850000000  0.5683530000000 1.0
C      1  0.5509620000000  0.5128670000000  0.5118710000000 1.0
C      1  0.4709260000000  0.5282600000000  0.5655770000000 1.0
C      1  0.4561500000000  0.4741390000000  0.4972640000000 1.0
C      1  0.5149140000000  0.5306900000000  0.5427590000000 1.0
C      1  0.5187570000000  0.5655090000000  0.4541320000000 1.0
C      1  0.4923460000000  0.4266230000000  0.4888650000000 1.0
C      1  0.5426770000000  0.5182620000000  0.5405050000000 1.0
C      1  0.4836320000000  0.5295830000000  0.5014090000000 1.0
C      1  0.4520650000000  0.4766270000000  0.4481180000000 1.0
C      1  0.4945870000000  0.5722760000000  0.5221270000000 1.0
C      1  0.4927430000000  0.5269120000000  0.4487720000000 1.0
C      1  0.4463400000000  0.5239870000000  0.4481220000000 1.0
C      1  0.4517770000000  0.5357840000000  0.5220330000000 1.0
C      1  0.5476730000000  0.4676740000000  0.4593420000000 1.0
C      1  0.5184120000000  0.4791170000000  0.5473200000000 1.0
C      1  0.5175280000000  0.5600010000000  0.5335400000000 1.0
C      1  0.4309020000000  0.5025270000000  0.4882580000000 1.0
C      1  0.5004820000000  0.4735360000000  0.4621800000000 1.0
C      1  0.5212070000000  0.5199090000000  0.4412670000000 1.0
C      1  0.5163790000000  0.4969400000000  0.4715140000000 1.0
C      1  0.5805170000000  0.4880870000000  0.4605070000000 1.0
C      1  0.5763490000000  0.4977920000000  0.5151290000000 1.0
C      1  0.4983460000000  0.5209700000000  0.5671910000000 1.0
C      1  0.4916670000000  0.5579570000000  0.4977690000000 1.0
C      1  0.4745210000000  0.5628390000000  0.4732220000000 1.0
C      1  0.4364640000000  0.4760600000000  0.5407280000000 1.0
C      1  0.4812110000000  0.4799140000000  0.4396010000000 1.0
C      1  0.4800320000000  0.4684020000000  0.5175570000000 1.0
C      1  0.4705280000000  0.5096940000000  0.4350960000000 1.0
C      1  0.5557440000000  0.4649860000000  0.5084470000000 1.0
C      1  0.4485950000000  0.5255160000000  0.5486240000000 1.0
C      1  0.4522420000000  0.5413420000000  0.4722470000000 1.0
C      1  0.4337500000000  0.5020740000000  0.5504940000000 1.0
C      1  0.4641930000000  0.4655700000000  0.5458120000000 1.0
C      1  0.5196360000000  0.4370770000000  0.4869930000000 1.0
C      1  0.4984280000000  0.5164300000000  0.5230610000000 1.0
C      1  0.4406280000000  0.5291770000000  0.4964340000000 1.0
C      1  0.4904860000000  0.4374160000000  0.5389700000000 1.0
END
