TITL C-8696-5006-20 0.000318491620621927 125000 -361.573847409159 0 0 60 (C1) n - 1
REM
REM in /home/bkarasulu/CARBON/AIRSS/Generating-Clusters/EDIP-Nigel-Params/Higher-Symm/Box-15A/Only-C60/SD-CG/HFTN-CG
REM
REM
REM
REM
REM
REM ./C.cell (414f73aa93bd7a1190c7fd0f31ff2f98)
REM
REM compiler GCC version 9.2.1 20190827 (Red Hat 9.2.1-1)
REM options -cpp -mtune=generic -march=x86-64 -g -O0 -fpre-include=/usr/include/finclude/math-vector-fortran.h
REM seed 1572699902 -935381499 1549474619 -1851588171 1005258983 -946305511 -1944912118 349957907 396757356 -1627109202 -930130315 117181682 780902554 1436027132 -1391642572 -1794497548 -530112565 1289691770 -645908095 -850310261 420579463 -1181534481 1686498962 -2058515048 1863147957 -222445192 5941258 1625652520 2042387006 -103571411 1423087344 -213235665 921980337
REM
CELL 1.54180   50.00000   50.00000   50.00000   90.00000   90.00000   90.00000
LATT -1
SFAC C  
C      1  0.4855580000000  0.4333140000000  0.4800990000000 1.0
C      1  0.5606460000000  0.5185570000000  0.4841700000000 1.0
C      1  0.4498700000000  0.5498750000000  0.4831400000000 1.0
C      1  0.4760020000000  0.5633720000000  0.4855360000000 1.0
C      1  0.4596690000000  0.4474930000000  0.4841360000000 1.0
C      1  0.5584280000000  0.4898200000000  0.4871610000000 1.0
C      1  0.4943020000000  0.5312180000000  0.4495860000000 1.0
C      1  0.4767090000000  0.4797260000000  0.4478410000000 1.0
C      1  0.5276620000000  0.4874720000000  0.4462860000000 1.0
C      1  0.5489090000000  0.4727610000000  0.4644660000000 1.0
C      1  0.4966430000000  0.5573770000000  0.4651950000000 1.0
C      1  0.4532310000000  0.4694650000000  0.4653800000000 1.0
C      1  0.5287470000000  0.4302800000000  0.4553050000000 1.0
C      1  0.5445520000000  0.5588770000000  0.4623010000000 1.0
C      1  0.4266590000000  0.5102050000000  0.4673140000000 1.0
C      1  0.5594400000000  0.5300990000000  0.5107960000000 1.0
C      1  0.4425400000000  0.5422510000000  0.5102920000000 1.0
C      1  0.5009240000000  0.4370110000000  0.5056760000000 1.0
C      1  0.4663680000000  0.5434450000000  0.5281660000000 1.0
C      1  0.4849530000000  0.4541270000000  0.5246560000000 1.0
C      1  0.5486600000000  0.5103930000000  0.5292990000000 1.0
C      1  0.5129290000000  0.5253930000000  0.4262800000000 1.0
C      1  0.4698150000000  0.5005940000000  0.4266140000000 1.0
C      1  0.5135180000000  0.4746420000000  0.4216880000000 1.0
C      1  0.5453840000000  0.5307350000000  0.4630920000000 1.0
C      1  0.4485010000000  0.5276520000000  0.4643470000000 1.0
C      1  0.5016640000000  0.4381780000000  0.4550330000000 1.0
C      1  0.4671000000000  0.5144030000000  0.5019090000000 1.0
C      1  0.5226290000000  0.4566070000000  0.4983820000000 1.0
C      1  0.5225770000000  0.5329090000000  0.5014480000000 1.0
C      1  0.5548660000000  0.4842650000000  0.5162330000000 1.0
C      1  0.4847950000000  0.5631740000000  0.5141910000000 1.0
C      1  0.4584100000000  0.4577450000000  0.5120150000000 1.0
C      1  0.4722320000000  0.5162950000000  0.5448400000000 1.0
C      1  0.5009940000000  0.4720300000000  0.5435030000000 1.0
C      1  0.5232220000000  0.5180250000000  0.5432990000000 1.0
C      1  0.5197010000000  0.5457730000000  0.5410460000000 1.0
C      1  0.4508540000000  0.4995610000000  0.5359410000000 1.0
C      1  0.5265420000000  0.4617030000000  0.5482780000000 1.0
C      1  0.4446030000000  0.4837380000000  0.5117260000000 1.0
C      1  0.5389450000000  0.4610960000000  0.5231080000000 1.0
C      1  0.5139450000000  0.5600980000000  0.5167910000000 1.0
C      1  0.4380880000000  0.4884850000000  0.4815560000000 1.0
C      1  0.5401380000000  0.4469780000000  0.4750580000000 1.0
C      1  0.5215380000000  0.5640460000000  0.4785160000000 1.0
C      1  0.4922010000000  0.4575200000000  0.4346120000000 1.0
C      1  0.5372970000000  0.5152290000000  0.4396020000000 1.0
C      1  0.4663850000000  0.5263880000000  0.4412020000000 1.0
C      1  0.4973380000000  0.5028600000000  0.6864900000000 1.0
C      1  0.4983290000000  0.5021500000000  0.6345490000000 1.0
C      1  0.4953460000000  0.5054150000000  0.3592100000000 1.0
C      1  0.4986620000000  0.5016630000000  0.5533160000000 1.0
C      1  0.4983450000000  0.5013580000000  0.4129970000000 1.0
C      1  0.5013410000000  0.4947330000000  0.4614870000000 1.0
C      1  0.4987660000000  0.5110970000000  0.5019730000000 1.0
C      1  0.4994390000000  0.5013800000000  0.5817140000000 1.0
C      1  0.4966880000000  0.5040920000000  0.3847620000000 1.0
C      1  0.4977810000000  0.5025330000000  0.6609260000000 1.0
C      1  0.5056920000000  0.4862330000000  0.4891420000000 1.0
C      1  0.4987580000000  0.5018270000000  0.6081690000000 1.0
END
