TITL C-8699-7882-220 -5.51421499398951e-07 125000 -369.667393582448 0 0 60 (C1) n - 1
REM
REM in /home/bkarasulu/CARBON/AIRSS/Generating-Clusters/EDIP-Nigel-Params/Higher-Symm/Box-15A/Only-C60/SD-CG/HFTN-CG
REM
REM
REM
REM
REM
REM ./C.cell (414f73aa93bd7a1190c7fd0f31ff2f98)
REM
REM compiler GCC version 9.2.1 20190827 (Red Hat 9.2.1-1)
REM options -cpp -mtune=generic -march=x86-64 -g -O0 -fpre-include=/usr/include/finclude/math-vector-fortran.h
REM seed -1271517928 -1832203791 960566880 777588494 1683441535 1991237744 -1300997646 364988975 -1948912809 1250962612 -799689471 2093491572 -461246988 -1128510752 -677634315 -173739884 -949088535 -1124013062 -53825630 834860252 1964519221 272294397 1049436391 2092817700 -326098729 1783101934 9431507 608524641 -1493571129 1213794503 677410987 -1124722397 -1427044189
REM
CELL 1.54180   50.00000   50.00000   50.00000   90.00000   90.00000   90.00000
LATT -1
SFAC C  
C      1  0.5211740000000  0.5095340000000  0.4263130000000 1.0
C      1  0.4739800000000  0.5115470000000  0.4257030000000 1.0
C      1  0.4956490000000  0.4679200000000  0.4176520000000 1.0
C      1  0.5470290000000  0.5208050000000  0.4674570000000 1.0
C      1  0.4568500000000  0.5376130000000  0.4575280000000 1.0
C      1  0.4969740000000  0.4499490000000  0.4583150000000 1.0
C      1  0.5513970000000  0.5023350000000  0.5453910000000 1.0
C      1  0.4663420000000  0.5461450000000  0.5453890000000 1.0
C      1  0.4722860000000  0.4433140000000  0.5448970000000 1.0
C      1  0.5134620000000  0.4384770000000  0.4799820000000 1.0
C      1  0.5451260000000  0.5480040000000  0.4740980000000 1.0
C      1  0.4408200000000  0.5254550000000  0.4790450000000 1.0
C      1  0.4580640000000  0.5522760000000  0.5193830000000 1.0
C      1  0.4800440000000  0.4426840000000  0.5181150000000 1.0
C      1  0.5545280000000  0.5096770000000  0.5188670000000 1.0
C      1  0.5604210000000  0.4870800000000  0.5013890000000 1.0
C      1  0.4789340000000  0.5670240000000  0.5035910000000 1.0
C      1  0.4628850000000  0.4577850000000  0.5000710000000 1.0
C      1  0.5269060000000  0.5788110000000  0.5053530000000 1.0
C      1  0.4288150000000  0.4859660000000  0.5016520000000 1.0
C      1  0.5553870000000  0.4410170000000  0.5046210000000 1.0
C      1  0.4356770000000  0.4592180000000  0.5075500000000 1.0
C      1  0.5710290000000  0.4634900000000  0.5138590000000 1.0
C      1  0.5006370000000  0.5810860000000  0.5208970000000 1.0
C      1  0.5040880000000  0.4446050000000  0.4314530000000 1.0
C      1  0.5449700000000  0.5088600000000  0.4417450000000 1.0
C      1  0.4505880000000  0.5259140000000  0.4325330000000 1.0
C      1  0.5365560000000  0.5314280000000  0.5078560000000 1.0
C      1  0.4474710000000  0.5284800000000  0.5071120000000 1.0
C      1  0.5085180000000  0.4469080000000  0.5101360000000 1.0
C      1  0.5348990000000  0.4782540000000  0.4891880000000 1.0
C      1  0.4967000000000  0.5475510000000  0.4881290000000 1.0
C      1  0.4733950000000  0.4837900000000  0.4871700000000 1.0
C      1  0.4976010000000  0.5209160000000  0.4403600000000 1.0
C      1  0.4756630000000  0.4829480000000  0.4339760000000 1.0
C      1  0.5153260000000  0.4870020000000  0.4102220000000 1.0
C      1  0.5200480000000  0.4937300000000  0.4670830000000 1.0
C      1  0.4853750000000  0.5361830000000  0.4627440000000 1.0
C      1  0.4911440000000  0.4790130000000  0.4617520000000 1.0
C      1  0.4360720000000  0.4984660000000  0.5481830000000 1.0
C      1  0.5381080000000  0.4331600000000  0.5498910000000 1.0
C      1  0.5361310000000  0.5622300000000  0.5474560000000 1.0
C      1  0.4901710000000  0.4758390000000  0.5728640000000 1.0
C      1  0.5087740000000  0.4938100000000  0.5634260000000 1.0
C      1  0.5018680000000  0.5202450000000  0.5612550000000 1.0
C      1  0.5386700000000  0.4591500000000  0.5564630000000 1.0
C      1  0.5079430000000  0.5649420000000  0.5454430000000 1.0
C      1  0.4453630000000  0.4778620000000  0.5624610000000 1.0
C      1  0.4350050000000  0.5063370000000  0.5215860000000 1.0
C      1  0.5325620000000  0.4317230000000  0.5224310000000 1.0
C      1  0.5436310000000  0.5588790000000  0.5203580000000 1.0
C      1  0.5042700000000  0.5265050000000  0.5106690000000 1.0
C      1  0.4939730000000  0.4970430000000  0.5067400000000 1.0
C      1  0.5157720000000  0.4773360000000  0.5134700000000 1.0
C      1  0.4943440000000  0.5389220000000  0.5412690000000 1.0
C      1  0.4677520000000  0.4618910000000  0.5650120000000 1.0
C      1  0.5294140000000  0.4835400000000  0.5449500000000 1.0
C      1  0.5409490000000  0.4496600000000  0.4796620000000 1.0
C      1  0.5215460000000  0.5633210000000  0.4808110000000 1.0
C      1  0.4409240000000  0.4963500000000  0.4770220000000 1.0
END
