TITL C-8691-6797-74 5.3217873417247e-06 125000 -362.886460980445 0 0 60 (C1) n - 1
REM
REM in /home/bkarasulu/CARBON/AIRSS/Generating-Clusters/EDIP-Nigel-Params/Higher-Symm/Box-15A/Only-C60/SD-CG/HFTN-CG
REM
REM
REM
REM
REM
REM ./C.cell (414f73aa93bd7a1190c7fd0f31ff2f98)
REM
REM compiler GCC version 9.2.1 20190827 (Red Hat 9.2.1-1)
REM options -cpp -mtune=generic -march=x86-64 -g -O0 -fpre-include=/usr/include/finclude/math-vector-fortran.h
REM seed -1025242740 782560011 -846470290 139926018 1524655457 -788143982 -116486467 -1900579056 1048324240 2131506173 2098849387 1334723761 -1225520890 -1600784129 1696326256 377455823 -336693963 -1147034268 1280918539 1257979892 1262137239 991371133 589753956 1987684265 1591604929 560186993 1294395266 1749875155 1246348131 -938951559 -1875229962 -362112576 -1298003973
REM
CELL 1.54180   50.00000   50.00000   50.00000   90.00000   90.00000   90.00000
LATT -1
SFAC C  
C      1  0.5024000000000  0.5298730000000  0.4978660000000 1.0
C      1  0.5666990000000  0.5244350000000  0.4762190000000 1.0
C      1  0.5369620000000  0.5074160000000  0.5364200000000 1.0
C      1  0.4252970000000  0.5215510000000  0.5187040000000 1.0
C      1  0.4954810000000  0.4772090000000  0.5535330000000 1.0
C      1  0.4766600000000  0.4444200000000  0.4501000000000 1.0
C      1  0.4313920000000  0.5038970000000  0.5410220000000 1.0
C      1  0.4681730000000  0.4879510000000  0.4476100000000 1.0
C      1  0.5054110000000  0.4967770000000  0.5734130000000 1.0
C      1  0.5230630000000  0.4311510000000  0.5377130000000 1.0
C      1  0.5105360000000  0.5545950000000  0.5324500000000 1.0
C      1  0.5478690000000  0.4597830000000  0.5484360000000 1.0
C      1  0.5334800000000  0.4729080000000  0.4426070000000 1.0
C      1  0.5165790000000  0.4553890000000  0.5552000000000 1.0
C      1  0.5542270000000  0.4313050000000  0.5355740000000 1.0
C      1  0.4314120000000  0.5254280000000  0.4704540000000 1.0
C      1  0.4920260000000  0.4449430000000  0.4952970000000 1.0
C      1  0.4801670000000  0.5330540000000  0.4397980000000 1.0
C      1  0.5632480000000  0.5127660000000  0.4462690000000 1.0
C      1  0.4911250000000  0.5670350000000  0.4766530000000 1.0
C      1  0.4626100000000  0.4628350000000  0.4368680000000 1.0
C      1  0.4657940000000  0.4719770000000  0.5594450000000 1.0
C      1  0.5231760000000  0.5373150000000  0.5529070000000 1.0
C      1  0.4588400000000  0.5350830000000  0.4700990000000 1.0
C      1  0.4343600000000  0.5482210000000  0.5196240000000 1.0
C      1  0.4640210000000  0.5095880000000  0.5608660000000 1.0
C      1  0.5281140000000  0.5426820000000  0.4554060000000 1.0
C      1  0.5339460000000  0.5579170000000  0.5018480000000 1.0
C      1  0.4625700000000  0.5624730000000  0.4836730000000 1.0
C      1  0.5356140000000  0.5210440000000  0.4377930000000 1.0
C      1  0.5647080000000  0.4292230000000  0.5098550000000 1.0
C      1  0.5528930000000  0.4783720000000  0.4998490000000 1.0
C      1  0.4309340000000  0.4817500000000  0.4931360000000 1.0
C      1  0.4491050000000  0.4687770000000  0.5102730000000 1.0
C      1  0.4868890000000  0.5051620000000  0.4320070000000 1.0
C      1  0.5062660000000  0.5356080000000  0.5760450000000 1.0
C      1  0.5616690000000  0.4815890000000  0.4488980000000 1.0
C      1  0.4439580000000  0.4769080000000  0.5389520000000 1.0
C      1  0.4798390000000  0.4903130000000  0.4761680000000 1.0
C      1  0.4780040000000  0.4715900000000  0.5020230000000 1.0
C      1  0.5165010000000  0.4985060000000  0.4427480000000 1.0
C      1  0.5087960000000  0.4989100000000  0.4721030000000 1.0
C      1  0.5107630000000  0.4342900000000  0.5126320000000 1.0
C      1  0.4916190000000  0.4906920000000  0.5258030000000 1.0
C      1  0.4744090000000  0.5169850000000  0.4881420000000 1.0
C      1  0.5417700000000  0.5396190000000  0.4806970000000 1.0
C      1  0.4997240000000  0.5469160000000  0.4572090000000 1.0
C      1  0.5158750000000  0.5044710000000  0.5153710000000 1.0
C      1  0.5566480000000  0.4504170000000  0.4955820000000 1.0
C      1  0.5712060000000  0.4930670000000  0.4793360000000 1.0
C      1  0.4737940000000  0.5142070000000  0.5324400000000 1.0
C      1  0.4856490000000  0.5157450000000  0.5815360000000 1.0
C      1  0.4246280000000  0.5090260000000  0.4924280000000 1.0
C      1  0.5228610000000  0.4511080000000  0.4570290000000 1.0
C      1  0.5546130000000  0.4841370000000  0.5303040000000 1.0
C      1  0.5252820000000  0.4863730000000  0.4940280000000 1.0
C      1  0.4594340000000  0.5595180000000  0.5131710000000 1.0
C      1  0.4984840000000  0.4407650000000  0.4667790000000 1.0
C      1  0.4827680000000  0.5421860000000  0.5234710000000 1.0
C      1  0.5096560000000  0.5727490000000  0.4981240000000 1.0
END
