TITL C-8696-5006-109 -7.10956941927195e-06 125000 -358.961778617987 0 0 60 (C1) n - 1
REM
REM in /home/bkarasulu/CARBON/AIRSS/Generating-Clusters/EDIP-Nigel-Params/Higher-Symm/Box-15A/Only-C60/SD-CG/HFTN-CG
REM
REM
REM
REM
REM
REM ./C.cell (414f73aa93bd7a1190c7fd0f31ff2f98)
REM
REM compiler GCC version 9.2.1 20190827 (Red Hat 9.2.1-1)
REM options -cpp -mtune=generic -march=x86-64 -g -O0 -fpre-include=/usr/include/finclude/math-vector-fortran.h
REM seed -536331464 1399813058 -234995938 -276524736 -617748561 -2133755989 133731859 -436748416 888399839 -380922196 1284057702 -1011952581 1621456999 354376928 -407016891 842125776 -1583761739 -1769926732 113877808 526026764 1394578912 -353879021 957281452 -116776827 -959258063 280796632 -1400194124 75228279 -169717327 1546512963 -1631894421 -1725895631 -649540920
REM
CELL 1.54180   50.00000   50.00000   50.00000   90.00000   90.00000   90.00000
LATT -1
SFAC C  
C      1  0.5589420000000  0.5485070000000  0.5227020000000 1.0
C      1  0.5839510000000  0.4804690000000  0.5229290000000 1.0
C      1  0.5321670000000  0.4230710000000  0.5202750000000 1.0
C      1  0.4660950000000  0.4327650000000  0.5246960000000 1.0
C      1  0.4258020000000  0.4792060000000  0.5241890000000 1.0
C      1  0.4376650000000  0.5478670000000  0.5226520000000 1.0
C      1  0.5003860000000  0.5802790000000  0.5206490000000 1.0
C      1  0.4413470000000  0.4853690000000  0.4725750000000 1.0
C      1  0.4455830000000  0.5353070000000  0.4725570000000 1.0
C      1  0.4937250000000  0.5595020000000  0.4740950000000 1.0
C      1  0.5415650000000  0.5364720000000  0.4740960000000 1.0
C      1  0.5602230000000  0.4877790000000  0.4756360000000 1.0
C      1  0.5261680000000  0.4480510000000  0.4802950000000 1.0
C      1  0.4764300000000  0.4480770000000  0.4742760000000 1.0
C      1  0.5548900000000  0.5492070000000  0.4956190000000 1.0
C      1  0.5790480000000  0.4852890000000  0.4966180000000 1.0
C      1  0.5364800000000  0.4240050000000  0.4931970000000 1.0
C      1  0.4666960000000  0.4343140000000  0.4971180000000 1.0
C      1  0.4260570000000  0.4781030000000  0.4962000000000 1.0
C      1  0.4303690000000  0.5384130000000  0.4973650000000 1.0
C      1  0.4952200000000  0.5790180000000  0.4941370000000 1.0
C      1  0.5045220000000  0.5371820000000  0.5544720000000 1.0
C      1  0.5269030000000  0.5126570000000  0.5539930000000 1.0
C      1  0.5339580000000  0.4794970000000  0.5520470000000 1.0
C      1  0.5117380000000  0.4585100000000  0.5515150000000 1.0
C      1  0.4844290000000  0.4719160000000  0.5532150000000 1.0
C      1  0.4622000000000  0.5038920000000  0.5536620000000 1.0
C      1  0.4739310000000  0.5318770000000  0.5550340000000 1.0
C      1  0.5348430000000  0.5129290000000  0.5109160000000 1.0
C      1  0.5394770000000  0.4826500000000  0.5138340000000 1.0
C      1  0.5168960000000  0.4645900000000  0.5051220000000 1.0
C      1  0.4657720000000  0.4745930000000  0.5071710000000 1.0
C      1  0.4544990000000  0.5094680000000  0.5064350000000 1.0
C      1  0.4787900000000  0.5283690000000  0.5113570000000 1.0
C      1  0.5094580000000  0.5323870000000  0.5157470000000 1.0
C      1  0.4771110000000  0.5345070000000  0.4369600000000 1.0
C      1  0.5064860000000  0.5287340000000  0.4404630000000 1.0
C      1  0.5356290000000  0.5032350000000  0.4383490000000 1.0
C      1  0.5322010000000  0.4735310000000  0.4403110000000 1.0
C      1  0.5056460000000  0.4606110000000  0.4384890000000 1.0
C      1  0.4776540000000  0.4833740000000  0.4400460000000 1.0
C      1  0.4608680000000  0.5093610000000  0.4355270000000 1.0
C      1  0.4612300000000  0.4681810000000  0.4600360000000 1.0
C      1  0.4401840000000  0.5108350000000  0.4571500000000 1.0
C      1  0.4684970000000  0.5509310000000  0.4603280000000 1.0
C      1  0.5172960000000  0.5476490000000  0.4609150000000 1.0
C      1  0.5531020000000  0.5124570000000  0.4605110000000 1.0
C      1  0.5465660000000  0.4642080000000  0.4642590000000 1.0
C      1  0.5024700000000  0.4431630000000  0.4621340000000 1.0
C      1  0.4413100000000  0.5016800000000  0.5320940000000 1.0
C      1  0.4649290000000  0.5467640000000  0.5301620000000 1.0
C      1  0.5139840000000  0.5585250000000  0.5321770000000 1.0
C      1  0.5495780000000  0.5241400000000  0.5337020000000 1.0
C      1  0.5597830000000  0.4715040000000  0.5341740000000 1.0
C      1  0.5135220000000  0.4436970000000  0.5257840000000 1.0
C      1  0.4644710000000  0.4594840000000  0.5334320000000 1.0
C      1  0.5003940000000  0.5007540000000  0.4542290000000 1.0
C      1  0.4986360000000  0.5017350000000  0.4826950000000 1.0
C      1  0.4944550000000  0.4858610000000  0.5062310000000 1.0
C      1  0.4966310000000  0.4979270000000  0.5378280000000 1.0
END
