TITL C-8693-7204-244 7.67339403580187e-06 125000 -354.266577496897 0 0 60 (C1) n - 1
REM
REM in /home/bkarasulu/CARBON/AIRSS/Generating-Clusters/EDIP-Nigel-Params/Higher-Symm/Box-15A/Only-C60/SD-CG/HFTN-CG
REM
REM
REM
REM
REM
REM ./C.cell (414f73aa93bd7a1190c7fd0f31ff2f98)
REM
REM compiler GCC version 9.2.1 20190827 (Red Hat 9.2.1-1)
REM options -cpp -mtune=generic -march=x86-64 -g -O0 -fpre-include=/usr/include/finclude/math-vector-fortran.h
REM seed -915467617 894001526 -943156741 892609412 1853217169 -1524317743 -1420285775 -408366434 -1275000017 387076692 -1687953604 1187707513 659401210 -1624847203 -2099238224 635697354 -564269745 -1324288232 402872867 -1354231845 501489729 -2141965197 -2125220059 1073474395 2011530244 1740301400 1629433668 1812142603 667365273 2058084438 835109221 1293608498 -1119453109
REM
CELL 1.54180   50.00000   50.00000   50.00000   90.00000   90.00000   90.00000
LATT -1
SFAC C  
C      1  0.5264190000000  0.4984880000000  0.5587630000000 1.0
C      1  0.5290810000000  0.4525080000000  0.5470880000000 1.0
C      1  0.5326900000000  0.4343180000000  0.4937910000000 1.0
C      1  0.5380590000000  0.4622140000000  0.4499900000000 1.0
C      1  0.5345370000000  0.5091520000000  0.4377600000000 1.0
C      1  0.5165920000000  0.5529940000000  0.4680350000000 1.0
C      1  0.5293760000000  0.5566490000000  0.5271460000000 1.0
C      1  0.4826680000000  0.4756720000000  0.4692020000000 1.0
C      1  0.4901380000000  0.5057020000000  0.4656330000000 1.0
C      1  0.4878590000000  0.5286860000000  0.4912910000000 1.0
C      1  0.4959450000000  0.5296330000000  0.5217670000000 1.0
C      1  0.4891570000000  0.5029540000000  0.5365390000000 1.0
C      1  0.4797690000000  0.4767580000000  0.5221060000000 1.0
C      1  0.4849120000000  0.4607290000000  0.4962190000000 1.0
C      1  0.5153090000000  0.5245040000000  0.5674450000000 1.0
C      1  0.4930700000000  0.4622650000000  0.5758220000000 1.0
C      1  0.5074000000000  0.4189230000000  0.5174290000000 1.0
C      1  0.5130800000000  0.4334390000000  0.4462940000000 1.0
C      1  0.5118130000000  0.5108960000000  0.4214550000000 1.0
C      1  0.4823020000000  0.5770760000000  0.4450900000000 1.0
C      1  0.5087940000000  0.5744770000000  0.5148950000000 1.0
C      1  0.4606540000000  0.4616100000000  0.5400710000000 1.0
C      1  0.4679390000000  0.4352240000000  0.4962030000000 1.0
C      1  0.4734810000000  0.4618000000000  0.4448290000000 1.0
C      1  0.4711320000000  0.5160860000000  0.4455140000000 1.0
C      1  0.4673470000000  0.5497960000000  0.4824350000000 1.0
C      1  0.4770160000000  0.5507960000000  0.5343520000000 1.0
C      1  0.4722950000000  0.5072880000000  0.5614920000000 1.0
C      1  0.5013870000000  0.5555010000000  0.4419760000000 1.0
C      1  0.5069570000000  0.5751630000000  0.4849320000000 1.0
C      1  0.5235260000000  0.5476850000000  0.5534580000000 1.0
C      1  0.5190430000000  0.4712030000000  0.5679980000000 1.0
C      1  0.5043600000000  0.4421120000000  0.5350020000000 1.0
C      1  0.5107190000000  0.4318300000000  0.4751840000000 1.0
C      1  0.5197100000000  0.4738080000000  0.4296680000000 1.0
C      1  0.5339270000000  0.5059900000000  0.4660930000000 1.0
C      1  0.5310940000000  0.5311760000000  0.4807950000000 1.0
C      1  0.5331920000000  0.5319390000000  0.5104880000000 1.0
C      1  0.5473160000000  0.4949470000000  0.5385610000000 1.0
C      1  0.5464570000000  0.4674880000000  0.5276940000000 1.0
C      1  0.5397170000000  0.4619480000000  0.4989690000000 1.0
C      1  0.5423770000000  0.4782900000000  0.4739260000000 1.0
C      1  0.4789410000000  0.5769720000000  0.4736800000000 1.0
C      1  0.4840650000000  0.5779890000000  0.5290480000000 1.0
C      1  0.4888210000000  0.5239200000000  0.5774590000000 1.0
C      1  0.4821180000000  0.4469510000000  0.5542650000000 1.0
C      1  0.4912830000000  0.4175340000000  0.4923640000000 1.0
C      1  0.4974240000000  0.4531990000000  0.4304110000000 1.0
C      1  0.4907170000000  0.5298490000000  0.4282740000000 1.0
C      1  0.4468860000000  0.4673450000000  0.4940950000000 1.0
C      1  0.4440830000000  0.4769670000000  0.4650450000000 1.0
C      1  0.4396290000000  0.5059050000000  0.4641110000000 1.0
C      1  0.4424930000000  0.5434090000000  0.4986280000000 1.0
C      1  0.4494260000000  0.5406930000000  0.5280270000000 1.0
C      1  0.4507320000000  0.5109720000000  0.5368540000000 1.0
C      1  0.4369440000000  0.4848080000000  0.5199740000000 1.0
C      1  0.4686270000000  0.5052760000000  0.4979850000000 1.0
C      1  0.5559550000000  0.5156010000000  0.5202420000000 1.0
C      1  0.4395400000000  0.5133840000000  0.4929000000000 1.0
C      1  0.5746560000000  0.5082810000000  0.5027000000000 1.0
END
