TITL C-8694-7203-317 -2.46949488200036e-05 125000 -358.304006339222 0 0 60 (C1) n - 1
REM
REM in /home/bkarasulu/CARBON/AIRSS/Generating-Clusters/EDIP-Nigel-Params/Higher-Symm/Box-15A/Only-C60/SD-CG/HFTN-CG
REM
REM
REM
REM
REM
REM ./C.cell (414f73aa93bd7a1190c7fd0f31ff2f98)
REM
REM compiler GCC version 9.2.1 20190827 (Red Hat 9.2.1-1)
REM options -cpp -mtune=generic -march=x86-64 -g -O0 -fpre-include=/usr/include/finclude/math-vector-fortran.h
REM seed -1971616076 1351222448 1134408664 -837270255 123910172 1210226891 -1349977490 -1276791393 -746363025 -1922241813 316842829 -411161401 -1833568377 -2088335864 -198968360 1888756526 1089129169 642053358 59374069 1219797802 -1661227092 -2029589534 1247473921 1989417370 -1105751088 -1437388201 -443582187 -1078155235 1763127073 -843632284 1175086246 1604848651 1447050901
REM
CELL 1.54180   50.00000   50.00000   50.00000   90.00000   90.00000   90.00000
LATT -1
SFAC C  
C      1  0.4829930000000  0.4688140000000  0.5272930000000 1.0
C      1  0.4843560000000  0.4707550000000  0.4799200000000 1.0
C      1  0.5363530000000  0.4936830000000  0.5468610000000 1.0
C      1  0.5371190000000  0.4952040000000  0.4562820000000 1.0
C      1  0.5422940000000  0.5721140000000  0.5166580000000 1.0
C      1  0.5425470000000  0.5724650000000  0.4885630000000 1.0
C      1  0.4428900000000  0.4603010000000  0.4603620000000 1.0
C      1  0.4400870000000  0.4628860000000  0.5468920000000 1.0
C      1  0.5193930000000  0.5420590000000  0.4610530000000 1.0
C      1  0.5188490000000  0.5406500000000  0.5426570000000 1.0
C      1  0.5775270000000  0.5027410000000  0.5267590000000 1.0
C      1  0.5781340000000  0.5038320000000  0.4767270000000 1.0
C      1  0.5164570000000  0.5634000000000  0.5261340000000 1.0
C      1  0.5168520000000  0.5641610000000  0.4783950000000 1.0
C      1  0.5357920000000  0.5208010000000  0.4729550000000 1.0
C      1  0.5352660000000  0.5195590000000  0.5305570000000 1.0
C      1  0.5657990000000  0.4584000000000  0.5262990000000 1.0
C      1  0.5669310000000  0.4593870000000  0.4752080000000 1.0
C      1  0.5203490000000  0.4870470000000  0.5699600000000 1.0
C      1  0.5203080000000  0.4878790000000  0.4341620000000 1.0
C      1  0.4668270000000  0.4551800000000  0.5485140000000 1.0
C      1  0.4699230000000  0.4533450000000  0.4601280000000 1.0
C      1  0.5641590000000  0.5301310000000  0.4766480000000 1.0
C      1  0.5636760000000  0.5290530000000  0.5276860000000 1.0
C      1  0.4552160000000  0.5541300000000  0.5272570000000 1.0
C      1  0.4551320000000  0.5542330000000  0.4767390000000 1.0
C      1  0.4743010000000  0.5419130000000  0.5450420000000 1.0
C      1  0.4743390000000  0.5433190000000  0.4580320000000 1.0
C      1  0.4916530000000  0.4840790000000  0.5716200000000 1.0
C      1  0.4922180000000  0.4821880000000  0.4345680000000 1.0
C      1  0.4701390000000  0.5138940000000  0.5363220000000 1.0
C      1  0.4711650000000  0.5152620000000  0.4659870000000 1.0
C      1  0.4791740000000  0.4589930000000  0.5734910000000 1.0
C      1  0.4825080000000  0.4558090000000  0.4351780000000 1.0
C      1  0.4307810000000  0.4832280000000  0.5303220000000 1.0
C      1  0.4317460000000  0.4812850000000  0.4751400000000 1.0
C      1  0.4335930000000  0.5084620000000  0.4652480000000 1.0
C      1  0.4317940000000  0.5104610000000  0.5398460000000 1.0
C      1  0.4934070000000  0.4941940000000  0.4623160000000 1.0
C      1  0.4925820000000  0.4930660000000  0.5428980000000 1.0
C      1  0.4333270000000  0.5337440000000  0.4805230000000 1.0
C      1  0.4314350000000  0.5356250000000  0.5246660000000 1.0
C      1  0.5644630000000  0.4832780000000  0.4588690000000 1.0
C      1  0.5635190000000  0.4816250000000  0.5435440000000 1.0
C      1  0.5250950000000  0.5103840000000  0.5013060000000 1.0
C      1  0.4994750000000  0.5594150000000  0.5020430000000 1.0
C      1  0.5303330000000  0.4808700000000  0.5001120000000 1.0
C      1  0.4272800000000  0.4758790000000  0.5028720000000 1.0
C      1  0.4979500000000  0.4135370000000  0.4954110000000 1.0
C      1  0.4659650000000  0.4801630000000  0.5031320000000 1.0
C      1  0.4151460000000  0.5378670000000  0.5016750000000 1.0
C      1  0.5079240000000  0.4609420000000  0.4979380000000 1.0
C      1  0.5425450000000  0.4272600000000  0.4994880000000 1.0
C      1  0.5670250000000  0.5463120000000  0.5025490000000 1.0
C      1  0.5159750000000  0.4328450000000  0.4946220000000 1.0
C      1  0.4975850000000  0.5151670000000  0.5009230000000 1.0
C      1  0.4690660000000  0.5627840000000  0.5019840000000 1.0
C      1  0.5631090000000  0.4458810000000  0.5004500000000 1.0
C      1  0.4702850000000  0.5101110000000  0.5048650000000 1.0
C      1  0.5662940000000  0.4934840000000  0.5014230000000 1.0
END
