TITL C-8694-7203-139 -6.78731058858414e-06 125000 -359.896104700623 0 0 60 (C1) n - 1
REM
REM in /home/bkarasulu/CARBON/AIRSS/Generating-Clusters/EDIP-Nigel-Params/Higher-Symm/Box-15A/Only-C60/SD-CG/HFTN-CG
REM
REM
REM
REM
REM
REM ./C.cell (414f73aa93bd7a1190c7fd0f31ff2f98)
REM
REM compiler GCC version 9.2.1 20190827 (Red Hat 9.2.1-1)
REM options -cpp -mtune=generic -march=x86-64 -g -O0 -fpre-include=/usr/include/finclude/math-vector-fortran.h
REM seed -165979112 1181839865 -21018274 -1432832552 -1922341423 34626866 2086174809 -1140697713 -1611165334 1003928962 -1016779767 -98482219 184355609 -1077147610 -1810287153 819587910 452168917 323398240 632765249 -1286981962 532127515 2041943708 1108019518 282597678 701115303 127813841 1236181809 -1930595654 -862243384 -331138278 -1145175071 -1371283339 -539076222
REM
CELL 1.54180   50.00000   50.00000   50.00000   90.00000   90.00000   90.00000
LATT -1
SFAC C  
C      1  0.4545550000000  0.4783960000000  0.4278770000000 1.0
C      1  0.4843520000000  0.4336920000000  0.4674400000000 1.0
C      1  0.4349700000000  0.4502130000000  0.4885330000000 1.0
C      1  0.4233510000000  0.5151470000000  0.5634470000000 1.0
C      1  0.5581220000000  0.4833910000000  0.5640480000000 1.0
C      1  0.5438090000000  0.5255670000000  0.4335430000000 1.0
C      1  0.4924490000000  0.5620430000000  0.5474220000000 1.0
C      1  0.5132240000000  0.4443210000000  0.5525010000000 1.0
C      1  0.5020110000000  0.5636800000000  0.4515640000000 1.0
C      1  0.4335240000000  0.5603480000000  0.5216750000000 1.0
C      1  0.5722840000000  0.4421320000000  0.5027530000000 1.0
C      1  0.5654310000000  0.5568780000000  0.4899250000000 1.0
C      1  0.5531400000000  0.4998190000000  0.4316250000000 1.0
C      1  0.5111860000000  0.4297780000000  0.4694480000000 1.0
C      1  0.5695260000000  0.4436390000000  0.4751110000000 1.0
C      1  0.5551010000000  0.5108660000000  0.5638980000000 1.0
C      1  0.4228630000000  0.4882160000000  0.5610440000000 1.0
C      1  0.4472480000000  0.5040370000000  0.4343340000000 1.0
C      1  0.5182710000000  0.5536150000000  0.5484770000000 1.0
C      1  0.4877520000000  0.4372740000000  0.5465940000000 1.0
C      1  0.4751850000000  0.5621470000000  0.4557780000000 1.0
C      1  0.5749750000000  0.5516730000000  0.5149590000000 1.0
C      1  0.4316930000000  0.4488410000000  0.5156780000000 1.0
C      1  0.4338760000000  0.5601440000000  0.4940260000000 1.0
C      1  0.5203770000000  0.4657250000000  0.5362940000000 1.0
C      1  0.4514030000000  0.5379320000000  0.5284430000000 1.0
C      1  0.5351130000000  0.5271560000000  0.4615040000000 1.0
C      1  0.5145460000000  0.5468610000000  0.4700560000000 1.0
C      1  0.4790050000000  0.4622470000000  0.4679550000000 1.0
C      1  0.4798160000000  0.5478210000000  0.5269080000000 1.0
C      1  0.4525550000000  0.4705480000000  0.4804080000000 1.0
C      1  0.5592020000000  0.5319980000000  0.4782890000000 1.0
C      1  0.5671960000000  0.4670290000000  0.5154240000000 1.0
C      1  0.5476260000000  0.4773040000000  0.5370530000000 1.0
C      1  0.4486970000000  0.5240450000000  0.5551390000000 1.0
C      1  0.4798350000000  0.4729270000000  0.4395060000000 1.0
C      1  0.4789600000000  0.4532700000000  0.5254830000000 1.0
C      1  0.5724920000000  0.5239580000000  0.5199130000000 1.0
C      1  0.4699530000000  0.5156290000000  0.4464430000000 1.0
C      1  0.4705040000000  0.5361720000000  0.4682410000000 1.0
C      1  0.5230540000000  0.4520910000000  0.4810330000000 1.0
C      1  0.5237440000000  0.5328430000000  0.5306740000000 1.0
C      1  0.5488690000000  0.4648910000000  0.4723520000000 1.0
C      1  0.4443220000000  0.5358890000000  0.4838280000000 1.0
C      1  0.4524680000000  0.4666810000000  0.5260780000000 1.0
C      1  0.4483320000000  0.4796180000000  0.5530310000000 1.0
C      1  0.5482500000000  0.5148630000000  0.5354090000000 1.0
C      1  0.5391500000000  0.4829960000000  0.4491170000000 1.0
C      1  0.4680900000000  0.5015050000000  0.5528210000000 1.0
C      1  0.5159710000000  0.4970910000000  0.4635010000000 1.0
C      1  0.4858390000000  0.5009110000000  0.5272200000000 1.0
C      1  0.4975920000000  0.5272060000000  0.5162920000000 1.0
C      1  0.5687270000000  0.5104690000000  0.4944080000000 1.0
C      1  0.4934380000000  0.4985140000000  0.4432960000000 1.0
C      1  0.5037180000000  0.4736790000000  0.4844150000000 1.0
C      1  0.4958670000000  0.5301490000000  0.4853320000000 1.0
C      1  0.4984910000000  0.4742590000000  0.5179760000000 1.0
C      1  0.5569090000000  0.4839630000000  0.4944210000000 1.0
C      1  0.4446110000000  0.5170610000000  0.5061390000000 1.0
C      1  0.4563780000000  0.4888420000000  0.5038990000000 1.0
END
