TITL C-8693-7204-151 0.000153015419718476 125000 -362.535330354674 0 0 60 (C1) n - 1
REM
REM in /home/bkarasulu/CARBON/AIRSS/Generating-Clusters/EDIP-Nigel-Params/Higher-Symm/Box-15A/Only-C60/SD-CG/HFTN-CG
REM
REM
REM
REM
REM
REM ./C.cell (414f73aa93bd7a1190c7fd0f31ff2f98)
REM
REM compiler GCC version 9.2.1 20190827 (Red Hat 9.2.1-1)
REM options -cpp -mtune=generic -march=x86-64 -g -O0 -fpre-include=/usr/include/finclude/math-vector-fortran.h
REM seed 1290265232 -1440283102 1335482879 1266660775 1267477974 -1864130208 1003748862 -3369859 -2060590407 344175215 -165111729 -1020644316 -173032785 -1169450260 -1316661482 61547242 -1952432338 -207924377 -1741423315 -2092062656 483099598 -331340216 -1947072007 -1167396433 -214836078 910574639 -244417430 -71960658 -113780160 -1189880242 395926675 -1626319741 1543378132
REM
CELL 1.54180   50.00000   50.00000   50.00000   90.00000   90.00000   90.00000
LATT -1
SFAC C  
C      1  0.5741670000000  0.4636030000000  0.5172970000000 1.0
C      1  0.5621510000000  0.4539900000000  0.4933750000000 1.0
C      1  0.5688410000000  0.4670650000000  0.4690100000000 1.0
C      1  0.5578820000000  0.4860060000000  0.4508560000000 1.0
C      1  0.5680800000000  0.5124480000000  0.4500330000000 1.0
C      1  0.5625980000000  0.5353710000000  0.4661510000000 1.0
C      1  0.5755860000000  0.5295400000000  0.4930620000000 1.0
C      1  0.5621940000000  0.5398750000000  0.5180150000000 1.0
C      1  0.5732340000000  0.5269260000000  0.5405550000000 1.0
C      1  0.5742700000000  0.5009500000000  0.5479750000000 1.0
C      1  0.5636220000000  0.4761030000000  0.5405470000000 1.0
C      1  0.5333100000000  0.4514620000000  0.4966410000000 1.0
C      1  0.5157960000000  0.4643260000000  0.4662000000000 1.0
C      1  0.5284890000000  0.4855880000000  0.4502840000000 1.0
C      1  0.5158260000000  0.5121130000000  0.4495600000000 1.0
C      1  0.5334870000000  0.5405130000000  0.4666810000000 1.0
C      1  0.5198150000000  0.5467040000000  0.4916130000000 1.0
C      1  0.5330570000000  0.5348640000000  0.5158440000000 1.0
C      1  0.5166860000000  0.5310760000000  0.5410530000000 1.0
C      1  0.5140230000000  0.5029320000000  0.5516480000000 1.0
C      1  0.5344550000000  0.4739480000000  0.5420260000000 1.0
C      1  0.5216720000000  0.4543450000000  0.5237590000000 1.0
C      1  0.4756750000000  0.5384900000000  0.4641620000000 1.0
C      1  0.4903750000000  0.5444960000000  0.4899140000000 1.0
C      1  0.4761730000000  0.5474900000000  0.5152310000000 1.0
C      1  0.4920070000000  0.5442410000000  0.5380170000000 1.0
C      1  0.4871620000000  0.4932200000000  0.5577530000000 1.0
C      1  0.4789660000000  0.4651600000000  0.5489370000000 1.0
C      1  0.4924330000000  0.4547240000000  0.5243480000000 1.0
C      1  0.4751740000000  0.4520590000000  0.4916990000000 1.0
C      1  0.4866390000000  0.4640470000000  0.4673050000000 1.0
C      1  0.4723430000000  0.4885320000000  0.4582960000000 1.0
C      1  0.4865390000000  0.5137060000000  0.4493610000000 1.0
C      1  0.4496850000000  0.4711920000000  0.5428100000000 1.0
C      1  0.4395010000000  0.4545240000000  0.5225530000000 1.0
C      1  0.4463900000000  0.4535930000000  0.4954940000000 1.0
C      1  0.4305030000000  0.4701880000000  0.4774660000000 1.0
C      1  0.4434120000000  0.4869190000000  0.4576030000000 1.0
C      1  0.4294180000000  0.5107830000000  0.4483790000000 1.0
C      1  0.4462300000000  0.5382560000000  0.4668930000000 1.0
C      1  0.4329030000000  0.5390850000000  0.4927840000000 1.0
C      1  0.4479910000000  0.5408230000000  0.5176080000000 1.0
C      1  0.4410900000000  0.5256150000000  0.5408200000000 1.0
C      1  0.4586030000000  0.5019940000000  0.5362970000000 1.0
C      1  0.3873320000000  0.4553310000000  0.4955340000000 1.0
C      1  0.4020080000000  0.4678630000000  0.4759340000000 1.0
C      1  0.3901230000000  0.4860050000000  0.4587210000000 1.0
C      1  0.4003430000000  0.5111510000000  0.4518510000000 1.0
C      1  0.3920620000000  0.5320390000000  0.4685940000000 1.0
C      1  0.4041920000000  0.5386150000000  0.4927250000000 1.0
C      1  0.3898330000000  0.5380680000000  0.5161740000000 1.0
C      1  0.3756460000000  0.5249250000000  0.5343630000000 1.0
C      1  0.3661450000000  0.5014100000000  0.5421000000000 1.0
C      1  0.3651450000000  0.4756240000000  0.5359280000000 1.0
C      1  0.3733150000000  0.4578950000000  0.5179600000000 1.0
C      1  0.5449480000000  0.4936860000000  0.5040520000000 1.0
C      1  0.5709200000000  0.5015430000000  0.4962350000000 1.0
C      1  0.4715350000000  0.5034660000000  0.5107580000000 1.0
C      1  0.5204540000000  0.4999010000000  0.4918980000000 1.0
C      1  0.4958520000000  0.4934480000000  0.5029320000000 1.0
END
