TITL C-8699-7882-326 5.04101725158757e-05 125000 -368.054658890927 0 0 60 (C1) n - 1
REM
REM in /home/bkarasulu/CARBON/AIRSS/Generating-Clusters/EDIP-Nigel-Params/Higher-Symm/Box-15A/Only-C60/SD-CG/HFTN-CG
REM
REM
REM
REM
REM
REM ./C.cell (414f73aa93bd7a1190c7fd0f31ff2f98)
REM
REM compiler GCC version 9.2.1 20190827 (Red Hat 9.2.1-1)
REM options -cpp -mtune=generic -march=x86-64 -g -O0 -fpre-include=/usr/include/finclude/math-vector-fortran.h
REM seed 2133208983 747585098 -763349249 -1646293911 -217628911 220782799 221869351 1828943220 896166285 -2095269484 -1944784279 -1388711732 -1008633540 -2135758298 -1490226659 -772404161 1328176715 276553664 1217570798 1242888883 1269660106 1858150275 -1085694629 795311248 -109296284 1150472240 809351990 -1052360854 942434912 930415934 1193801768 -707710629 -706346592
REM
CELL 1.54180   50.00000   50.00000   50.00000   90.00000   90.00000   90.00000
LATT -1
SFAC C  
C      1  0.4490250000000  0.4827490000000  0.4568230000000 1.0
C      1  0.4701240000000  0.5410370000000  0.4599710000000 1.0
C      1  0.5302900000000  0.5447580000000  0.4557460000000 1.0
C      1  0.5470440000000  0.4855540000000  0.4574310000000 1.0
C      1  0.5001600000000  0.4469200000000  0.4544270000000 1.0
C      1  0.5676630000000  0.4882430000000  0.5418550000000 1.0
C      1  0.5109580000000  0.4328530000000  0.5392380000000 1.0
C      1  0.4401980000000  0.4693630000000  0.5439400000000 1.0
C      1  0.4522930000000  0.5493650000000  0.5442010000000 1.0
C      1  0.5315280000000  0.5607350000000  0.5408250000000 1.0
C      1  0.4891190000000  0.4358240000000  0.5000810000000 1.0
C      1  0.4316380000000  0.4902780000000  0.5027580000000 1.0
C      1  0.4699400000000  0.5632690000000  0.5024260000000 1.0
C      1  0.5444400000000  0.5445740000000  0.5014710000000 1.0
C      1  0.5601890000000  0.4679700000000  0.5002190000000 1.0
C      1  0.4432590000000  0.4467540000000  0.5228280000000 1.0
C      1  0.4324840000000  0.5374030000000  0.5234190000000 1.0
C      1  0.5142090000000  0.5775580000000  0.5208970000000 1.0
C      1  0.5772900000000  0.5092100000000  0.5211090000000 1.0
C      1  0.5340900000000  0.4293240000000  0.5187660000000 1.0
C      1  0.4917800000000  0.4752110000000  0.4803670000000 1.0
C      1  0.4759230000000  0.5027150000000  0.4817940000000 1.0
C      1  0.4960670000000  0.5244850000000  0.4939210000000 1.0
C      1  0.5214500000000  0.5128310000000  0.4815300000000 1.0
C      1  0.5192630000000  0.4819880000000  0.4916290000000 1.0
C      1  0.5137440000000  0.4804080000000  0.5229310000000 1.0
C      1  0.4852200000000  0.4822970000000  0.5301710000000 1.0
C      1  0.4792860000000  0.5085850000000  0.5372950000000 1.0
C      1  0.5003060000000  0.5244400000000  0.5259340000000 1.0
C      1  0.5229860000000  0.5065000000000  0.5303660000000 1.0
C      1  0.4544610000000  0.5176150000000  0.5484040000000 1.0
C      1  0.5023860000000  0.5482970000000  0.5434240000000 1.0
C      1  0.5469030000000  0.5126780000000  0.5450430000000 1.0
C      1  0.5267950000000  0.4604820000000  0.5408520000000 1.0
C      1  0.4715470000000  0.4619770000000  0.5447460000000 1.0
C      1  0.4442090000000  0.5488280000000  0.4988170000000 1.0
C      1  0.5287790000000  0.5685940000000  0.4970900000000 1.0
C      1  0.5731190000000  0.4938360000000  0.4963950000000 1.0
C      1  0.5166440000000  0.4283460000000  0.4952360000000 1.0
C      1  0.4373670000000  0.4620710000000  0.4986110000000 1.0
C      1  0.5634990000000  0.5061410000000  0.4715710000000 1.0
C      1  0.5254570000000  0.4392180000000  0.4696220000000 1.0
C      1  0.4514240000000  0.4579790000000  0.4734750000000 1.0
C      1  0.4449930000000  0.5331470000000  0.4740070000000 1.0
C      1  0.5137000000000  0.5645210000000  0.4721870000000 1.0
C      1  0.5562110000000  0.4607260000000  0.5293990000000 1.0
C      1  0.4804480000000  0.4351110000000  0.5290740000000 1.0
C      1  0.4323190000000  0.4988510000000  0.5323260000000 1.0
C      1  0.4777100000000  0.5650880000000  0.5319690000000 1.0
C      1  0.5541590000000  0.5403210000000  0.5297490000000 1.0
C      1  0.5000050000000  0.4745970000000  0.4399890000000 1.0
C      1  0.4752740000000  0.4924380000000  0.4436850000000 1.0
C      1  0.4834230000000  0.5213630000000  0.4427400000000 1.0
C      1  0.5134070000000  0.5212500000000  0.4443190000000 1.0
C      1  0.5233790000000  0.4931430000000  0.4422040000000 1.0
C      1  0.5462670000000  0.4607740000000  0.4743360000000 1.0
C      1  0.4756500000000  0.4399180000000  0.4735990000000 1.0
C      1  0.4374420000000  0.5036810000000  0.4764320000000 1.0
C      1  0.4881780000000  0.5510090000000  0.4817350000000 1.0
C      1  0.5528770000000  0.5347980000000  0.4745950000000 1.0
END
