TITL C-8697-8172-119 -0.000229340099941501 125000 -352.382123529501 0 0 60 (C1) n - 1
REM
REM in /home/bkarasulu/CARBON/AIRSS/Generating-Clusters/EDIP-Nigel-Params/Higher-Symm/Box-15A/Only-C60/SD-CG/HFTN-CG
REM
REM
REM
REM
REM
REM ./C.cell (414f73aa93bd7a1190c7fd0f31ff2f98)
REM
REM compiler GCC version 9.2.1 20190827 (Red Hat 9.2.1-1)
REM options -cpp -mtune=generic -march=x86-64 -g -O0 -fpre-include=/usr/include/finclude/math-vector-fortran.h
REM seed -744423836 1998402830 -920740954 -61549356 494845756 1583533249 1156881646 157150456 185703011 352493282 -1184814329 1074821231 1671567154 -1813519449 7706835 -112026052 -2100709492 1717838687 -1527411668 -1968838194 -1588719318 -1885005664 2127144268 -1141020172 1597171633 1416583346 -843167786 817888863 469816424 -1736953751 847583620 -1779140421 -1857876616
REM
CELL 1.54180   50.00000   50.00000   50.00000   90.00000   90.00000   90.00000
LATT -1
SFAC C  
C      1  0.5377060000000  0.5686520000000  0.4815110000000 1.0
C      1  0.4682980000000  0.5741470000000  0.5093310000000 1.0
C      1  0.4692480000000  0.5681970000000  0.4812340000000 1.0
C      1  0.5316520000000  0.5749410000000  0.5093620000000 1.0
C      1  0.4441060000000  0.4850810000000  0.5399430000000 1.0
C      1  0.5724350000000  0.4792390000000  0.4776260000000 1.0
C      1  0.5528270000000  0.4876010000000  0.5361220000000 1.0
C      1  0.4345970000000  0.4846580000000  0.4607880000000 1.0
C      1  0.4776710000000  0.4296140000000  0.4468620000000 1.0
C      1  0.5300940000000  0.4152750000000  0.5331560000000 1.0
C      1  0.5268980000000  0.4370120000000  0.4359700000000 1.0
C      1  0.4841190000000  0.4268550000000  0.5436150000000 1.0
C      1  0.5440490000000  0.5168620000000  0.4875790000000 1.0
C      1  0.4552750000000  0.5223940000000  0.5169890000000 1.0
C      1  0.4549340000000  0.5191090000000  0.4856250000000 1.0
C      1  0.5417710000000  0.5255320000000  0.5180640000000 1.0
C      1  0.5541040000000  0.4579930000000  0.4728980000000 1.0
C      1  0.4520200000000  0.4593570000000  0.5243310000000 1.0
C      1  0.4464710000000  0.4593590000000  0.4734310000000 1.0
C      1  0.5475760000000  0.4613630000000  0.5227350000000 1.0
C      1  0.4771910000000  0.5545370000000  0.5515200000000 1.0
C      1  0.5216410000000  0.5393180000000  0.4468510000000 1.0
C      1  0.5213450000000  0.5566270000000  0.5522430000000 1.0
C      1  0.4779140000000  0.5399260000000  0.4456210000000 1.0
C      1  0.5182710000000  0.4790240000000  0.4570210000000 1.0
C      1  0.4758860000000  0.4967210000000  0.5586960000000 1.0
C      1  0.4710440000000  0.4863790000000  0.4486270000000 1.0
C      1  0.5253620000000  0.4980920000000  0.5623580000000 1.0
C      1  0.4725060000000  0.4948140000000  0.4788830000000 1.0
C      1  0.5277700000000  0.5041540000000  0.5344390000000 1.0
C      1  0.5243430000000  0.4914620000000  0.4835170000000 1.0
C      1  0.4754000000000  0.5049570000000  0.5309800000000 1.0
C      1  0.5732280000000  0.5038320000000  0.5198260000000 1.0
C      1  0.4283910000000  0.5056860000000  0.4817610000000 1.0
C      1  0.4300440000000  0.5050990000000  0.5197310000000 1.0
C      1  0.5713770000000  0.5045080000000  0.4902840000000 1.0
C      1  0.4726540000000  0.4390710000000  0.5217610000000 1.0
C      1  0.5380230000000  0.4598690000000  0.4475800000000 1.0
C      1  0.5398570000000  0.4400780000000  0.5405490000000 1.0
C      1  0.4682910000000  0.4397810000000  0.4709640000000 1.0
C      1  0.4585340000000  0.5524100000000  0.5277410000000 1.0
C      1  0.5396960000000  0.5423990000000  0.4698370000000 1.0
C      1  0.5402060000000  0.5547690000000  0.5290330000000 1.0
C      1  0.4595400000000  0.5445200000000  0.4683640000000 1.0
C      1  0.5349160000000  0.4637420000000  0.4957330000000 1.0
C      1  0.4491170000000  0.4713660000000  0.4989500000000 1.0
C      1  0.5093320000000  0.4191370000000  0.5512050000000 1.0
C      1  0.5017920000000  0.4274390000000  0.4352600000000 1.0
C      1  0.4978710000000  0.5784580000000  0.5473460000000 1.0
C      1  0.5003210000000  0.5603310000000  0.4409650000000 1.0
C      1  0.4996700000000  0.5108060000000  0.5680300000000 1.0
C      1  0.4983780000000  0.4932370000000  0.4410720000000 1.0
C      1  0.4996480000000  0.5193390000000  0.4538570000000 1.0
C      1  0.5003390000000  0.5347860000000  0.5514640000000 1.0
C      1  0.4964710000000  0.4092980000000  0.4935160000000 1.0
C      1  0.4781510000000  0.4282200000000  0.4955300000000 1.0
C      1  0.4985220000000  0.5006850000000  0.4939310000000 1.0
C      1  0.4950380000000  0.5838010000000  0.5184660000000 1.0
C      1  0.5005650000000  0.5273620000000  0.5029250000000 1.0
C      1  0.5034040000000  0.5544050000000  0.4923110000000 1.0
END
