TITL C-8693-7204-359 -7.25390739419679e-07 125000 -369.821491946909 0 0 60 (C1) n - 1
REM
REM in /home/bkarasulu/CARBON/AIRSS/Generating-Clusters/EDIP-Nigel-Params/Higher-Symm/Box-15A/Only-C60/SD-CG/HFTN-CG
REM
REM
REM
REM
REM
REM ./C.cell (414f73aa93bd7a1190c7fd0f31ff2f98)
REM
REM compiler GCC version 9.2.1 20190827 (Red Hat 9.2.1-1)
REM options -cpp -mtune=generic -march=x86-64 -g -O0 -fpre-include=/usr/include/finclude/math-vector-fortran.h
REM seed -803148040 884350831 2132952274 -1115004775 1662541428 1401918211 -1732955718 767068713 -405180371 81840320 1090841484 -1044363233 1819757541 2019313043 1829706237 584122737 587994425 303099425 1083970419 -1026016339 -1374773383 1327271497 2057471544 -203053658 -1752914296 -1593934896 1287421155 -1851023125 2922110 -940734035 -1063106125 -1062275414 -429840818
REM
CELL 1.54180   50.00000   50.00000   50.00000   90.00000   90.00000   90.00000
LATT -1
SFAC C  
C      1  0.5321000000000  0.5169350000000  0.5120010000000 1.0
C      1  0.4692900000000  0.4781610000000  0.5166870000000 1.0
C      1  0.5311710000000  0.5221490000000  0.4840380000000 1.0
C      1  0.4678490000000  0.4853990000000  0.4890680000000 1.0
C      1  0.5335140000000  0.4789360000000  0.4289630000000 1.0
C      1  0.4756360000000  0.5258660000000  0.4294110000000 1.0
C      1  0.5241720000000  0.4734060000000  0.5708700000000 1.0
C      1  0.4679680000000  0.5214340000000  0.5709850000000 1.0
C      1  0.5016610000000  0.4397550000000  0.4749230000000 1.0
C      1  0.4978610000000  0.5642480000000  0.4757730000000 1.0
C      1  0.5011060000000  0.4364340000000  0.5244050000000 1.0
C      1  0.4970570000000  0.5615520000000  0.5241840000000 1.0
C      1  0.5419080000000  0.5173770000000  0.5549860000000 1.0
C      1  0.4507960000000  0.4761690000000  0.5566830000000 1.0
C      1  0.5487490000000  0.5245260000000  0.4436770000000 1.0
C      1  0.4597330000000  0.4818870000000  0.4457350000000 1.0
C      1  0.5028510000000  0.5167830000000  0.4383130000000 1.0
C      1  0.5064330000000  0.4898040000000  0.4252960000000 1.0
C      1  0.4948580000000  0.5099630000000  0.5727060000000 1.0
C      1  0.4969490000000  0.4823850000000  0.5616520000000 1.0
C      1  0.4554600000000  0.5103930000000  0.4424170000000 1.0
C      1  0.5483590000000  0.4952970000000  0.4469750000000 1.0
C      1  0.4517200000000  0.5054260000000  0.5538060000000 1.0
C      1  0.5448690000000  0.4887190000000  0.5581460000000 1.0
C      1  0.4706110000000  0.5473920000000  0.5571060000000 1.0
C      1  0.5262520000000  0.4470080000000  0.5592780000000 1.0
C      1  0.4731100000000  0.5521740000000  0.4410940000000 1.0
C      1  0.5310670000000  0.4530810000000  0.4426860000000 1.0
C      1  0.5503410000000  0.4384630000000  0.4848500000000 1.0
C      1  0.4487230000000  0.5631820000000  0.4841040000000 1.0
C      1  0.5501310000000  0.4357300000000  0.5160000000000 1.0
C      1  0.4483460000000  0.5610840000000  0.5153610000000 1.0
C      1  0.4502880000000  0.4722960000000  0.4707960000000 1.0
C      1  0.5524580000000  0.5343990000000  0.4699280000000 1.0
C      1  0.4472430000000  0.4666820000000  0.5303170000000 1.0
C      1  0.5525300000000  0.5248890000000  0.5297010000000 1.0
C      1  0.5018560000000  0.4453330000000  0.4452970000000 1.0
C      1  0.5006090000000  0.5622080000000  0.4462210000000 1.0
C      1  0.4985080000000  0.4376680000000  0.5539210000000 1.0
C      1  0.4998850000000  0.5543830000000  0.5530650000000 1.0
C      1  0.4744880000000  0.5811340000000  0.4858810000000 1.0
C      1  0.5239530000000  0.4210950000000  0.4836150000000 1.0
C      1  0.4740040000000  0.5793610000000  0.5164670000000 1.0
C      1  0.5235660000000  0.4188630000000  0.5140400000000 1.0
C      1  0.4598780000000  0.5393260000000  0.4680250000000 1.0
C      1  0.5407060000000  0.4648950000000  0.4703390000000 1.0
C      1  0.4592080000000  0.5355380000000  0.5300270000000 1.0
C      1  0.5402310000000  0.4598420000000  0.5324830000000 1.0
C      1  0.5061010000000  0.5143100000000  0.5258690000000 1.0
C      1  0.4958190000000  0.4849760000000  0.5301900000000 1.0
C      1  0.5047550000000  0.5157090000000  0.4706140000000 1.0
C      1  0.4954100000000  0.4889760000000  0.4794640000000 1.0
C      1  0.5120770000000  0.5257820000000  0.5541450000000 1.0
C      1  0.4751430000000  0.4633550000000  0.5683640000000 1.0
C      1  0.5240300000000  0.5366240000000  0.4319340000000 1.0
C      1  0.4867450000000  0.4705560000000  0.4361110000000 1.0
C      1  0.5136050000000  0.4635350000000  0.5174410000000 1.0
C      1  0.4862710000000  0.5345090000000  0.5141910000000 1.0
C      1  0.5133210000000  0.4659660000000  0.4863840000000 1.0
C      1  0.4866600000000  0.5366740000000  0.4829940000000 1.0
END
