TITL C-8698-8182-26 -8.02121341878787e-06 125000 -364.12499376884 0 0 60 (C3) n - 1
REM
REM in /home/bkarasulu/CARBON/AIRSS/Generating-Clusters/EDIP-Nigel-Params/Higher-Symm/Box-15A/Only-C60/SD-CG/HFTN-CG
REM
REM
REM
REM
REM
REM ./C.cell (414f73aa93bd7a1190c7fd0f31ff2f98)
REM
REM compiler GCC version 9.2.1 20190827 (Red Hat 9.2.1-1)
REM options -cpp -mtune=generic -march=x86-64 -g -O0 -fpre-include=/usr/include/finclude/math-vector-fortran.h
REM seed -898812988 -1988608947 1183253664 -589133060 984127452 577866658 337548907 -89167061 1494318389 -978914101 584395519 1688738051 -787009726 -667396090 -1217015590 -560110494 -1225957061 1004368965 -73696996 -1832017363 39942643 -954817648 197679331 1023411883 -1816337428 557732094 -660715074 1641936605 -92306785 -1295196740 1035280221 250420781 -1440514282
REM
CELL 1.54180   50.00000   50.00000   50.00000   90.00000   90.00000   90.00000
LATT -1
SFAC C  
C      1  0.5226100000000  0.4925870000000  0.4368770000000 1.0
C      1  0.5221660000000  0.5585080000000  0.5252230000000 1.0
C      1  0.5223360000000  0.4490370000000  0.5381390000000 1.0
C      1  0.4771800000000  0.4738030000000  0.4331700000000 1.0
C      1  0.4767150000000  0.5708360000000  0.5106440000000 1.0
C      1  0.4767810000000  0.4552250000000  0.5559400000000 1.0
C      1  0.5280220000000  0.5171320000000  0.4889680000000 1.0
C      1  0.5279410000000  0.5011570000000  0.5204550000000 1.0
C      1  0.5280840000000  0.4818760000000  0.4908760000000 1.0
C      1  0.4789600000000  0.4987300000000  0.5394260000000 1.0
C      1  0.4792380000000  0.4663650000000  0.4791120000000 1.0
C      1  0.4790960000000  0.5347820000000  0.4812390000000 1.0
C      1  0.5178050000000  0.4375730000000  0.4693880000000 1.0
C      1  0.5175980000000  0.5578300000000  0.4613070000000 1.0
C      1  0.5173180000000  0.5047000000000  0.5694920000000 1.0
C      1  0.4647470000000  0.4833440000000  0.5169290000000 1.0
C      1  0.4648690000000  0.4934550000000  0.4769840000000 1.0
C      1  0.4647090000000  0.5229930000000  0.5057120000000 1.0
C      1  0.4203550000000  0.5277120000000  0.5276080000000 1.0
C      1  0.4205470000000  0.4617560000000  0.5099070000000 1.0
C      1  0.4206240000000  0.5100640000000  0.4616380000000 1.0
C      1  0.5019420000000  0.5407470000000  0.5372610000000 1.0
C      1  0.5021980000000  0.4473700000000  0.5166650000000 1.0
C      1  0.5023220000000  0.5118960000000  0.4460970000000 1.0
C      1  0.4954800000000  0.4907870000000  0.5826010000000 1.0
C      1  0.4960620000000  0.4330460000000  0.4507060000000 1.0
C      1  0.4957240000000  0.5761410000000  0.4666480000000 1.0
C      1  0.5497630000000  0.4565720000000  0.5308570000000 1.0
C      1  0.5499850000000  0.4952910000000  0.4471430000000 1.0
C      1  0.5496130000000  0.5484300000000  0.5225310000000 1.0
C      1  0.4356990000000  0.4798930000000  0.5248000000000 1.0
C      1  0.4358770000000  0.4881900000000  0.4699540000000 1.0
C      1  0.4356690000000  0.5315390000000  0.5045620000000 1.0
C      1  0.4759210000000  0.4992190000000  0.4475180000000 1.0
C      1  0.4755530000000  0.5456950000000  0.5254760000000 1.0
C      1  0.4757260000000  0.4549430000000  0.5267470000000 1.0
C      1  0.5135780000000  0.5753560000000  0.5015200000000 1.0
C      1  0.5135790000000  0.4610880000000  0.5645490000000 1.0
C      1  0.5140370000000  0.4636370000000  0.4340770000000 1.0
C      1  0.5557920000000  0.5239960000000  0.4804630000000 1.0
C      1  0.5556500000000  0.5052570000000  0.5307520000000 1.0
C      1  0.5558640000000  0.4710750000000  0.4893790000000 1.0
C      1  0.5067560000000  0.5114580000000  0.5414410000000 1.0
C      1  0.5070460000000  0.4584230000000  0.4892280000000 1.0
C      1  0.5069760000000  0.5301590000000  0.4694050000000 1.0
C      1  0.5577730000000  0.4690640000000  0.4600060000000 1.0
C      1  0.5574940000000  0.5504510000000  0.4934140000000 1.0
C      1  0.5574400000000  0.4808250000000  0.5471930000000 1.0
C      1  0.5374240000000  0.4488680000000  0.4494560000000 1.0
C      1  0.5370750000000  0.5695620000000  0.4811250000000 1.0
C      1  0.5369320000000  0.4817890000000  0.5698150000000 1.0
C      1  0.5618980000000  0.5305020000000  0.5410160000000 1.0
C      1  0.5621800000000  0.4496020000000  0.5061330000000 1.0
C      1  0.5622280000000  0.5202620000000  0.4535130000000 1.0
C      1  0.4229230000000  0.4681110000000  0.4839720000000 1.0
C      1  0.4228170000000  0.5293610000000  0.4801180000000 1.0
C      1  0.4226750000000  0.5020730000000  0.5350880000000 1.0
C      1  0.4758020000000  0.4530230000000  0.4531110000000 1.0
C      1  0.4754790000000  0.5639490000000  0.4826730000000 1.0
C      1  0.4753500000000  0.4828840000000  0.5639560000000 1.0
END
