TITL C-8699-7882-51 0.000108518537566446 125000 -366.690194602731 0 0 60 (C1) n - 1
REM
REM in /home/bkarasulu/CARBON/AIRSS/Generating-Clusters/EDIP-Nigel-Params/Higher-Symm/Box-15A/Only-C60/SD-CG/HFTN-CG
REM
REM
REM
REM
REM
REM ./C.cell (414f73aa93bd7a1190c7fd0f31ff2f98)
REM
REM compiler GCC version 9.2.1 20190827 (Red Hat 9.2.1-1)
REM options -cpp -mtune=generic -march=x86-64 -g -O0 -fpre-include=/usr/include/finclude/math-vector-fortran.h
REM seed -598316804 -1891046096 -244641466 1820725252 164819698 1853707063 1281137020 171520680 -958983651 -1703827162 401438658 603536508 -199248759 262924973 1499924744 -2107740012 959600615 -987750184 1241947086 1267427879 1998009219 -420352921 -1334048611 -176630475 1621323845 141943226 -2101661630 -63815383 -1236038139 -1340648320 -1131823287 1113588235 -1644904265
REM
CELL 1.54180   50.00000   50.00000   50.00000   90.00000   90.00000   90.00000
LATT -1
SFAC C  
C      1  0.4264490000000  0.5295720000000  0.4944760000000 1.0
C      1  0.5714700000000  0.4709010000000  0.5033670000000 1.0
C      1  0.5590410000000  0.4569850000000  0.4821490000000 1.0
C      1  0.4424920000000  0.5441460000000  0.5125170000000 1.0
C      1  0.4310730000000  0.5022300000000  0.5023290000000 1.0
C      1  0.5662280000000  0.4982090000000  0.4966470000000 1.0
C      1  0.5408070000000  0.4666410000000  0.4624430000000 1.0
C      1  0.4602680000000  0.5346250000000  0.5327850000000 1.0
C      1  0.4743910000000  0.5412890000000  0.4446530000000 1.0
C      1  0.5208770000000  0.4477900000000  0.5686270000000 1.0
C      1  0.4931620000000  0.5409240000000  0.4902670000000 1.0
C      1  0.5194260000000  0.4485960000000  0.5136400000000 1.0
C      1  0.4321050000000  0.4940990000000  0.5302630000000 1.0
C      1  0.5681840000000  0.5077200000000  0.4691990000000 1.0
C      1  0.5177340000000  0.5226850000000  0.4948840000000 1.0
C      1  0.4853920000000  0.4739510000000  0.5038290000000 1.0
C      1  0.4814390000000  0.4929330000000  0.4799370000000 1.0
C      1  0.5182100000000  0.5044890000000  0.5205470000000 1.0
C      1  0.5059600000000  0.4383970000000  0.4892840000000 1.0
C      1  0.4960030000000  0.5633750000000  0.5105690000000 1.0
C      1  0.5541840000000  0.5269120000000  0.5332800000000 1.0
C      1  0.4450230000000  0.4718410000000  0.4666600000000 1.0
C      1  0.5441520000000  0.5052190000000  0.5526610000000 1.0
C      1  0.4550650000000  0.4947490000000  0.4497120000000 1.0
C      1  0.4758030000000  0.4384120000000  0.4912680000000 1.0
C      1  0.5271260000000  0.5635200000000  0.5081140000000 1.0
C      1  0.5404810000000  0.5494570000000  0.4787580000000 1.0
C      1  0.4603070000000  0.4524210000000  0.5237410000000 1.0
C      1  0.4652620000000  0.4499310000000  0.4658280000000 1.0
C      1  0.5350740000000  0.5495290000000  0.5328450000000 1.0
C      1  0.5671680000000  0.5372050000000  0.4762130000000 1.0
C      1  0.4340750000000  0.4646910000000  0.5254010000000 1.0
C      1  0.4291670000000  0.5350050000000  0.4668450000000 1.0
C      1  0.5621880000000  0.4651720000000  0.5290650000000 1.0
C      1  0.4956330000000  0.5515680000000  0.4622520000000 1.0
C      1  0.5066970000000  0.4505640000000  0.5429410000000 1.0
C      1  0.5227120000000  0.5420240000000  0.4550860000000 1.0
C      1  0.4781590000000  0.4608820000000  0.5452650000000 1.0
C      1  0.5115850000000  0.4993320000000  0.4766180000000 1.0
C      1  0.4887360000000  0.4989850000000  0.5212450000000 1.0
C      1  0.4993070000000  0.4959410000000  0.5705720000000 1.0
C      1  0.5002580000000  0.5056960000000  0.4284240000000 1.0
C      1  0.5186180000000  0.5165400000000  0.5632830000000 1.0
C      1  0.4806060000000  0.4851300000000  0.4365980000000 1.0
C      1  0.5137250000000  0.4725580000000  0.5779140000000 1.0
C      1  0.4858030000000  0.5290280000000  0.4218500000000 1.0
C      1  0.5723400000000  0.5221820000000  0.5111020000000 1.0
C      1  0.4275540000000  0.4765650000000  0.4895220000000 1.0
C      1  0.4558110000000  0.5240650000000  0.4616640000000 1.0
C      1  0.5387630000000  0.4763050000000  0.5417400000000 1.0
C      1  0.4696500000000  0.5212020000000  0.4920150000000 1.0
C      1  0.5281700000000  0.4766420000000  0.5033340000000 1.0
C      1  0.4861190000000  0.5499970000000  0.5357510000000 1.0
C      1  0.5130360000000  0.4565370000000  0.4667800000000 1.0
C      1  0.5471240000000  0.4945990000000  0.4510380000000 1.0
C      1  0.4537540000000  0.5081670000000  0.5463550000000 1.0
C      1  0.5114140000000  0.5395660000000  0.5466030000000 1.0
C      1  0.4887220000000  0.4602450000000  0.4505890000000 1.0
C      1  0.4789400000000  0.4906260000000  0.5487440000000 1.0
C      1  0.5209760000000  0.5114340000000  0.4499090000000 1.0
END
