TITL C-8696-5006-17 1.01345364490254 125000 -358.258107230161 0 0 60 (C1) n - 1
REM
REM in /home/bkarasulu/CARBON/AIRSS/Generating-Clusters/EDIP-Nigel-Params/Higher-Symm/Box-15A/Only-C60/SD-CG/HFTN-CG
REM
REM
REM
REM
REM
REM ./C.cell (414f73aa93bd7a1190c7fd0f31ff2f98)
REM
REM compiler GCC version 9.2.1 20190827 (Red Hat 9.2.1-1)
REM options -cpp -mtune=generic -march=x86-64 -g -O0 -fpre-include=/usr/include/finclude/math-vector-fortran.h
REM seed 1841982 -1725215606 637591147 1660417036 1467988311 1734757904 945532516 -293392552 -150496341 -1358633411 -1557555816 -2071563240 1886189839 -1978551087 -2012886382 -63960336 594861795 304024979 1643409395 136370271 -52398767 -1377190513 -1855019127 -256366438 2100884327 -1535705711 496616401 -678646515 269655308 -1352613503 -1557041192 1055529250 -2143372774
REM
CELL 1.54180   50.00000   50.00000   50.00000   90.00000   90.00000   90.00000
LATT -1
SFAC C  
C      1  0.4451460000000  0.4711960000000  0.4703010000000 1.0
C      1  0.5680320000000  0.4942230000000  0.5313730000000 1.0
C      1  0.5467700000000  0.4956860000000  0.5518140000000 1.0
C      1  0.4625350000000  0.4765150000000  0.4478510000000 1.0
C      1  0.5775980000000  0.5236600000000  0.4921780000000 1.0
C      1  0.4353760000000  0.4979370000000  0.5115900000000 1.0
C      1  0.4935200000000  0.5170340000000  0.4409640000000 1.0
C      1  0.5065920000000  0.5256140000000  0.5583370000000 1.0
C      1  0.4635030000000  0.5363350000000  0.4862570000000 1.0
C      1  0.5337840000000  0.5548850000000  0.5063490000000 1.0
C      1  0.4634740000000  0.4807510000000  0.5327200000000 1.0
C      1  0.5458480000000  0.4868230000000  0.4673370000000 1.0
C      1  0.4614370000000  0.5137430000000  0.5417620000000 1.0
C      1  0.5400910000000  0.5164610000000  0.4613700000000 1.0
C      1  0.4666850000000  0.5059640000000  0.4466320000000 1.0
C      1  0.5344740000000  0.5223820000000  0.5507180000000 1.0
C      1  0.4462600000000  0.5479810000000  0.5080620000000 1.0
C      1  0.5461120000000  0.5576860000000  0.4795130000000 1.0
C      1  0.5151010000000  0.4434410000000  0.4730870000000 1.0
C      1  0.5042830000000  0.4457640000000  0.5341090000000 1.0
C      1  0.4976330000000  0.5060130000000  0.5761600000000 1.0
C      1  0.5074380000000  0.4985900000000  0.4250720000000 1.0
C      1  0.5257580000000  0.4667270000000  0.4572750000000 1.0
C      1  0.4865450000000  0.4661000000000  0.5478270000000 1.0
C      1  0.4885910000000  0.5294870000000  0.5349470000000 1.0
C      1  0.5088580000000  0.5273090000000  0.4652120000000 1.0
C      1  0.4492180000000  0.5190030000000  0.4670130000000 1.0
C      1  0.5455440000000  0.5351540000000  0.5260930000000 1.0
C      1  0.5306660000000  0.5117310000000  0.4985160000000 1.0
C      1  0.4731190000000  0.5128660000000  0.5035100000000 1.0
C      1  0.5311680000000  0.4471650000000  0.5480770000000 1.0
C      1  0.4899740000000  0.4335530000000  0.4587670000000 1.0
C      1  0.5620380000000  0.5343990000000  0.4715020000000 1.0
C      1  0.4369580000000  0.5249820000000  0.5257470000000 1.0
C      1  0.5513150000000  0.4859420000000  0.4979300000000 1.0
C      1  0.4667430000000  0.4693020000000  0.5020410000000 1.0
C      1  0.5697940000000  0.5201440000000  0.5185240000000 1.0
C      1  0.4378120000000  0.4961940000000  0.4824110000000 1.0
C      1  0.4862620000000  0.5577000000000  0.5252930000000 1.0
C      1  0.5001780000000  0.5578080000000  0.4750300000000 1.0
C      1  0.5526910000000  0.4472990000000  0.5294800000000 1.0
C      1  0.4675500000000  0.4253740000000  0.4774670000000 1.0
C      1  0.4842180000000  0.4572980000000  0.4387660000000 1.0
C      1  0.5308370000000  0.4726740000000  0.5639670000000 1.0
C      1  0.5100950000000  0.4716470000000  0.4329070000000 1.0
C      1  0.5022020000000  0.4791350000000  0.5694520000000 1.0
C      1  0.4654660000000  0.4405070000000  0.5011680000000 1.0
C      1  0.5412570000000  0.4595430000000  0.5068370000000 1.0
C      1  0.5248000000000  0.5625220000000  0.4604310000000 1.0
C      1  0.4601070000000  0.5674630000000  0.5229010000000 1.0
C      1  0.5078690000000  0.5950610000000  0.5045020000000 1.0
C      1  0.4449890000000  0.3491480000000  0.4774480000000 1.0
C      1  0.5060620000000  0.5666900000000  0.5038340000000 1.0
C      1  0.5092560000000  0.6469430000000  0.5082220000000 1.0
C      1  0.4953770000000  0.4757190000000  0.4962870000000 1.0
C      1  0.4523880000000  0.3736250000000  0.4775560000000 1.0
C      1  0.4613290000000  0.3984700000000  0.4786010000000 1.0
C      1  0.5128220000000  0.4524330000000  0.5025930000000 1.0
C      1  0.5020100000000  0.5032810000000  0.5016000000000 1.0
C      1  0.5081920000000  0.6214300000000  0.5068910000000 1.0
END
