TITL C-8698-8182-126 -8.42483964585794e-07 125000 -365.514893536069 0 0 60 (C3i) n - 1
REM
REM in /home/bkarasulu/CARBON/AIRSS/Generating-Clusters/EDIP-Nigel-Params/Higher-Symm/Box-15A/Only-C60/SD-CG/HFTN-CG
REM
REM
REM
REM
REM
REM ./C.cell (414f73aa93bd7a1190c7fd0f31ff2f98)
REM
REM compiler GCC version 9.2.1 20190827 (Red Hat 9.2.1-1)
REM options -cpp -mtune=generic -march=x86-64 -g -O0 -fpre-include=/usr/include/finclude/math-vector-fortran.h
REM seed 189829235 -1306722094 -814136562 370775067 166773593 -1705712416 1059793061 -2053558161 -1708755650 1649762945 -1503755998 1175426039 1744002797 -685783069 -1135586075 -842408187 1136106618 678607734 885681118 564021866 -19083095 -489303248 1230008692 1554998063 1278133713 1738380351 -1436201789 -1424453318 -1819829684 -1080447537 -1642217982 -2056354230 2094123892
REM
CELL 1.54180   50.00000   50.00000   50.00000   90.00000   90.00000   90.00000
LATT -1
SFAC C  
C      1  0.4497960000000  0.5074090000000  0.4497730000000 1.0
C      1  0.5183980000000  0.4926920000000  0.4313980000000 1.0
C      1  0.5686080000000  0.5073490000000  0.4816430000000 1.0
C      1  0.5502040000000  0.4925910000000  0.5502270000000 1.0
C      1  0.4816020000000  0.5073080000000  0.5686020000000 1.0
C      1  0.4313920000000  0.4926510000000  0.5183570000000 1.0
C      1  0.4885070000000  0.4660820000000  0.4723710000000 1.0
C      1  0.5181730000000  0.5339550000000  0.4762810000000 1.0
C      1  0.5296350000000  0.4660460000000  0.5038310000000 1.0
C      1  0.5114930000000  0.5339180000000  0.5276290000000 1.0
C      1  0.4818270000000  0.4660450000000  0.5237190000000 1.0
C      1  0.4703650000000  0.5339540000000  0.4961690000000 1.0
C      1  0.4815740000000  0.5429510000000  0.5238540000000 1.0
C      1  0.4701390000000  0.4570480000000  0.4959080000000 1.0
C      1  0.4886030000000  0.5429890000000  0.4721540000000 1.0
C      1  0.5184260000000  0.4570490000000  0.4761460000000 1.0
C      1  0.5298610000000  0.5429520000000  0.5040920000000 1.0
C      1  0.5113970000000  0.4570110000000  0.5278460000000 1.0
C      1  0.4782060000000  0.4585310000000  0.4466460000000 1.0
C      1  0.5353000000000  0.5415420000000  0.4545080000000 1.0
C      1  0.5570560000000  0.4584600000000  0.5077660000000 1.0
C      1  0.5217940000000  0.5414690000000  0.5533540000000 1.0
C      1  0.4647000000000  0.4584580000000  0.5454920000000 1.0
C      1  0.4429440000000  0.5415400000000  0.4922340000000 1.0
C      1  0.4674410000000  0.5112510000000  0.5442420000000 1.0
C      1  0.4454090000000  0.4887450000000  0.4939080000000 1.0
C      1  0.4779780000000  0.5113210000000  0.4496930000000 1.0
C      1  0.5325590000000  0.4887490000000  0.4557580000000 1.0
C      1  0.5545910000000  0.5112550000000  0.5060920000000 1.0
C      1  0.5220220000000  0.4886790000000  0.5503070000000 1.0
C      1  0.5103510000000  0.4270890000000  0.5252600000000 1.0
C      1  0.4832840000000  0.5728770000000  0.5216970000000 1.0
C      1  0.4728680000000  0.4271220000000  0.4962690000000 1.0
C      1  0.4896490000000  0.5729110000000  0.4747400000000 1.0
C      1  0.5167160000000  0.4271230000000  0.4783030000000 1.0
C      1  0.5271320000000  0.5728780000000  0.5037310000000 1.0
C      1  0.5778200000000  0.4718560000000  0.5188400000000 1.0
C      1  0.5225880000000  0.5280400000000  0.5768540000000 1.0
C      1  0.4447430000000  0.4718660000000  0.5579490000000 1.0
C      1  0.4221800000000  0.5281440000000  0.4811600000000 1.0
C      1  0.4774120000000  0.4719600000000  0.4231460000000 1.0
C      1  0.5552570000000  0.5281340000000  0.4420510000000 1.0
C      1  0.5112160000000  0.5039230000000  0.5261550000000 1.0
C      1  0.4829580000000  0.4960410000000  0.5227850000000 1.0
C      1  0.4717460000000  0.5039580000000  0.4966390000000 1.0
C      1  0.4887840000000  0.4960770000000  0.4738450000000 1.0
C      1  0.5170420000000  0.5039590000000  0.4772150000000 1.0
C      1  0.5282540000000  0.4960420000000  0.5033610000000 1.0
C      1  0.5090170000000  0.5037200000000  0.5728160000000 1.0
C      1  0.4414490000000  0.4962040000000  0.5442110000000 1.0
C      1  0.4324350000000  0.5038210000000  0.4714040000000 1.0
C      1  0.4909830000000  0.4962800000000  0.4271840000000 1.0
C      1  0.5585510000000  0.5037960000000  0.4557890000000 1.0
C      1  0.5675650000000  0.4961790000000  0.5285960000000 1.0
C      1  0.4834560000000  0.4188600000000  0.5212960000000 1.0
C      1  0.4732670000000  0.5811390000000  0.4964360000000 1.0
C      1  0.4897380000000  0.4188940000000  0.4749520000000 1.0
C      1  0.5165440000000  0.5811400000000  0.4787040000000 1.0
C      1  0.5267330000000  0.4188610000000  0.5035640000000 1.0
C      1  0.5102620000000  0.5811060000000  0.5250480000000 1.0
END
