TITL C-8696-5006-197 1.97321813547469e-06 125000 -364.207051103661 0 0 60 (C1) n - 1
REM
REM in /home/bkarasulu/CARBON/AIRSS/Generating-Clusters/EDIP-Nigel-Params/Higher-Symm/Box-15A/Only-C60/SD-CG/HFTN-CG
REM
REM
REM
REM
REM
REM ./C.cell (414f73aa93bd7a1190c7fd0f31ff2f98)
REM
REM compiler GCC version 9.2.1 20190827 (Red Hat 9.2.1-1)
REM options -cpp -mtune=generic -march=x86-64 -g -O0 -fpre-include=/usr/include/finclude/math-vector-fortran.h
REM seed 499007119 -871767660 -214630140 109604826 2114665024 1554624319 1117295165 -1510847260 -605834362 950277434 -704515845 -1169698226 -2023050739 1041927614 -1408438835 1668620714 538177287 -1390561815 10301059 -1235245783 1893750786 -1635611816 2108950310 524301085 2043372962 -948681607 874698022 -1798911438 -2097577242 -829740638 -1134535326 -218769886 -1401767266
REM
CELL 1.54180   50.00000   50.00000   50.00000   90.00000   90.00000   90.00000
LATT -1
SFAC C  
C      1  0.5187380000000  0.4928910000000  0.4734230000000 1.0
C      1  0.4810460000000  0.5060110000000  0.5265140000000 1.0
C      1  0.5076790000000  0.5472150000000  0.5362840000000 1.0
C      1  0.4917670000000  0.4530610000000  0.4633090000000 1.0
C      1  0.4707890000000  0.5177940000000  0.5531230000000 1.0
C      1  0.5298640000000  0.4824590000000  0.4469600000000 1.0
C      1  0.5448910000000  0.4388760000000  0.5037980000000 1.0
C      1  0.4536530000000  0.5594630000000  0.4961530000000 1.0
C      1  0.4989740000000  0.5476130000000  0.4350440000000 1.0
C      1  0.5017360000000  0.4537620000000  0.5664390000000 1.0
C      1  0.4481180000000  0.5372770000000  0.5428500000000 1.0
C      1  0.5516730000000  0.4616450000000  0.4573030000000 1.0
C      1  0.5645790000000  0.4944400000000  0.5259730000000 1.0
C      1  0.4370560000000  0.5047890000000  0.4739130000000 1.0
C      1  0.5305270000000  0.5600870000000  0.5219340000000 1.0
C      1  0.4677770000000  0.4449450000000  0.4782010000000 1.0
C      1  0.4901610000000  0.4689130000000  0.4382180000000 1.0
C      1  0.5103570000000  0.5324760000000  0.5617020000000 1.0
C      1  0.4514550000000  0.4686040000000  0.5358100000000 1.0
C      1  0.5495400000000  0.5292960000000  0.4671110000000 1.0
C      1  0.4770580000000  0.5603010000000  0.4785350000000 1.0
C      1  0.5219210000000  0.4392650000000  0.5221090000000 1.0
C      1  0.4580170000000  0.4899790000000  0.5156150000000 1.0
C      1  0.5415610000000  0.5077460000000  0.4858260000000 1.0
C      1  0.4757560000000  0.5119350000000  0.4483900000000 1.0
C      1  0.5244580000000  0.4887260000000  0.5505750000000 1.0
C      1  0.4658890000000  0.5541630000000  0.5228010000000 1.0
C      1  0.5333150000000  0.4446650000000  0.4768330000000 1.0
C      1  0.5458040000000  0.4680600000000  0.5461450000000 1.0
C      1  0.4540510000000  0.5320820000000  0.4533780000000 1.0
C      1  0.4660220000000  0.4852000000000  0.4413430000000 1.0
C      1  0.5336900000000  0.5161700000000  0.5551070000000 1.0
C      1  0.5041780000000  0.4864970000000  0.5276550000000 1.0
C      1  0.4958130000000  0.5131710000000  0.4719100000000 1.0
C      1  0.4888790000000  0.5361180000000  0.5165890000000 1.0
C      1  0.5109170000000  0.4632950000000  0.4829650000000 1.0
C      1  0.4743760000000  0.4446030000000  0.5066980000000 1.0
C      1  0.5239150000000  0.5595830000000  0.4930320000000 1.0
C      1  0.4935850000000  0.5043300000000  0.5817420000000 1.0
C      1  0.5072330000000  0.4973480000000  0.4187960000000 1.0
C      1  0.5557730000000  0.5454840000000  0.5205370000000 1.0
C      1  0.4420580000000  0.4525510000000  0.4689720000000 1.0
C      1  0.4459640000000  0.4796840000000  0.4615160000000 1.0
C      1  0.5552760000000  0.5206070000000  0.5357250000000 1.0
C      1  0.4656100000000  0.4953520000000  0.5732570000000 1.0
C      1  0.5348430000000  0.5063890000000  0.4282500000000 1.0
C      1  0.5660200000000  0.4650170000000  0.4851310000000 1.0
C      1  0.4336140000000  0.5327500000000  0.5152350000000 1.0
C      1  0.4676270000000  0.4698440000000  0.5600300000000 1.0
C      1  0.5327190000000  0.5312140000000  0.4430760000000 1.0
C      1  0.5266480000000  0.4443660000000  0.5507790000000 1.0
C      1  0.4732380000000  0.5562150000000  0.4497130000000 1.0
C      1  0.5015730000000  0.4590350000000  0.5120520000000 1.0
C      1  0.4983550000000  0.5411520000000  0.4878570000000 1.0
C      1  0.5109320000000  0.4805260000000  0.5756720000000 1.0
C      1  0.4899420000000  0.5214950000000  0.4241420000000 1.0
C      1  0.4526690000000  0.4429300000000  0.5247640000000 1.0
C      1  0.5503470000000  0.5528210000000  0.4829630000000 1.0
C      1  0.5634620000000  0.4918440000000  0.4972710000000 1.0
C      1  0.4365120000000  0.5058690000000  0.5029480000000 1.0
END
