TITL C-8699-7882-238 -6.99152200017021e-05 125000 -359.086818627772 0 0 60 (C1) n - 1
REM
REM in /home/bkarasulu/CARBON/AIRSS/Generating-Clusters/EDIP-Nigel-Params/Higher-Symm/Box-15A/Only-C60/SD-CG/HFTN-CG
REM
REM
REM
REM
REM
REM ./C.cell (414f73aa93bd7a1190c7fd0f31ff2f98)
REM
REM compiler GCC version 9.2.1 20190827 (Red Hat 9.2.1-1)
REM options -cpp -mtune=generic -march=x86-64 -g -O0 -fpre-include=/usr/include/finclude/math-vector-fortran.h
REM seed 1732472918 420318154 1180261604 -984600209 935882436 -867685841 276921322 440756647 -445540502 1320145389 -864483452 -380068907 -1815471129 761649293 -295421167 1988559415 984030262 839675634 1825563182 2013253725 1527510582 744408984 -362125977 1933118966 -704014199 -332624628 -1838316620 1843764532 768534786 1866547568 -787765169 -1652505336 1412758453
REM
CELL 1.54180   50.00000   50.00000   50.00000   90.00000   90.00000   90.00000
LATT -1
SFAC C  
C      1  0.5559260000000  0.5364180000000  0.4844060000000 1.0
C      1  0.5251900000000  0.4856140000000  0.5543170000000 1.0
C      1  0.4883370000000  0.5583180000000  0.5394480000000 1.0
C      1  0.4447950000000  0.5394470000000  0.5174550000000 1.0
C      1  0.4429310000000  0.4615590000000  0.4828150000000 1.0
C      1  0.5594400000000  0.4652260000000  0.5206970000000 1.0
C      1  0.4614840000000  0.4855150000000  0.4406800000000 1.0
C      1  0.4650840000000  0.5127190000000  0.5566290000000 1.0
C      1  0.5362470000000  0.5136270000000  0.4424510000000 1.0
C      1  0.5150550000000  0.5565190000000  0.4610770000000 1.0
C      1  0.5137070000000  0.4401730000000  0.5384090000000 1.0
C      1  0.4845790000000  0.4424880000000  0.4585870000000 1.0
C      1  0.4852620000000  0.5350610000000  0.5596820000000 1.0
C      1  0.5525440000000  0.4871550000000  0.5393400000000 1.0
C      1  0.5347400000000  0.5570690000000  0.4831820000000 1.0
C      1  0.5162250000000  0.5350230000000  0.4406190000000 1.0
C      1  0.4811950000000  0.4638380000000  0.4367270000000 1.0
C      1  0.5126740000000  0.4584650000000  0.5623390000000 1.0
C      1  0.4425260000000  0.4850730000000  0.4633340000000 1.0
C      1  0.5567710000000  0.5147840000000  0.4640490000000 1.0
C      1  0.4443340000000  0.5156940000000  0.5364670000000 1.0
C      1  0.4682200000000  0.5598420000000  0.5179180000000 1.0
C      1  0.5370260000000  0.4437120000000  0.5186710000000 1.0
C      1  0.4627110000000  0.4388300000000  0.4800820000000 1.0
C      1  0.4355050000000  0.5311350000000  0.4914200000000 1.0
C      1  0.5274040000000  0.4884300000000  0.4327000000000 1.0
C      1  0.4892960000000  0.4331540000000  0.5259170000000 1.0
C      1  0.5667780000000  0.5295050000000  0.5094650000000 1.0
C      1  0.5709690000000  0.4742940000000  0.4963640000000 1.0
C      1  0.4363030000000  0.4685740000000  0.5114100000000 1.0
C      1  0.4704480000000  0.4873950000000  0.5678960000000 1.0
C      1  0.4706390000000  0.5107910000000  0.4314980000000 1.0
C      1  0.5222420000000  0.5063570000000  0.5740850000000 1.0
C      1  0.5153880000000  0.4420490000000  0.4716950000000 1.0
C      1  0.5158240000000  0.5647810000000  0.5319200000000 1.0
C      1  0.4879350000000  0.5650800000000  0.4676600000000 1.0
C      1  0.4919530000000  0.5275810000000  0.4285580000000 1.0
C      1  0.4324040000000  0.4923260000000  0.5258350000000 1.0
C      1  0.5318850000000  0.4313380000000  0.4925550000000 1.0
C      1  0.5074360000000  0.5286780000000  0.5764480000000 1.0
C      1  0.4862630000000  0.4653550000000  0.5704750000000 1.0
C      1  0.5054320000000  0.4735000000000  0.4261440000000 1.0
C      1  0.5673100000000  0.4900410000000  0.4740460000000 1.0
C      1  0.4352450000000  0.5097640000000  0.4747400000000 1.0
C      1  0.5611890000000  0.5129210000000  0.5305490000000 1.0
C      1  0.4722980000000  0.4298800000000  0.5050890000000 1.0
C      1  0.5267180000000  0.5705640000000  0.5068140000000 1.0
C      1  0.4779490000000  0.5688950000000  0.4932150000000 1.0
C      1  0.5162150000000  0.5173710000000  0.4811990000000 1.0
C      1  0.4753470000000  0.5184990000000  0.5052300000000 1.0
C      1  0.4655530000000  0.4906020000000  0.5001900000000 1.0
C      1  0.5365180000000  0.4993900000000  0.4997560000000 1.0
C      1  0.4984860000000  0.4988420000000  0.4601910000000 1.0
C      1  0.5237710000000  0.5303120000000  0.5165350000000 1.0
C      1  0.5191120000000  0.4774400000000  0.5107610000000 1.0
C      1  0.5044930000000  0.4901040000000  0.5326110000000 1.0
C      1  0.4831980000000  0.4772860000000  0.4781930000000 1.0
C      1  0.4973240000000  0.5177290000000  0.5268200000000 1.0
C      1  0.4860390000000  0.5285780000000  0.4789830000000 1.0
C      1  0.5021310000000  0.4592920000000  0.4936500000000 1.0
END
