TITL C-8692-4986-209 6.66404105316487e-05 125000 -370.626877721494 0 0 60 (C1) n - 1
REM
REM in /home/bkarasulu/CARBON/AIRSS/Generating-Clusters/EDIP-Nigel-Params/Higher-Symm/Box-15A/Only-C60/SD-CG/HFTN-CG
REM
REM
REM
REM
REM
REM ./C.cell (414f73aa93bd7a1190c7fd0f31ff2f98)
REM
REM compiler GCC version 9.2.1 20190827 (Red Hat 9.2.1-1)
REM options -cpp -mtune=generic -march=x86-64 -g -O0 -fpre-include=/usr/include/finclude/math-vector-fortran.h
REM seed 489532761 235800367 1337743256 2007547684 555601967 -176641032 70317398 -740447275 -1988054950 -239922242 249307479 -729434922 -1616061258 -1363670396 -982475390 -1392679387 -1101103665 252828354 937905727 -2029712327 156908797 -203790380 -1563857858 2091976017 1186956298 1996776086 -465505911 25754905 -577960576 125016081 -80441278 -1971078498 1247006642
REM
CELL 1.54180   50.00000   50.00000   50.00000   90.00000   90.00000   90.00000
LATT -1
SFAC C  
C      1  0.4941560000000  0.5014950000000  0.4396250000000 1.0
C      1  0.4849780000000  0.5608130000000  0.4810500000000 1.0
C      1  0.4902320000000  0.5361040000000  0.5523640000000 1.0
C      1  0.4838630000000  0.4635740000000  0.5576730000000 1.0
C      1  0.4866030000000  0.4360470000000  0.4783500000000 1.0
C      1  0.4853310000000  0.4746650000000  0.5151140000000 1.0
C      1  0.4864020000000  0.4796220000000  0.4863460000000 1.0
C      1  0.4822240000000  0.5078650000000  0.4821230000000 1.0
C      1  0.4823360000000  0.5184730000000  0.5087910000000 1.0
C      1  0.4957840000000  0.4986980000000  0.5290540000000 1.0
C      1  0.5931710000000  0.5148250000000  0.5226780000000 1.0
C      1  0.5942780000000  0.4845590000000  0.5201830000000 1.0
C      1  0.5976770000000  0.4778150000000  0.4905330000000 1.0
C      1  0.5980420000000  0.5039660000000  0.4746360000000 1.0
C      1  0.5953310000000  0.5268160000000  0.4944740000000 1.0
C      1  0.4554560000000  0.4686090000000  0.5540690000000 1.0
C      1  0.4572700000000  0.4403600000000  0.4866590000000 1.0
C      1  0.4629540000000  0.4974930000000  0.4394260000000 1.0
C      1  0.4558850000000  0.5608480000000  0.4751290000000 1.0
C      1  0.4617890000000  0.5377400000000  0.5431180000000 1.0
C      1  0.4977320000000  0.4503270000000  0.5246200000000 1.0
C      1  0.4915500000000  0.4552790000000  0.4566710000000 1.0
C      1  0.5011250000000  0.5211350000000  0.4624090000000 1.0
C      1  0.4889760000000  0.5472010000000  0.5091640000000 1.0
C      1  0.4973230000000  0.5132890000000  0.5676510000000 1.0
C      1  0.5656770000000  0.5217920000000  0.5336410000000 1.0
C      1  0.5672370000000  0.4736360000000  0.5292630000000 1.0
C      1  0.5728700000000  0.4626100000000  0.4820080000000 1.0
C      1  0.5732870000000  0.5044210000000  0.4567340000000 1.0
C      1  0.5690590000000  0.5408480000000  0.4883000000000 1.0
C      1  0.4475360000000  0.4939470000000  0.5631800000000 1.0
C      1  0.4498790000000  0.4375980000000  0.5140450000000 1.0
C      1  0.4532240000000  0.4713650000000  0.4457600000000 1.0
C      1  0.4496570000000  0.5458250000000  0.4517900000000 1.0
C      1  0.4558940000000  0.5590500000000  0.5242610000000 1.0
C      1  0.5270500000000  0.4714450000000  0.4993320000000 1.0
C      1  0.5305100000000  0.4846030000000  0.4708690000000 1.0
C      1  0.5286030000000  0.5155050000000  0.4751510000000 1.0
C      1  0.5257810000000  0.5246620000000  0.5056470000000 1.0
C      1  0.5249470000000  0.4971010000000  0.5194220000000 1.0
C      1  0.5068000000000  0.4392160000000  0.4997980000000 1.0
C      1  0.5098550000000  0.4766970000000  0.4490280000000 1.0
C      1  0.4977860000000  0.5496180000000  0.4587790000000 1.0
C      1  0.5087360000000  0.5473350000000  0.5317800000000 1.0
C      1  0.4983260000000  0.4857320000000  0.5676350000000 1.0
C      1  0.4257600000000  0.5268400000000  0.4993140000000 1.0
C      1  0.4246530000000  0.5096240000000  0.5238100000000 1.0
C      1  0.4255790000000  0.4809350000000  0.5148400000000 1.0
C      1  0.4262580000000  0.4810970000000  0.4849690000000 1.0
C      1  0.4270800000000  0.5093560000000  0.4750570000000 1.0
C      1  0.5551090000000  0.5272210000000  0.4650330000000 1.0
C      1  0.5517790000000  0.5380900000000  0.5126600000000 1.0
C      1  0.5494240000000  0.4964560000000  0.5379650000000 1.0
C      1  0.5545650000000  0.4599370000000  0.5056960000000 1.0
C      1  0.5584460000000  0.4786990000000  0.4612190000000 1.0
C      1  0.4432220000000  0.4615820000000  0.4705510000000 1.0
C      1  0.4480410000000  0.5178720000000  0.4557240000000 1.0
C      1  0.4407840000000  0.5532450000000  0.4999700000000 1.0
C      1  0.4414950000000  0.5163550000000  0.5474190000000 1.0
C      1  0.4446190000000  0.4620720000000  0.5274390000000 1.0
END
