TITL C-8693-7204-148 2.13817016141765e-06 125000 -363.581321144285 0 0 60 (C1) n - 1
REM
REM in /home/bkarasulu/CARBON/AIRSS/Generating-Clusters/EDIP-Nigel-Params/Higher-Symm/Box-15A/Only-C60/SD-CG/HFTN-CG
REM
REM
REM
REM
REM
REM ./C.cell (414f73aa93bd7a1190c7fd0f31ff2f98)
REM
REM compiler GCC version 9.2.1 20190827 (Red Hat 9.2.1-1)
REM options -cpp -mtune=generic -march=x86-64 -g -O0 -fpre-include=/usr/include/finclude/math-vector-fortran.h
REM seed -329818863 -1165023269 1064665534 -879638603 47200463 655387285 -1699140691 1661356332 -1374986107 -1079417698 1123472709 1191812340 -706025989 2102536854 -305059000 1817821899 1482802808 808161744 -636593232 1500910232 -705387651 -2135826111 -1475809896 610902014 -450543823 -328242688 1842125280 633679858 -1984125914 -611796103 -613863174 -1783857786 -479091611
REM
CELL 1.54180   50.00000   50.00000   50.00000   90.00000   90.00000   90.00000
LATT -1
SFAC C  
C      1  0.5064450000000  0.4708400000000  0.5756800000000 1.0
C      1  0.4923710000000  0.4795130000000  0.4139810000000 1.0
C      1  0.4502580000000  0.5657840000000  0.5080690000000 1.0
C      1  0.5497180000000  0.5656700000000  0.4913650000000 1.0
C      1  0.5157040000000  0.4484750000000  0.5032190000000 1.0
C      1  0.4872230000000  0.4461140000000  0.4968580000000 1.0
C      1  0.5093310000000  0.4596530000000  0.4240730000000 1.0
C      1  0.4800480000000  0.4658120000000  0.5825250000000 1.0
C      1  0.5533720000000  0.4578100000000  0.5249040000000 1.0
C      1  0.4480570000000  0.4605050000000  0.4775950000000 1.0
C      1  0.4770730000000  0.5430300000000  0.4480230000000 1.0
C      1  0.5222990000000  0.5414270000000  0.5510370000000 1.0
C      1  0.5516850000000  0.5039640000000  0.5424200000000 1.0
C      1  0.4490380000000  0.5073260000000  0.4636880000000 1.0
C      1  0.5331850000000  0.5156730000000  0.4386860000000 1.0
C      1  0.4660890000000  0.5135350000000  0.5585330000000 1.0
C      1  0.4856130000000  0.4929390000000  0.5330140000000 1.0
C      1  0.5149800000000  0.4954050000000  0.4655650000000 1.0
C      1  0.4634600000000  0.4455770000000  0.5415340000000 1.0
C      1  0.5377580000000  0.4430100000000  0.4595060000000 1.0
C      1  0.4753580000000  0.4986970000000  0.4244050000000 1.0
C      1  0.5175010000000  0.4975180000000  0.5767040000000 1.0
C      1  0.4600490000000  0.4640390000000  0.5629910000000 1.0
C      1  0.5322520000000  0.4629320000000  0.4410010000000 1.0
C      1  0.4244220000000  0.5306840000000  0.5246960000000 1.0
C      1  0.5762910000000  0.5340050000000  0.4692120000000 1.0
C      1  0.5348770000000  0.5638100000000  0.5146120000000 1.0
C      1  0.4650050000000  0.5652350000000  0.4847200000000 1.0
C      1  0.4925360000000  0.4769060000000  0.4542000000000 1.0
C      1  0.5087250000000  0.4755060000000  0.5456640000000 1.0
C      1  0.5620070000000  0.4420590000000  0.5018240000000 1.0
C      1  0.4418000000000  0.4421010000000  0.4986150000000 1.0
C      1  0.4635360000000  0.4788320000000  0.5140880000000 1.0
C      1  0.5428370000000  0.4824480000000  0.4951090000000 1.0
C      1  0.4477070000000  0.4901790000000  0.5552960000000 1.0
C      1  0.5471850000000  0.4890290000000  0.4449650000000 1.0
C      1  0.5445590000000  0.5551310000000  0.5392930000000 1.0
C      1  0.4551750000000  0.5575330000000  0.4597470000000 1.0
C      1  0.5808570000000  0.5081110000000  0.4740980000000 1.0
C      1  0.4229690000000  0.5055700000000  0.5136380000000 1.0
C      1  0.5614850000000  0.4884280000000  0.4713330000000 1.0
C      1  0.4372720000000  0.4848380000000  0.5276410000000 1.0
C      1  0.4963720000000  0.5490270000000  0.5374360000000 1.0
C      1  0.5030850000000  0.5505310000000  0.4614210000000 1.0
C      1  0.5381420000000  0.4401170000000  0.4871370000000 1.0
C      1  0.4649500000000  0.4364630000000  0.5145140000000 1.0
C      1  0.5284320000000  0.5128770000000  0.5548260000000 1.0
C      1  0.4705460000000  0.5143170000000  0.4475070000000 1.0
C      1  0.5292070000000  0.5366530000000  0.4582390000000 1.0
C      1  0.4704060000000  0.5343630000000  0.5390610000000 1.0
C      1  0.5529430000000  0.5487560000000  0.4697360000000 1.0
C      1  0.4467370000000  0.5467040000000  0.5277670000000 1.0
C      1  0.4769130000000  0.4569910000000  0.4717380000000 1.0
C      1  0.5237400000000  0.4536450000000  0.5304710000000 1.0
C      1  0.4924400000000  0.5037550000000  0.5070160000000 1.0
C      1  0.5176280000000  0.5004110000000  0.4943190000000 1.0
C      1  0.5595990000000  0.4873370000000  0.5216060000000 1.0
C      1  0.4409730000000  0.4893340000000  0.4837860000000 1.0
C      1  0.4931350000000  0.5618440000000  0.4866510000000 1.0
C      1  0.5066410000000  0.5612240000000  0.5126430000000 1.0
END
