TITL C-8697-8172-70 -4.18039528673668e-06 125000 -374.217803402781 0 0 60 (C1) n - 1
REM
REM in /home/bkarasulu/CARBON/AIRSS/Generating-Clusters/EDIP-Nigel-Params/Higher-Symm/Box-15A/Only-C60/SD-CG/HFTN-CG
REM
REM
REM
REM
REM
REM ./C.cell (414f73aa93bd7a1190c7fd0f31ff2f98)
REM
REM compiler GCC version 9.2.1 20190827 (Red Hat 9.2.1-1)
REM options -cpp -mtune=generic -march=x86-64 -g -O0 -fpre-include=/usr/include/finclude/math-vector-fortran.h
REM seed -319754802 -708039644 1598459605 -1220576310 1062871084 -297617038 1006103882 1192811867 -1351836411 -2147325215 553526517 2084609111 1336989724 -328501352 30469290 -1245262647 -1388590937 1660496175 1575911358 -1696106913 704780376 -76181343 667884056 816974301 -1992974010 77883347 -814464426 -604426910 758303420 474090861 -397990298 409391793 -1957752414
REM
CELL 1.54180   50.00000   50.00000   50.00000   90.00000   90.00000   90.00000
LATT -1
SFAC C  
C      1  0.4169340000000  0.4982470000000  0.4579490000000 1.0
C      1  0.4389070000000  0.4484280000000  0.4943380000000 1.0
C      1  0.4872640000000  0.4810410000000  0.4469410000000 1.0
C      1  0.4213750000000  0.5195950000000  0.5292520000000 1.0
C      1  0.5639160000000  0.5010880000000  0.4531100000000 1.0
C      1  0.5736210000000  0.4963630000000  0.5456050000000 1.0
C      1  0.4793620000000  0.5549700000000  0.5052270000000 1.0
C      1  0.5270920000000  0.5559860000000  0.4857600000000 1.0
C      1  0.5499790000000  0.4442920000000  0.5173050000000 1.0
C      1  0.4868220000000  0.5306640000000  0.5624520000000 1.0
C      1  0.5154390000000  0.5313900000000  0.4197640000000 1.0
C      1  0.5152080000000  0.4639720000000  0.5804260000000 1.0
C      1  0.5812290000000  0.4888270000000  0.4713160000000 1.0
C      1  0.5407440000000  0.4332080000000  0.4931480000000 1.0
C      1  0.5086610000000  0.4619500000000  0.4569050000000 1.0
C      1  0.5706280000000  0.5207670000000  0.5321730000000 1.0
C      1  0.4253890000000  0.5229940000000  0.4464230000000 1.0
C      1  0.4334530000000  0.4853770000000  0.5433820000000 1.0
C      1  0.5081120000000  0.5504020000000  0.5070270000000 1.0
C      1  0.4629740000000  0.5622400000000  0.4823440000000 1.0
C      1  0.4682420000000  0.4230060000000  0.5218730000000 1.0
C      1  0.5220250000000  0.5249710000000  0.5781590000000 1.0
C      1  0.4913860000000  0.5458720000000  0.4240810000000 1.0
C      1  0.4886570000000  0.4664680000000  0.5764580000000 1.0
C      1  0.5495580000000  0.5307540000000  0.5166900000000 1.0
C      1  0.5244310000000  0.5399880000000  0.5284070000000 1.0
C      1  0.5433250000000  0.5081860000000  0.5817540000000 1.0
C      1  0.5763110000000  0.4644620000000  0.4842680000000 1.0
C      1  0.4523550000000  0.4642430000000  0.5390060000000 1.0
C      1  0.4207820000000  0.5453590000000  0.4627790000000 1.0
C      1  0.5536370000000  0.4493530000000  0.4733350000000 1.0
C      1  0.4844340000000  0.4313810000000  0.5432130000000 1.0
C      1  0.4721080000000  0.5768720000000  0.4602660000000 1.0
C      1  0.5376140000000  0.4651140000000  0.4545730000000 1.0
C      1  0.4738930000000  0.4548970000000  0.5559450000000 1.0
C      1  0.4664700000000  0.5357400000000  0.4166970000000 1.0
C      1  0.4355900000000  0.5369490000000  0.5108050000000 1.0
C      1  0.4607150000000  0.5424490000000  0.5229610000000 1.0
C      1  0.4661520000000  0.5242460000000  0.5441230000000 1.0
C      1  0.4407000000000  0.4831540000000  0.4584990000000 1.0
C      1  0.5858190000000  0.4755710000000  0.5317340000000 1.0
C      1  0.5481960000000  0.5239620000000  0.4616980000000 1.0
C      1  0.4513230000000  0.4610800000000  0.4731030000000 1.0
C      1  0.5337820000000  0.4450920000000  0.5411100000000 1.0
C      1  0.5184090000000  0.5575930000000  0.4579940000000 1.0
C      1  0.4611750000000  0.4934930000000  0.4421740000000 1.0
C      1  0.5371100000000  0.4637600000000  0.5631990000000 1.0
C      1  0.5317960000000  0.5382210000000  0.4420200000000 1.0
C      1  0.5503250000000  0.4828320000000  0.4365650000000 1.0
C      1  0.4399360000000  0.5125100000000  0.5509830000000 1.0
C      1  0.5120650000000  0.4277780000000  0.5430610000000 1.0
C      1  0.4360350000000  0.5517770000000  0.4853900000000 1.0
C      1  0.4917480000000  0.5606700000000  0.4486650000000 1.0
C      1  0.4523960000000  0.5197040000000  0.4348920000000 1.0
C      1  0.5704740000000  0.4633550000000  0.5122880000000 1.0
C      1  0.5518560000000  0.4889610000000  0.5634550000000 1.0
C      1  0.5126460000000  0.5281690000000  0.5519980000000 1.0
C      1  0.4797830000000  0.4586240000000  0.4672950000000 1.0
C      1  0.4484550000000  0.4429360000000  0.5197630000000 1.0
C      1  0.5511770000000  0.5386480000000  0.4878740000000 1.0
END
