TITL C-8699-7882-322 2.68141400819268e-06 125000 -345.001983470093 0 0 60 (C1) n - 1
REM
REM in /home/bkarasulu/CARBON/AIRSS/Generating-Clusters/EDIP-Nigel-Params/Higher-Symm/Box-15A/Only-C60/SD-CG/HFTN-CG
REM
REM
REM
REM
REM
REM ./C.cell (414f73aa93bd7a1190c7fd0f31ff2f98)
REM
REM compiler GCC version 9.2.1 20190827 (Red Hat 9.2.1-1)
REM options -cpp -mtune=generic -march=x86-64 -g -O0 -fpre-include=/usr/include/finclude/math-vector-fortran.h
REM seed 1674582306 110538167 127940250 -810927352 1543773447 852504206 -964293718 579900441 957059521 -1417309510 1438089362 -1268661985 -41129469 1379406654 1742511979 -1088309360 -1869560624 2111230787 1466036332 888140900 2143276003 -446202892 1402135655 -1120172592 861929828 1984742236 708881886 1886908965 1865175381 1866240349 -1338900748 371330595 936545465
REM
CELL 1.54180   50.00000   50.00000   50.00000   90.00000   90.00000   90.00000
LATT -1
SFAC C  
C      1  0.5225490000000  0.4525110000000  0.4895520000000 1.0
C      1  0.4832330000000  0.5074060000000  0.4591710000000 1.0
C      1  0.4474060000000  0.5003750000000  0.5246500000000 1.0
C      1  0.5102810000000  0.5335500000000  0.5202370000000 1.0
C      1  0.4841580000000  0.5566730000000  0.4879900000000 1.0
C      1  0.4807420000000  0.4606770000000  0.5206870000000 1.0
C      1  0.4673260000000  0.4834910000000  0.5387860000000 1.0
C      1  0.5216750000000  0.4737640000000  0.4683000000000 1.0
C      1  0.5126840000000  0.5093080000000  0.5411820000000 1.0
C      1  0.4567230000000  0.5095310000000  0.4780910000000 1.0
C      1  0.5511660000000  0.5229100000000  0.5085010000000 1.0
C      1  0.5499950000000  0.4939280000000  0.4725910000000 1.0
C      1  0.4680310000000  0.4595740000000  0.4933960000000 1.0
C      1  0.5085490000000  0.5237970000000  0.4610800000000 1.0
C      1  0.5527550000000  0.4943630000000  0.5167550000000 1.0
C      1  0.4792740000000  0.5419640000000  0.5134560000000 1.0
C      1  0.5110420000000  0.5447780000000  0.4824120000000 1.0
C      1  0.5137680000000  0.4595170000000  0.5181890000000 1.0
C      1  0.5294660000000  0.4840750000000  0.5323900000000 1.0
C      1  0.4920710000000  0.4790560000000  0.4618150000000 1.0
C      1  0.4865810000000  0.5012000000000  0.5521090000000 1.0
C      1  0.5493200000000  0.5235760000000  0.4789250000000 1.0
C      1  0.4547510000000  0.5229480000000  0.5064200000000 1.0
C      1  0.4478450000000  0.4803280000000  0.4852270000000 1.0
C      1  0.4533940000000  0.4704340000000  0.5609330000000 1.0
C      1  0.5739240000000  0.4859800000000  0.4570430000000 1.0
C      1  0.4869970000000  0.5846430000000  0.4875290000000 1.0
C      1  0.4733090000000  0.5098150000000  0.4317130000000 1.0
C      1  0.5281420000000  0.5186840000000  0.5642670000000 1.0
C      1  0.5332260000000  0.4669530000000  0.4415790000000 1.0
C      1  0.5738010000000  0.5389380000000  0.5155850000000 1.0
C      1  0.4357770000000  0.5220620000000  0.4625390000000 1.0
C      1  0.4228460000000  0.4885350000000  0.5195360000000 1.0
C      1  0.4741710000000  0.4356560000000  0.5340440000000 1.0
C      1  0.5127530000000  0.4281130000000  0.4806750000000 1.0
C      1  0.5193030000000  0.5565970000000  0.5353320000000 1.0
C      1  0.5402770000000  0.4746770000000  0.5578000000000 1.0
C      1  0.4229690000000  0.4704990000000  0.4738110000000 1.0
C      1  0.5279520000000  0.5674030000000  0.4752980000000 1.0
C      1  0.5274010000000  0.5156600000000  0.4416260000000 1.0
C      1  0.4827380000000  0.4996240000000  0.5797420000000 1.0
C      1  0.4823960000000  0.4652190000000  0.4390160000000 1.0
C      1  0.4315670000000  0.5403730000000  0.5047390000000 1.0
C      1  0.5711520000000  0.5395550000000  0.4693920000000 1.0
C      1  0.5725380000000  0.4781960000000  0.5051260000000 1.0
C      1  0.5209740000000  0.4362960000000  0.5341900000000 1.0
C      1  0.4687660000000  0.4347180000000  0.4806340000000 1.0
C      1  0.4726000000000  0.5608570000000  0.5347610000000 1.0
C      1  0.5360790000000  0.4922560000000  0.4306560000000 1.0
C      1  0.4230530000000  0.5388370000000  0.4792660000000 1.0
C      1  0.4111410000000  0.4756840000000  0.4982580000000 1.0
C      1  0.5834960000000  0.4747320000000  0.4802910000000 1.0
C      1  0.5838510000000  0.5480670000000  0.4919960000000 1.0
C      1  0.4628980000000  0.4815140000000  0.5839260000000 1.0
C      1  0.4977060000000  0.4247990000000  0.5411240000000 1.0
C      1  0.5409280000000  0.4966400000000  0.5737020000000 1.0
C      1  0.4726410000000  0.4843200000000  0.4223820000000 1.0
C      1  0.5124430000000  0.5894500000000  0.4790660000000 1.0
C      1  0.4967060000000  0.5675040000000  0.5453980000000 1.0
C      1  0.4886960000000  0.4174080000000  0.4751140000000 1.0
END
