TITL C-8692-4986-125 1.76477888094383e-07 125000 -374.032281682542 0 0 60 (C3) n - 1
REM
REM in /home/bkarasulu/CARBON/AIRSS/Generating-Clusters/EDIP-Nigel-Params/Higher-Symm/Box-15A/Only-C60/SD-CG/HFTN-CG
REM
REM
REM
REM
REM
REM ./C.cell (414f73aa93bd7a1190c7fd0f31ff2f98)
REM
REM compiler GCC version 9.2.1 20190827 (Red Hat 9.2.1-1)
REM options -cpp -mtune=generic -march=x86-64 -g -O0 -fpre-include=/usr/include/finclude/math-vector-fortran.h
REM seed 583994844 -796821356 -1051123460 -450710868 1427090672 -117757643 1974227048 997986058 121353663 1268829144 1024783913 -191498837 -1923831537 -1472629336 1963614910 1472183765 187952206 -1235496993 840241002 392867053 681125485 427559301 29121026 -1996745638 -58284475 1481298884 1511799565 -496347006 -2118349863 930052166 -2057196290 -647623545 2130950372
REM
CELL 1.54180   50.00000   50.00000   50.00000   90.00000   90.00000   90.00000
LATT -1
SFAC C  
C      1  0.4610520000000  0.4489130000000  0.4520500000000 1.0
C      1  0.4598990000000  0.4839550000000  0.5675320000000 1.0
C      1  0.4601490000000  0.5664470000000  0.4794390000000 1.0
C      1  0.5046880000000  0.4939910000000  0.5750490000000 1.0
C      1  0.5051440000000  0.5680080000000  0.4677670000000 1.0
C      1  0.5059790000000  0.4380920000000  0.4573140000000 1.0
C      1  0.5040940000000  0.4729200000000  0.5015630000000 1.0
C      1  0.5036780000000  0.5148990000000  0.5227390000000 1.0
C      1  0.5040800000000  0.5122500000000  0.4757960000000 1.0
C      1  0.4633780000000  0.5293990000000  0.5032700000000 1.0
C      1  0.4638710000000  0.4880790000000  0.4722730000000 1.0
C      1  0.4634840000000  0.4818920000000  0.5235570000000 1.0
C      1  0.5562500000000  0.4770910000000  0.4835000000000 1.0
C      1  0.5557590000000  0.4972490000000  0.5290610000000 1.0
C      1  0.5559210000000  0.5266280000000  0.4888210000000 1.0
C      1  0.4780520000000  0.4208270000000  0.4922250000000 1.0
C      1  0.4767490000000  0.5328160000000  0.5720630000000 1.0
C      1  0.4778000000000  0.5459690000000  0.4351570000000 1.0
C      1  0.5270840000000  0.4368020000000  0.4777650000000 1.0
C      1  0.5259200000000  0.5123810000000  0.5663090000000 1.0
C      1  0.5265990000000  0.5512760000000  0.4565810000000 1.0
C      1  0.5043130000000  0.4672210000000  0.4508150000000 1.0
C      1  0.5034330000000  0.4737980000000  0.5530460000000 1.0
C      1  0.5034100000000  0.5590450000000  0.4962310000000 1.0
C      1  0.4951160000000  0.4844840000000  0.4755790000000 1.0
C      1  0.4946920000000  0.4866000000000  0.5255580000000 1.0
C      1  0.4946700000000  0.5288260000000  0.4987350000000 1.0
C      1  0.5579200000000  0.5034040000000  0.4707430000000 1.0
C      1  0.5577490000000  0.4730480000000  0.5126820000000 1.0
C      1  0.5574090000000  0.5245460000000  0.5180000000000 1.0
C      1  0.5452550000000  0.4911320000000  0.5556290000000 1.0
C      1  0.5455170000000  0.5526800000000  0.4806540000000 1.0
C      1  0.5461990000000  0.4569780000000  0.4648440000000 1.0
C      1  0.5402110000000  0.4515410000000  0.5248640000000 1.0
C      1  0.5396240000000  0.5458210000000  0.5302290000000 1.0
C      1  0.5405630000000  0.5033320000000  0.4458980000000 1.0
C      1  0.4742480000000  0.5590340000000  0.5326760000000 1.0
C      1  0.4754230000000  0.4987460000000  0.4321010000000 1.0
C      1  0.4749080000000  0.4417850000000  0.5346020000000 1.0
C      1  0.5152660000000  0.5315440000000  0.5441580000000 1.0
C      1  0.5160860000000  0.5224960000000  0.4508760000000 1.0
C      1  0.5160770000000  0.4462340000000  0.5053570000000 1.0
C      1  0.4915870000000  0.4299360000000  0.5149370000000 1.0
C      1  0.4905930000000  0.5479520000000  0.5530560000000 1.0
C      1  0.4917410000000  0.5219610000000  0.4317920000000 1.0
C      1  0.4793390000000  0.4710270000000  0.4346240000000 1.0
C      1  0.4784050000000  0.4578350000000  0.5574110000000 1.0
C      1  0.4781650000000  0.5707690000000  0.5074370000000 1.0
C      1  0.4788570000000  0.5656960000000  0.4554270000000 1.0
C      1  0.4795690000000  0.4285210000000  0.4650290000000 1.0
C      1  0.4781870000000  0.5054180000000  0.5790230000000 1.0
C      1  0.4410310000000  0.5444220000000  0.4759190000000 1.0
C      1  0.4415630000000  0.4568460000000  0.4725500000000 1.0
C      1  0.4406900000000  0.4977130000000  0.5500770000000 1.0
C      1  0.5318970000000  0.5634100000000  0.5067600000000 1.0
C      1  0.5329420000000  0.4742010000000  0.4422660000000 1.0
C      1  0.5321050000000  0.4629470000000  0.5517720000000 1.0
C      1  0.4520610000000  0.4718250000000  0.4960690000000 1.0
C      1  0.4515950000000  0.5106090000000  0.5255310000000 1.0
C      1  0.4519580000000  0.5167340000000  0.4772120000000 1.0
END
