TITL C-8691-6797-35 -8.25519219799015e-06 125000 -361.147677641955 0 0 60 (C1) n - 1
REM
REM in /home/bkarasulu/CARBON/AIRSS/Generating-Clusters/EDIP-Nigel-Params/Higher-Symm/Box-15A/Only-C60/SD-CG/HFTN-CG
REM
REM
REM
REM
REM
REM ./C.cell (414f73aa93bd7a1190c7fd0f31ff2f98)
REM
REM compiler GCC version 9.2.1 20190827 (Red Hat 9.2.1-1)
REM options -cpp -mtune=generic -march=x86-64 -g -O0 -fpre-include=/usr/include/finclude/math-vector-fortran.h
REM seed -2013705617 319644504 -1036267546 -436866824 151966998 28946423 915693109 -434347805 1419143887 -1086686288 -2116243480 1635553981 -123269212 -1071262677 1523567967 1249892174 -823488588 1855787097 2138355440 -69092673 -385102291 696178129 1068426609 -453295706 -315005780 1889305223 837978003 -1711465022 -1094140962 608852144 -272050000 1507100535 1402775297
REM
CELL 1.54180   50.00000   50.00000   50.00000   90.00000   90.00000   90.00000
LATT -1
SFAC C  
C      1  0.4819540000000  0.5712370000000  0.5061620000000 1.0
C      1  0.5032810000000  0.5696870000000  0.4887140000000 1.0
C      1  0.5280230000000  0.5744020000000  0.5008220000000 1.0
C      1  0.5156790000000  0.4316530000000  0.5063720000000 1.0
C      1  0.4941390000000  0.4306030000000  0.4891950000000 1.0
C      1  0.4698410000000  0.4259400000000  0.5018610000000 1.0
C      1  0.4935830000000  0.4912450000000  0.5234990000000 1.0
C      1  0.4886520000000  0.4865640000000  0.4753330000000 1.0
C      1  0.5259870000000  0.4999980000000  0.5032510000000 1.0
C      1  0.5116080000000  0.5147860000000  0.5265990000000 1.0
C      1  0.5151690000000  0.4980460000000  0.4762280000000 1.0
C      1  0.4747730000000  0.4944080000000  0.4998740000000 1.0
C      1  0.5059290000000  0.5468480000000  0.5636830000000 1.0
C      1  0.4359610000000  0.5322780000000  0.4734350000000 1.0
C      1  0.5569650000000  0.5361730000000  0.4628300000000 1.0
C      1  0.4940960000000  0.4539360000000  0.5616480000000 1.0
C      1  0.5646530000000  0.4684160000000  0.4703130000000 1.0
C      1  0.4403360000000  0.4647810000000  0.4624890000000 1.0
C      1  0.5214780000000  0.4932690000000  0.5696600000000 1.0
C      1  0.4231870000000  0.4990550000000  0.4890310000000 1.0
C      1  0.5511430000000  0.5040330000000  0.4421350000000 1.0
C      1  0.4784940000000  0.5075260000000  0.5698460000000 1.0
C      1  0.5756820000000  0.5006190000000  0.4883220000000 1.0
C      1  0.4489360000000  0.4975730000000  0.4441960000000 1.0
C      1  0.5557800000000  0.4498410000000  0.4903510000000 1.0
C      1  0.4748430000000  0.4423550000000  0.5456470000000 1.0
C      1  0.4643720000000  0.4492040000000  0.4551770000000 1.0
C      1  0.4438200000000  0.5512110000000  0.4930840000000 1.0
C      1  0.5221800000000  0.5591760000000  0.5447770000000 1.0
C      1  0.5332790000000  0.5527850000000  0.4603690000000 1.0
C      1  0.4558520000000  0.5244010000000  0.4528150000000 1.0
C      1  0.5662060000000  0.5278780000000  0.4898490000000 1.0
C      1  0.4797710000000  0.5338700000000  0.5599120000000 1.0
C      1  0.5471870000000  0.4754250000000  0.4471380000000 1.0
C      1  0.4306860000000  0.4710380000000  0.4897980000000 1.0
C      1  0.5172020000000  0.4700720000000  0.5545060000000 1.0
C      1  0.4754170000000  0.4849120000000  0.4473120000000 1.0
C      1  0.5546840000000  0.4879180000000  0.5052880000000 1.0
C      1  0.4763030000000  0.4859370000000  0.5501740000000 1.0
C      1  0.5247970000000  0.5132530000000  0.4525410000000 1.0
C      1  0.4478290000000  0.5095160000000  0.5026930000000 1.0
C      1  0.5263640000000  0.5165250000000  0.5528030000000 1.0
C      1  0.5506680000000  0.5329160000000  0.5153560000000 1.0
C      1  0.4635790000000  0.5354810000000  0.5351160000000 1.0
C      1  0.4851510000000  0.5330300000000  0.4503730000000 1.0
C      1  0.4458080000000  0.4655120000000  0.5162990000000 1.0
C      1  0.5403120000000  0.4622160000000  0.5380640000000 1.0
C      1  0.5180940000000  0.4674150000000  0.4445210000000 1.0
C      1  0.4604750000000  0.5565650000000  0.5147480000000 1.0
C      1  0.5050610000000  0.5509020000000  0.4663570000000 1.0
C      1  0.5381030000000  0.5588190000000  0.5217300000000 1.0
C      1  0.5372950000000  0.4477000000000  0.5118820000000 1.0
C      1  0.4927100000000  0.4489770000000  0.4659280000000 1.0
C      1  0.4589310000000  0.4404340000000  0.5228840000000 1.0
C      1  0.5031430000000  0.5158090000000  0.4319120000000 1.0
C      1  0.5538600000000  0.5151850000000  0.5402700000000 1.0
C      1  0.4426000000000  0.5143510000000  0.5316270000000 1.0
C      1  0.4989080000000  0.4855750000000  0.4288770000000 1.0
C      1  0.4477770000000  0.4852890000000  0.5397010000000 1.0
C      1  0.5614070000000  0.4854310000000  0.5346220000000 1.0
END
