TITL C-8695-8180-86 -6.42489362499623e-06 125000 -364.30240259932 0 0 60 (C1) n - 1
REM
REM in /home/bkarasulu/CARBON/AIRSS/Generating-Clusters/EDIP-Nigel-Params/Higher-Symm/Box-15A/Only-C60/SD-CG/HFTN-CG
REM
REM
REM
REM
REM
REM ./C.cell (414f73aa93bd7a1190c7fd0f31ff2f98)
REM
REM compiler GCC version 9.2.1 20190827 (Red Hat 9.2.1-1)
REM options -cpp -mtune=generic -march=x86-64 -g -O0 -fpre-include=/usr/include/finclude/math-vector-fortran.h
REM seed 1039035249 -406082882 -1141383719 -1988870849 497326086 -1827554695 -438976808 -1808398903 -2117975375 817065290 -650526292 396848567 2077657989 1934599759 1708327784 1905552058 133717211 1444317957 -658612718 -583337349 -864604348 -416097382 1779456655 914947675 -1245514415 -1200716892 -128384789 32832035 -1477300676 -1345689239 -1746860686 -119988130 -402038424
REM
CELL 1.54180   50.00000   50.00000   50.00000   90.00000   90.00000   90.00000
LATT -1
SFAC C  
C      1  0.4626690000000  0.5002570000000  0.4429010000000 1.0
C      1  0.4712560000000  0.5007010000000  0.5579860000000 1.0
C      1  0.5657030000000  0.5020850000000  0.4942000000000 1.0
C      1  0.5641690000000  0.4721380000000  0.4944300000000 1.0
C      1  0.4651680000000  0.4697950000000  0.4462720000000 1.0
C      1  0.4713520000000  0.4704850000000  0.5589750000000 1.0
C      1  0.4729570000000  0.5814360000000  0.5042670000000 1.0
C      1  0.5170990000000  0.5814090000000  0.5220610000000 1.0
C      1  0.5104100000000  0.5827320000000  0.4750200000000 1.0
C      1  0.5474240000000  0.4893420000000  0.4517100000000 1.0
C      1  0.4349400000000  0.4886210000000  0.4804810000000 1.0
C      1  0.5167140000000  0.4886080000000  0.5668540000000 1.0
C      1  0.4781280000000  0.4373860000000  0.5189420000000 1.0
C      1  0.5266600000000  0.4391540000000  0.5110290000000 1.0
C      1  0.4963320000000  0.4373430000000  0.4725420000000 1.0
C      1  0.5440860000000  0.4668480000000  0.4725130000000 1.0
C      1  0.4541440000000  0.4654720000000  0.4742500000000 1.0
C      1  0.5008220000000  0.4648960000000  0.5548650000000 1.0
C      1  0.4490400000000  0.5180040000000  0.5579810000000 1.0
C      1  0.5761340000000  0.5191470000000  0.5139400000000 1.0
C      1  0.4771100000000  0.5193820000000  0.4281710000000 1.0
C      1  0.5503930000000  0.4601700000000  0.5177500000000 1.0
C      1  0.4927010000000  0.4561640000000  0.4474590000000 1.0
C      1  0.4602640000000  0.4593740000000  0.5337180000000 1.0
C      1  0.4910210000000  0.5393660000000  0.4426200000000 1.0
C      1  0.4559870000000  0.5375950000000  0.5385010000000 1.0
C      1  0.5550650000000  0.5376390000000  0.5186250000000 1.0
C      1  0.5205430000000  0.4988830000000  0.4435770000000 1.0
C      1  0.4406400000000  0.4985130000000  0.5081410000000 1.0
C      1  0.5368900000000  0.4976750000000  0.5466480000000 1.0
C      1  0.5604980000000  0.5118850000000  0.4669950000000 1.0
C      1  0.4428180000000  0.5106860000000  0.4617770000000 1.0
C      1  0.4966130000000  0.5108780000000  0.5688960000000 1.0
C      1  0.4473110000000  0.4376960000000  0.4796050000000 1.0
C      1  0.5086870000000  0.4369940000000  0.5583450000000 1.0
C      1  0.5444330000000  0.4386100000000  0.4647000000000 1.0
C      1  0.5053820000000  0.4272050000000  0.5315510000000 1.0
C      1  0.5240610000000  0.4284690000000  0.4820000000000 1.0
C      1  0.4721870000000  0.4279490000000  0.4898060000000 1.0
C      1  0.5300030000000  0.5253020000000  0.5366380000000 1.0
C      1  0.5159670000000  0.5260910000000  0.4559430000000 1.0
C      1  0.4528870000000  0.5262720000000  0.5069640000000 1.0
C      1  0.5314530000000  0.4818110000000  0.5225510000000 1.0
C      1  0.5000150000000  0.4834910000000  0.4592000000000 1.0
C      1  0.4643150000000  0.4836340000000  0.5175010000000 1.0
C      1  0.5142350000000  0.4705680000000  0.4834870000000 1.0
C      1  0.4771350000000  0.4702260000000  0.4941440000000 1.0
C      1  0.5050890000000  0.4689490000000  0.5249190000000 1.0
C      1  0.4736560000000  0.5515460000000  0.4647460000000 1.0
C      1  0.4835580000000  0.5506060000000  0.5415770000000 1.0
C      1  0.5433290000000  0.5508290000000  0.4935220000000 1.0
C      1  0.5011590000000  0.5213420000000  0.4821390000000 1.0
C      1  0.4837050000000  0.5221570000000  0.5075390000000 1.0
C      1  0.5148710000000  0.5209980000000  0.5099870000000 1.0
C      1  0.5064410000000  0.5359250000000  0.5557540000000 1.0
C      1  0.5442530000000  0.5370520000000  0.4659710000000 1.0
C      1  0.4496340000000  0.5360160000000  0.4764400000000 1.0
C      1  0.4833500000000  0.5758700000000  0.4786580000000 1.0
C      1  0.4899490000000  0.5748510000000  0.5257610000000 1.0
C      1  0.5271850000000  0.5754730000000  0.4964530000000 1.0
END
