TITL C-8697-8172-257 4.74440096496366e-05 125000 -371.788217327558 0 0 60 (D5d) n - 1
REM
REM in /home/bkarasulu/CARBON/AIRSS/Generating-Clusters/EDIP-Nigel-Params/Higher-Symm/Box-15A/Only-C60/SD-CG/HFTN-CG
REM
REM
REM
REM
REM
REM ./C.cell (414f73aa93bd7a1190c7fd0f31ff2f98)
REM
REM compiler GCC version 9.2.1 20190827 (Red Hat 9.2.1-1)
REM options -cpp -mtune=generic -march=x86-64 -g -O0 -fpre-include=/usr/include/finclude/math-vector-fortran.h
REM seed -168108140 -2025580833 881228611 839534572 -1919161258 -1778452161 603409474 1084653941 -1477284100 1342913128 -848150039 1918940633 -65980163 1053937444 1639027343 -788053539 -1418083553 2096178294 -896033668 1764650228 1080418725 -1878070878 -1676798160 -1409325916 -2005850230 -1080482971 895480646 1589754890 128958406 431619161 -728418217 278417071 1184065461
REM
CELL 1.54180   50.00000   50.00000   50.00000   90.00000   90.00000   90.00000
LATT -1
SFAC C  
C      1  0.5654540000000  0.4734330000000  0.5077530000000 1.0
C      1  0.5483900000000  0.5265780000000  0.5447450000000 1.0
C      1  0.5128540000000  0.4734250000000  0.5646430000000 1.0
C      1  0.4723970000000  0.5265690000000  0.5598520000000 1.0
C      1  0.4424950000000  0.4734180000000  0.5321970000000 1.0
C      1  0.4345460000000  0.5265670000000  0.4922470000000 1.0
C      1  0.4516100000000  0.4734220000000  0.4552550000000 1.0
C      1  0.4871460000000  0.5265750000000  0.4353570000000 1.0
C      1  0.5276030000000  0.4734310000000  0.4401480000000 1.0
C      1  0.5575050000000  0.5265820000000  0.4678030000000 1.0
C      1  0.4807500000000  0.5633140000000  0.5174520000000 1.0
C      1  0.4741830000000  0.4366800000000  0.5028050000000 1.0
C      1  0.4774510000000  0.5633150000000  0.4870930000000 1.0
C      1  0.4893580000000  0.4366830000000  0.4763050000000 1.0
C      1  0.5053030000000  0.5633180000000  0.4745740000000 1.0
C      1  0.5192500000000  0.4366860000000  0.4825480000000 1.0
C      1  0.5258170000000  0.5633200000000  0.4971950000000 1.0
C      1  0.5225490000000  0.4366850000000  0.5129070000000 1.0
C      1  0.5106420000000  0.5633170000000  0.5236950000000 1.0
C      1  0.4946970000000  0.4366820000000  0.5254260000000 1.0
C      1  0.4896600000000  0.4806860000000  0.4769890000000 1.0
C      1  0.5051560000000  0.5193150000000  0.4753050000000 1.0
C      1  0.5186910000000  0.4806890000000  0.4830520000000 1.0
C      1  0.5250780000000  0.5193170000000  0.4972750000000 1.0
C      1  0.5218950000000  0.4806880000000  0.5125360000000 1.0
C      1  0.5103400000000  0.5193140000000  0.5230110000000 1.0
C      1  0.4948440000000  0.4806850000000  0.5246950000000 1.0
C      1  0.4813090000000  0.5193110000000  0.5169480000000 1.0
C      1  0.4749220000000  0.4806830000000  0.5027250000000 1.0
C      1  0.4781050000000  0.5193120000000  0.4874640000000 1.0
C      1  0.4986660000000  0.4734280000000  0.4341040000000 1.0
C      1  0.5376470000000  0.5265800000000  0.4459050000000 1.0
C      1  0.5622600000000  0.4734340000000  0.4783650000000 1.0
C      1  0.5630800000000  0.5265810000000  0.5190920000000 1.0
C      1  0.5398170000000  0.4734290000000  0.5525230000000 1.0
C      1  0.5013340000000  0.5265720000000  0.5658960000000 1.0
C      1  0.4623530000000  0.4734200000000  0.5540950000000 1.0
C      1  0.4377400000000  0.5265660000000  0.5216350000000 1.0
C      1  0.4369200000000  0.4734190000000  0.4809080000000 1.0
C      1  0.4601830000000  0.5265710000000  0.4474770000000 1.0
C      1  0.5728370000000  0.5000080000000  0.5152130000000 1.0
C      1  0.5499850000000  0.5000040000000  0.5551200000000 1.0
C      1  0.5080400000000  0.4999990000000  0.5739730000000 1.0
C      1  0.4630240000000  0.4999940000000  0.5645710000000 1.0
C      1  0.4321320000000  0.4999910000000  0.5305050000000 1.0
C      1  0.4271630000000  0.4999920000000  0.4847870000000 1.0
C      1  0.4500150000000  0.4999960000000  0.4448800000000 1.0
C      1  0.4919600000000  0.5000010000000  0.4260270000000 1.0
C      1  0.5369760000000  0.5000060000000  0.4354290000000 1.0
C      1  0.5678680000000  0.5000090000000  0.4694950000000 1.0
C      1  0.4522020000000  0.4615970000000  0.5051940000000 1.0
C      1  0.4582690000000  0.5383930000000  0.4761070000000 1.0
C      1  0.4802920000000  0.4616010000000  0.4561410000000 1.0
C      1  0.5098260000000  0.5384000000000  0.4529330000000 1.0
C      1  0.5356240000000  0.4616070000000  0.4676980000000 1.0
C      1  0.5477980000000  0.5384030000000  0.4948060000000 1.0
C      1  0.5417310000000  0.4616070000000  0.5238930000000 1.0
C      1  0.5197080000000  0.5383990000000  0.5438590000000 1.0
C      1  0.4901740000000  0.4616000000000  0.5470670000000 1.0
C      1  0.4643760000000  0.5383930000000  0.5323020000000 1.0
END
