TITL C-8696-5006-78 -0.000127664422857946 125000 -364.958972152754 0 0 60 (C1) n - 1
REM
REM in /home/bkarasulu/CARBON/AIRSS/Generating-Clusters/EDIP-Nigel-Params/Higher-Symm/Box-15A/Only-C60/SD-CG/HFTN-CG
REM
REM
REM
REM
REM
REM ./C.cell (414f73aa93bd7a1190c7fd0f31ff2f98)
REM
REM compiler GCC version 9.2.1 20190827 (Red Hat 9.2.1-1)
REM options -cpp -mtune=generic -march=x86-64 -g -O0 -fpre-include=/usr/include/finclude/math-vector-fortran.h
REM seed -327764590 -195304107 -2119677336 1651346731 -1186651395 -211385811 -1816124210 1768277355 193906370 -1456605628 -1665541891 989212275 153356119 1187099048 -612003231 618660276 2024528599 1390274893 -1393801911 -489283076 632539804 440553035 1298377260 -1709848760 1947430212 -1008915106 1521559533 1283352259 -1679475269 156981119 1012667596 -705269090 854214205
REM
CELL 1.54180   50.00000   50.00000   50.00000   90.00000   90.00000   90.00000
LATT -1
SFAC C  
C      1  0.5301620000000  0.4909440000000  0.4170150000000 1.0
C      1  0.5170280000000  0.4672170000000  0.4246780000000 1.0
C      1  0.4896810000000  0.4632310000000  0.4225360000000 1.0
C      1  0.4685490000000  0.4800470000000  0.4296070000000 1.0
C      1  0.4727950000000  0.5058480000000  0.4194610000000 1.0
C      1  0.4934540000000  0.5237580000000  0.4249450000000 1.0
C      1  0.5206860000000  0.5172940000000  0.4199460000000 1.0
C      1  0.5526600000000  0.5319220000000  0.4704880000000 1.0
C      1  0.5556860000000  0.4794250000000  0.4683970000000 1.0
C      1  0.5182740000000  0.4448970000000  0.4795720000000 1.0
C      1  0.4685740000000  0.4584500000000  0.4757220000000 1.0
C      1  0.4493770000000  0.5043390000000  0.4681050000000 1.0
C      1  0.4635930000000  0.5512320000000  0.4765630000000 1.0
C      1  0.5142500000000  0.5629810000000  0.4820870000000 1.0
C      1  0.4385940000000  0.4784120000000  0.5102050000000 1.0
C      1  0.4327950000000  0.5285760000000  0.5077180000000 1.0
C      1  0.4646050000000  0.5622200000000  0.5272750000000 1.0
C      1  0.5430610000000  0.5445260000000  0.5187130000000 1.0
C      1  0.5696030000000  0.5052040000000  0.5067970000000 1.0
C      1  0.5482330000000  0.4610190000000  0.5157860000000 1.0
C      1  0.5093900000000  0.4322890000000  0.5280670000000 1.0
C      1  0.4644680000000  0.4816130000000  0.4583200000000 1.0
C      1  0.4548500000000  0.5305570000000  0.4594170000000 1.0
C      1  0.4877600000000  0.5647440000000  0.4736640000000 1.0
C      1  0.5337800000000  0.5519640000000  0.4652570000000 1.0
C      1  0.5540010000000  0.5061200000000  0.4583350000000 1.0
C      1  0.5355880000000  0.4603600000000  0.4639050000000 1.0
C      1  0.4914620000000  0.4428400000000  0.4719960000000 1.0
C      1  0.4359200000000  0.4818440000000  0.5385560000000 1.0
C      1  0.4535940000000  0.5423290000000  0.5482020000000 1.0
C      1  0.4943930000000  0.5512940000000  0.5285100000000 1.0
C      1  0.5430790000000  0.5301640000000  0.5437130000000 1.0
C      1  0.5503940000000  0.4670130000000  0.5429320000000 1.0
C      1  0.5184310000000  0.4293630000000  0.5549070000000 1.0
C      1  0.4840860000000  0.4478400000000  0.5518660000000 1.0
C      1  0.4399390000000  0.5034750000000  0.4952530000000 1.0
C      1  0.4494360000000  0.5525460000000  0.5024020000000 1.0
C      1  0.5186510000000  0.5599310000000  0.5111230000000 1.0
C      1  0.5588130000000  0.5299610000000  0.4986300000000 1.0
C      1  0.5640800000000  0.4786630000000  0.4969340000000 1.0
C      1  0.5248420000000  0.4458150000000  0.5077060000000 1.0
C      1  0.4607120000000  0.4611620000000  0.5032290000000 1.0
C      1  0.4997790000000  0.5438550000000  0.5587920000000 1.0
C      1  0.5234440000000  0.5260830000000  0.5642560000000 1.0
C      1  0.5363370000000  0.4733710000000  0.5663980000000 1.0
C      1  0.5206730000000  0.4496610000000  0.5759800000000 1.0
C      1  0.4920660000000  0.4588970000000  0.5801590000000 1.0
C      1  0.4690150000000  0.5026380000000  0.5729060000000 1.0
C      1  0.4729340000000  0.5333700000000  0.5696390000000 1.0
C      1  0.4629540000000  0.5179830000000  0.5290120000000 1.0
C      1  0.4902260000000  0.5239610000000  0.5174670000000 1.0
C      1  0.5157910000000  0.5104020000000  0.5242320000000 1.0
C      1  0.5293720000000  0.4972170000000  0.4996670000000 1.0
C      1  0.5120390000000  0.4807360000000  0.5306010000000 1.0
C      1  0.4822260000000  0.4712140000000  0.5325920000000 1.0
C      1  0.4626320000000  0.4923600000000  0.5447870000000 1.0
C      1  0.5139310000000  0.5008160000000  0.4754160000000 1.0
C      1  0.4931690000000  0.4889890000000  0.5828620000000 1.0
C      1  0.5049960000000  0.4957350000000  0.4482510000000 1.0
C      1  0.5164280000000  0.4962730000000  0.5658800000000 1.0
END
