TITL C-8691-6797-159 -1.75240689337106e-06 125000 -352.481693449462 0 0 60 (S4) n - 1
REM
REM in /home/bkarasulu/CARBON/AIRSS/Generating-Clusters/EDIP-Nigel-Params/Higher-Symm/Box-15A/Only-C60/SD-CG/HFTN-CG
REM
REM
REM
REM
REM
REM ./C.cell (414f73aa93bd7a1190c7fd0f31ff2f98)
REM
REM compiler GCC version 9.2.1 20190827 (Red Hat 9.2.1-1)
REM options -cpp -mtune=generic -march=x86-64 -g -O0 -fpre-include=/usr/include/finclude/math-vector-fortran.h
REM seed -677796162 931379909 888392197 254495988 -1550826104 -330405397 1426278632 1231107106 -1359234280 163990739 1317365073 -8385839 -1651577011 -2030316322 1319697921 -78696177 -235730229 805139758 -1417564704 -1852691607 -862758341 -1698800006 -1804922811 30125195 1696750381 1387136684 -1853813222 -1606006879 -1876285541 -1516929275 -670669097 2085596591 -397926546
REM
CELL 1.54180   50.00000   50.00000   50.00000   90.00000   90.00000   90.00000
LATT -1
SFAC C  
C      1  0.5426290000000  0.5772200000000  0.4855380000000 1.0
C      1  0.5145350000000  0.4227830000000  0.5426110000000 1.0
C      1  0.4574340000000  0.5774680000000  0.5145480000000 1.0
C      1  0.4855050000000  0.4225100000000  0.4574030000000 1.0
C      1  0.5637050000000  0.5270940000000  0.4939950000000 1.0
C      1  0.5060990000000  0.4728610000000  0.5637430000000 1.0
C      1  0.4366720000000  0.5272930000000  0.5062190000000 1.0
C      1  0.4938840000000  0.4727390000000  0.4366540000000 1.0
C      1  0.5443040000000  0.4606200000000  0.5273620000000 1.0
C      1  0.4729040000000  0.5397460000000  0.5447440000000 1.0
C      1  0.4552730000000  0.4602420000000  0.4728050000000 1.0
C      1  0.5273860000000  0.5394010000000  0.4557360000000 1.0
C      1  0.5563950000000  0.5540540000000  0.5022550000000 1.0
C      1  0.4978080000000  0.4459520000000  0.5563160000000 1.0
C      1  0.4427830000000  0.5547190000000  0.4980610000000 1.0
C      1  0.5020160000000  0.4452960000000  0.4427660000000 1.0
C      1  0.5020480000000  0.5728770000000  0.5377120000000 1.0
C      1  0.4623960000000  0.4272670000000  0.5020500000000 1.0
C      1  0.4980670000000  0.5725920000000  0.4623250000000 1.0
C      1  0.5377390000000  0.4273480000000  0.4980510000000 1.0
C      1  0.4500890000000  0.5208450000000  0.5398390000000 1.0
C      1  0.4602420000000  0.4791570000000  0.4500190000000 1.0
C      1  0.5504320000000  0.5206620000000  0.4599750000000 1.0
C      1  0.5401010000000  0.4793600000000  0.5504220000000 1.0
C      1  0.5403560000000  0.4305100000000  0.5286200000000 1.0
C      1  0.4715300000000  0.5697970000000  0.5403750000000 1.0
C      1  0.4596540000000  0.4301640000000  0.4714830000000 1.0
C      1  0.5286560000000  0.5695110000000  0.4596930000000 1.0
C      1  0.5198240000000  0.4954360000000  0.5095120000000 1.0
C      1  0.4904270000000  0.5044440000000  0.5198400000000 1.0
C      1  0.4802230000000  0.4954650000000  0.4903730000000 1.0
C      1  0.5095650000000  0.5046140000000  0.4802380000000 1.0
C      1  0.4908970000000  0.4229890000000  0.5117470000000 1.0
C      1  0.4881510000000  0.5768540000000  0.4907760000000 1.0
C      1  0.5092910000000  0.4231120000000  0.4881100000000 1.0
C      1  0.5117790000000  0.5769950000000  0.5091880000000 1.0
C      1  0.4864360000000  0.4927990000000  0.5558510000000 1.0
C      1  0.4443020000000  0.5074560000000  0.4862880000000 1.0
C      1  0.5137660000000  0.4926130000000  0.4443440000000 1.0
C      1  0.5557870000000  0.5071400000000  0.5136440000000 1.0
C      1  0.5470850000000  0.5070270000000  0.5418300000000 1.0
C      1  0.4582020000000  0.4930240000000  0.5472180000000 1.0
C      1  0.4529200000000  0.5069870000000  0.4581060000000 1.0
C      1  0.5419070000000  0.4929830000000  0.4530080000000 1.0
C      1  0.5054620000000  0.4514470000000  0.4739890000000 1.0
C      1  0.5254600000000  0.5486900000000  0.5055950000000 1.0
C      1  0.4944710000000  0.4512910000000  0.5253940000000 1.0
C      1  0.4740260000000  0.5485210000000  0.4945980000000 1.0
C      1  0.5119190000000  0.5341170000000  0.4805330000000 1.0
C      1  0.5195350000000  0.4659080000000  0.5118590000000 1.0
C      1  0.4875960000000  0.5339210000000  0.5196590000000 1.0
C      1  0.4803740000000  0.4660140000000  0.4875330000000 1.0
C      1  0.4835120000000  0.5507310000000  0.4515470000000 1.0
C      1  0.5485110000000  0.4491960000000  0.4834940000000 1.0
C      1  0.5162050000000  0.5507400000000  0.5485310000000 1.0
C      1  0.4515120000000  0.4493710000000  0.5162270000000 1.0
C      1  0.5510050000000  0.4710870000000  0.4677840000000 1.0
C      1  0.5321110000000  0.5289130000000  0.5507240000000 1.0
C      1  0.4492820000000  0.4711980000000  0.5321360000000 1.0
C      1  0.4678140000000  0.5288280000000  0.4490070000000 1.0
END
