TITL C-8691-6797-92 1.3413879905949e-06 125000 -362.470304337325 0 0 60 (C1) n - 1
REM
REM in /home/bkarasulu/CARBON/AIRSS/Generating-Clusters/EDIP-Nigel-Params/Higher-Symm/Box-15A/Only-C60/SD-CG/HFTN-CG
REM
REM
REM
REM
REM
REM ./C.cell (414f73aa93bd7a1190c7fd0f31ff2f98)
REM
REM compiler GCC version 9.2.1 20190827 (Red Hat 9.2.1-1)
REM options -cpp -mtune=generic -march=x86-64 -g -O0 -fpre-include=/usr/include/finclude/math-vector-fortran.h
REM seed 1561000674 1994230230 881404409 568600292 2006353056 1154824595 -1095591437 -536124192 120563051 1979602754 546121174 962357051 777721159 1566901813 302725002 173957761 -1553922846 982988363 1165348888 -2022269898 2055474578 -2099539176 1278799983 716045834 -1702781734 -2045479040 167645289 -552701144 -1157301210 719083201 -759998644 -954422060 652562337
REM
CELL 1.54180   50.00000   50.00000   50.00000   90.00000   90.00000   90.00000
LATT -1
SFAC C  
C      1  0.4336450000000  0.4654140000000  0.4609430000000 1.0
C      1  0.4676430000000  0.4351070000000  0.4781110000000 1.0
C      1  0.4792920000000  0.4604800000000  0.4384660000000 1.0
C      1  0.4467450000000  0.5211160000000  0.5365730000000 1.0
C      1  0.5635890000000  0.5206050000000  0.4529020000000 1.0
C      1  0.5565120000000  0.4776960000000  0.5474240000000 1.0
C      1  0.4586960000000  0.5671330000000  0.5217260000000 1.0
C      1  0.5470670000000  0.5521810000000  0.4903120000000 1.0
C      1  0.5333460000000  0.4526310000000  0.5140220000000 1.0
C      1  0.4836360000000  0.5478290000000  0.5584940000000 1.0
C      1  0.5288590000000  0.5503760000000  0.4358970000000 1.0
C      1  0.5177820000000  0.4602170000000  0.5600660000000 1.0
C      1  0.4497970000000  0.4570980000000  0.4824190000000 1.0
C      1  0.4526240000000  0.4768730000000  0.4428280000000 1.0
C      1  0.4870600000000  0.4377810000000  0.4576830000000 1.0
C      1  0.4453920000000  0.5427550000000  0.5154540000000 1.0
C      1  0.5590360000000  0.4656600000000  0.5208650000000 1.0
C      1  0.5653700000000  0.5356850000000  0.4765270000000 1.0
C      1  0.4620160000000  0.5287840000000  0.5613850000000 1.0
C      1  0.5445770000000  0.4618710000000  0.5678100000000 1.0
C      1  0.5507120000000  0.5349890000000  0.4325280000000 1.0
C      1  0.4752810000000  0.5695500000000  0.5430640000000 1.0
C      1  0.5122300000000  0.4380500000000  0.5430740000000 1.0
C      1  0.5114680000000  0.5572240000000  0.4567500000000 1.0
C      1  0.5264860000000  0.4909880000000  0.4413850000000 1.0
C      1  0.4523370000000  0.5362080000000  0.4883310000000 1.0
C      1  0.4836260000000  0.4370890000000  0.5430000000000 1.0
C      1  0.5237630000000  0.5157130000000  0.5602320000000 1.0
C      1  0.4551700000000  0.5070390000000  0.4480050000000 1.0
C      1  0.4620270000000  0.4822970000000  0.5518030000000 1.0
C      1  0.4491220000000  0.4597190000000  0.5118790000000 1.0
C      1  0.5523200000000  0.4792980000000  0.4845370000000 1.0
C      1  0.5505930000000  0.5163150000000  0.5195740000000 1.0
C      1  0.4835880000000  0.5495850000000  0.4524050000000 1.0
C      1  0.5216550000000  0.5546960000000  0.5298560000000 1.0
C      1  0.5137170000000  0.4501100000000  0.4647590000000 1.0
C      1  0.5369410000000  0.4506560000000  0.4834450000000 1.0
C      1  0.4445760000000  0.4832320000000  0.5288670000000 1.0
C      1  0.4828410000000  0.5204790000000  0.4439010000000 1.0
C      1  0.5465040000000  0.5460570000000  0.5184760000000 1.0
C      1  0.4717730000000  0.4397920000000  0.5167020000000 1.0
C      1  0.4702420000000  0.5548100000000  0.4772480000000 1.0
C      1  0.4425030000000  0.5141930000000  0.4732490000000 1.0
C      1  0.5533120000000  0.4924660000000  0.4553010000000 1.0
C      1  0.5487560000000  0.5066050000000  0.5471650000000 1.0
C      1  0.4710230000000  0.4565950000000  0.5582410000000 1.0
C      1  0.5091380000000  0.5378970000000  0.5486900000000 1.0
C      1  0.5180150000000  0.4638270000000  0.4394790000000 1.0
C      1  0.5049380000000  0.5044690000000  0.4585200000000 1.0
C      1  0.4844070000000  0.5013020000000  0.5462530000000 1.0
C      1  0.5153210000000  0.4775580000000  0.5143230000000 1.0
C      1  0.4904500000000  0.5455430000000  0.5090810000000 1.0
C      1  0.5109510000000  0.4845450000000  0.5439920000000 1.0
C      1  0.5164490000000  0.5163570000000  0.4825390000000 1.0
C      1  0.4862300000000  0.4837330000000  0.4689140000000 1.0
C      1  0.5332950000000  0.4990840000000  0.5001830000000 1.0
C      1  0.4681620000000  0.4955360000000  0.4951500000000 1.0
C      1  0.4796140000000  0.5152730000000  0.5169330000000 1.0
C      1  0.4902130000000  0.4680990000000  0.4977470000000 1.0
C      1  0.5175680000000  0.5457290000000  0.4845120000000 1.0
END
