TITL C-8696-5006-79 3.22659556153152e-05 125000 -355.799552468999 0 0 60 (D2) n - 1
REM
REM in /home/bkarasulu/CARBON/AIRSS/Generating-Clusters/EDIP-Nigel-Params/Higher-Symm/Box-15A/Only-C60/SD-CG/HFTN-CG
REM
REM
REM
REM
REM
REM ./C.cell (414f73aa93bd7a1190c7fd0f31ff2f98)
REM
REM compiler GCC version 9.2.1 20190827 (Red Hat 9.2.1-1)
REM options -cpp -mtune=generic -march=x86-64 -g -O0 -fpre-include=/usr/include/finclude/math-vector-fortran.h
REM seed 1026030816 -373913808 -494048737 -1699428417 1231229099 1440901607 1593570030 -426199994 -1311719527 -1680096548 -1648135918 -819884469 -2034677588 270903118 825845861 1720193052 450288953 -1452567960 1400760998 -1473152098 -1049515937 -934685909 1535660893 1720766148 -168170167 -774659464 -1778507489 -586703408 -323928837 -1250466325 557970586 -1673294532 -1073253205
REM
CELL 1.54180   50.00000   50.00000   50.00000   90.00000   90.00000   90.00000
LATT -1
SFAC C  
C      1  0.5639620000000  0.5014420000000  0.4614550000000 1.0
C      1  0.4880390000000  0.4759360000000  0.5526150000000 1.0
C      1  0.4668670000000  0.5633130000000  0.4816830000000 1.0
C      1  0.5643080000000  0.4992010000000  0.5379820000000 1.0
C      1  0.4360270000000  0.5007490000000  0.5385460000000 1.0
C      1  0.4357030000000  0.4986070000000  0.4620160000000 1.0
C      1  0.4873370000000  0.5239400000000  0.4474930000000 1.0
C      1  0.5122020000000  0.4761280000000  0.4473530000000 1.0
C      1  0.5124230000000  0.5239960000000  0.5525390000000 1.0
C      1  0.4676660000000  0.4363590000000  0.5186040000000 1.0
C      1  0.5324970000000  0.5636170000000  0.5184020000000 1.0
C      1  0.5329710000000  0.4367110000000  0.4813110000000 1.0
C      1  0.4335520000000  0.4901600000000  0.4893740000000 1.0
C      1  0.4964550000000  0.4860760000000  0.4249120000000 1.0
C      1  0.4860800000000  0.4338770000000  0.4969370000000 1.0
C      1  0.4335530000000  0.5091730000000  0.5112090000000 1.0
C      1  0.5665430000000  0.4908130000000  0.5106130000000 1.0
C      1  0.5663520000000  0.5098540000000  0.4888040000000 1.0
C      1  0.4969740000000  0.5138910000000  0.5751170000000 1.0
C      1  0.5036850000000  0.4860110000000  0.5750690000000 1.0
C      1  0.5028860000000  0.5140220000000  0.4249020000000 1.0
C      1  0.4854440000000  0.5659800000000  0.5031880000000 1.0
C      1  0.5145830000000  0.4340160000000  0.5029740000000 1.0
C      1  0.5138930000000  0.5661270000000  0.4969010000000 1.0
C      1  0.4992400000000  0.5475890000000  0.4559790000000 1.0
C      1  0.5589240000000  0.4457550000000  0.4861260000000 1.0
C      1  0.4472270000000  0.5153460000000  0.5589640000000 1.0
C      1  0.5001030000000  0.4524080000000  0.5440240000000 1.0
C      1  0.5002830000000  0.5475350000000  0.5440850000000 1.0
C      1  0.5003740000000  0.4524690000000  0.4559120000000 1.0
C      1  0.5584960000000  0.5548340000000  0.5133590000000 1.0
C      1  0.4416230000000  0.4451490000000  0.5138010000000 1.0
C      1  0.4409570000000  0.5542620000000  0.4867140000000 1.0
C      1  0.4468680000000  0.4841230000000  0.4415010000000 1.0
C      1  0.5526160000000  0.5159530000000  0.4410570000000 1.0
C      1  0.5532890000000  0.4845780000000  0.5584780000000 1.0
C      1  0.4319130000000  0.5364840000000  0.5056220000000 1.0
C      1  0.5304760000000  0.5196400000000  0.4262900000000 1.0
C      1  0.5213080000000  0.4466540000000  0.5275530000000 1.0
C      1  0.4322360000000  0.4628350000000  0.4949730000000 1.0
C      1  0.5677170000000  0.5371720000000  0.4944270000000 1.0
C      1  0.5681330000000  0.4635090000000  0.5049770000000 1.0
C      1  0.5313170000000  0.4806700000000  0.5734390000000 1.0
C      1  0.4693290000000  0.5192340000000  0.5737360000000 1.0
C      1  0.4688780000000  0.4804560000000  0.4265350000000 1.0
C      1  0.5205290000000  0.5535560000000  0.4722630000000 1.0
C      1  0.4792280000000  0.4464800000000  0.4723750000000 1.0
C      1  0.4789350000000  0.5533100000000  0.5278090000000 1.0
C      1  0.4725350000000  0.5064370000000  0.4687410000000 1.0
C      1  0.4882300000000  0.4817520000000  0.4839030000000 1.0
C      1  0.4696330000000  0.4734290000000  0.5082380000000 1.0
C      1  0.4728770000000  0.4932890000000  0.5314990000000 1.0
C      1  0.5273990000000  0.5066700000000  0.5312680000000 1.0
C      1  0.5271890000000  0.4936040000000  0.4684920000000 1.0
C      1  0.4881890000000  0.5181290000000  0.5162010000000 1.0
C      1  0.5119530000000  0.4818500000000  0.5160730000000 1.0
C      1  0.5116280000000  0.5182690000000  0.4838240000000 1.0
C      1  0.4692960000000  0.5262650000000  0.4920300000000 1.0
C      1  0.5306320000000  0.4737460000000  0.4917270000000 1.0
C      1  0.5304390000000  0.5265610000000  0.5080050000000 1.0
END
