TITL C-8694-7203-42 -8.66542040277673e-07 125000 -369.345341336079 0 0 60 (C2) n - 1
REM
REM in /home/bkarasulu/CARBON/AIRSS/Generating-Clusters/EDIP-Nigel-Params/Higher-Symm/Box-15A/Only-C60/SD-CG/HFTN-CG
REM
REM
REM
REM
REM
REM ./C.cell (414f73aa93bd7a1190c7fd0f31ff2f98)
REM
REM compiler GCC version 9.2.1 20190827 (Red Hat 9.2.1-1)
REM options -cpp -mtune=generic -march=x86-64 -g -O0 -fpre-include=/usr/include/finclude/math-vector-fortran.h
REM seed 925918675 229652833 1208475417 2037324997 1440030248 -1896998920 -676254597 1606850962 1289651939 -748520435 16867188 214748382 -1875658211 -904493999 -1762281358 -1279220204 1336343457 1273263142 2031979108 -216904106 -1932301859 -1197279214 653993363 690187688 -1784948733 -1164533497 -1304715536 -297682414 -2081475058 399859817 -1400392651 342478513 1072154673
REM
CELL 1.54180   50.00000   50.00000   50.00000   90.00000   90.00000   90.00000
LATT -1
SFAC C  
C      1  0.5323510000000  0.4890590000000  0.5689260000000 1.0
C      1  0.5764550000000  0.4866730000000  0.5073930000000 1.0
C      1  0.5450650000000  0.4834080000000  0.4349200000000 1.0
C      1  0.4673130000000  0.4872750000000  0.4315400000000 1.0
C      1  0.4231940000000  0.4885630000000  0.4930950000000 1.0
C      1  0.4545190000000  0.4872660000000  0.5656580000000 1.0
C      1  0.5242140000000  0.4821830000000  0.5154670000000 1.0
C      1  0.5246530000000  0.4816340000000  0.4872540000000 1.0
C      1  0.4998690000000  0.4896040000000  0.4719190000000 1.0
C      1  0.4752820000000  0.4822810000000  0.4852330000000 1.0
C      1  0.4748440000000  0.4828560000000  0.5134450000000 1.0
C      1  0.4998520000000  0.4907180000000  0.5284690000000 1.0
C      1  0.4743370000000  0.4344220000000  0.4844180000000 1.0
C      1  0.4720550000000  0.4349100000000  0.5144310000000 1.0
C      1  0.4968740000000  0.4366700000000  0.5307980000000 1.0
C      1  0.5238040000000  0.4343850000000  0.5181660000000 1.0
C      1  0.5260820000000  0.4336270000000  0.4881580000000 1.0
C      1  0.5013140000000  0.4354430000000  0.4717200000000 1.0
C      1  0.5423880000000  0.4583630000000  0.4797270000000 1.0
C      1  0.5033740000000  0.4598060000000  0.4526840000000 1.0
C      1  0.4598010000000  0.4593180000000  0.4739490000000 1.0
C      1  0.4564610000000  0.4604100000000  0.5218730000000 1.0
C      1  0.4955150000000  0.4618110000000  0.5488600000000 1.0
C      1  0.5390450000000  0.4592530000000  0.5276550000000 1.0
C      1  0.5455940000000  0.5224640000000  0.4629400000000 1.0
C      1  0.4917600000000  0.5269600000000  0.4419350000000 1.0
C      1  0.4461650000000  0.5299970000000  0.4796700000000 1.0
C      1  0.4550810000000  0.5251880000000  0.5361220000000 1.0
C      1  0.5090330000000  0.5289810000000  0.5569630000000 1.0
C      1  0.5546740000000  0.5292370000000  0.5191640000000 1.0
C      1  0.5040370000000  0.5234570000000  0.5279830000000 1.0
C      1  0.5275110000000  0.5384000000000  0.5088420000000 1.0
C      1  0.5235310000000  0.5318360000000  0.4793650000000 1.0
C      1  0.4966130000000  0.5224420000000  0.4711130000000 1.0
C      1  0.4735820000000  0.5387860000000  0.4896380000000 1.0
C      1  0.4773920000000  0.5332770000000  0.5193530000000 1.0
C      1  0.4727980000000  0.4636110000000  0.4448920000000 1.0
C      1  0.4361850000000  0.4639070000000  0.4956790000000 1.0
C      1  0.4637670000000  0.4644750000000  0.5525830000000 1.0
C      1  0.5261910000000  0.4650530000000  0.5565130000000 1.0
C      1  0.5627690000000  0.4623120000000  0.5057740000000 1.0
C      1  0.5351830000000  0.4614200000000  0.4488770000000 1.0
C      1  0.4772350000000  0.5687810000000  0.4871020000000 1.0
C      1  0.4820870000000  0.5800590000000  0.5125360000000 1.0
C      1  0.5049650000000  0.5787680000000  0.5276630000000 1.0
C      1  0.5247110000000  0.5685640000000  0.5101930000000 1.0
C      1  0.5201660000000  0.5789640000000  0.4843320000000 1.0
C      1  0.4972530000000  0.5777270000000  0.4692540000000 1.0
C      1  0.4296620000000  0.5235500000000  0.5246540000000 1.0
C      1  0.4867830000000  0.5213660000000  0.5719880000000 1.0
C      1  0.5548750000000  0.5232510000000  0.5463450000000 1.0
C      1  0.5709630000000  0.5205600000000  0.4744770000000 1.0
C      1  0.5137770000000  0.5181330000000  0.4272350000000 1.0
C      1  0.4457800000000  0.5229530000000  0.4527450000000 1.0
C      1  0.5727190000000  0.5138430000000  0.5015840000000 1.0
C      1  0.5388670000000  0.5104930000000  0.4369810000000 1.0
C      1  0.4657270000000  0.5148950000000  0.4349930000000 1.0
C      1  0.4277010000000  0.5158240000000  0.4978320000000 1.0
C      1  0.4614810000000  0.5140620000000  0.5625350000000 1.0
C      1  0.5347170000000  0.5164660000000  0.5643890000000 1.0
END
