TITL C-8696-5006-222 3.51161797755787e-05 125000 -359.704065513586 0 0 60 (C1) n - 1
REM
REM in /home/bkarasulu/CARBON/AIRSS/Generating-Clusters/EDIP-Nigel-Params/Higher-Symm/Box-15A/Only-C60/SD-CG/HFTN-CG
REM
REM
REM
REM
REM
REM ./C.cell (414f73aa93bd7a1190c7fd0f31ff2f98)
REM
REM compiler GCC version 9.2.1 20190827 (Red Hat 9.2.1-1)
REM options -cpp -mtune=generic -march=x86-64 -g -O0 -fpre-include=/usr/include/finclude/math-vector-fortran.h
REM seed 354230294 -1863042885 1423444825 220411544 -730770893 -1606895973 -1976415258 947338794 -1664549629 745852932 -1342099914 2139752040 -476407716 1507125710 -2100710764 1085879678 1971981180 -584250090 449382754 -1577964965 90471640 -1545603197 -1975967710 425882384 1287361878 610218600 1384567398 -712030089 -1233482909 -1038031149 -1468294553 -1077294934 203993693
REM
CELL 1.54180   50.00000   50.00000   50.00000   90.00000   90.00000   90.00000
LATT -1
SFAC C  
C      1  0.5283260000000  0.5123490000000  0.5611580000000 1.0
C      1  0.5649250000000  0.5215530000000  0.5136730000000 1.0
C      1  0.5053560000000  0.5721800000000  0.5326570000000 1.0
C      1  0.5273410000000  0.4855760000000  0.4342720000000 1.0
C      1  0.4759350000000  0.4889120000000  0.5672440000000 1.0
C      1  0.4648210000000  0.5073640000000  0.4284800000000 1.0
C      1  0.5661630000000  0.4731310000000  0.4854450000000 1.0
C      1  0.4380980000000  0.4709160000000  0.5134280000000 1.0
C      1  0.4295640000000  0.5301810000000  0.4953540000000 1.0
C      1  0.5155430000000  0.4364100000000  0.4743690000000 1.0
C      1  0.4872130000000  0.4356220000000  0.5212580000000 1.0
C      1  0.4920940000000  0.5687050000000  0.4703450000000 1.0
C      1  0.5231540000000  0.5630040000000  0.5147930000000 1.0
C      1  0.5752700000000  0.5040540000000  0.5313230000000 1.0
C      1  0.5110110000000  0.5317320000000  0.5672160000000 1.0
C      1  0.5335820000000  0.4258110000000  0.4912470000000 1.0
C      1  0.4744160000000  0.5620510000000  0.4894970000000 1.0
C      1  0.4694940000000  0.4267620000000  0.5029780000000 1.0
C      1  0.5701080000000  0.4928480000000  0.4676670000000 1.0
C      1  0.4362700000000  0.5130090000000  0.4759360000000 1.0
C      1  0.4332680000000  0.4902860000000  0.5311020000000 1.0
C      1  0.5074900000000  0.4682800000000  0.4268640000000 1.0
C      1  0.4835530000000  0.5239810000000  0.4382310000000 1.0
C      1  0.4941180000000  0.4691800000000  0.5681600000000 1.0
C      1  0.5484230000000  0.5272830000000  0.4922320000000 1.0
C      1  0.4806890000000  0.5586230000000  0.5384900000000 1.0
C      1  0.5305850000000  0.4904010000000  0.5445300000000 1.0
C      1  0.5529800000000  0.4669650000000  0.5089740000000 1.0
C      1  0.4513640000000  0.4687880000000  0.4893900000000 1.0
C      1  0.4426650000000  0.5377650000000  0.5197040000000 1.0
C      1  0.4932460000000  0.4523190000000  0.4701690000000 1.0
C      1  0.5095030000000  0.4517480000000  0.5249170000000 1.0
C      1  0.5153350000000  0.5522600000000  0.4661440000000 1.0
C      1  0.5259340000000  0.5054160000000  0.4544260000000 1.0
C      1  0.4696780000000  0.5120450000000  0.5533890000000 1.0
C      1  0.4642600000000  0.4837470000000  0.4450910000000 1.0
C      1  0.5573640000000  0.4815630000000  0.5345920000000 1.0
C      1  0.4857090000000  0.5355050000000  0.5567650000000 1.0
C      1  0.5280890000000  0.5471070000000  0.4927460000000 1.0
C      1  0.5521720000000  0.5152080000000  0.4652690000000 1.0
C      1  0.4502070000000  0.4898260000000  0.4705290000000 1.0
C      1  0.4458540000000  0.5139280000000  0.5376980000000 1.0
C      1  0.4935360000000  0.4750340000000  0.4513160000000 1.0
C      1  0.5068750000000  0.5267660000000  0.4528170000000 1.0
C      1  0.5169460000000  0.4644710000000  0.5512360000000 1.0
C      1  0.5363700000000  0.4426980000000  0.5145410000000 1.0
C      1  0.4696790000000  0.5481090000000  0.5130280000000 1.0
C      1  0.4661640000000  0.4445970000000  0.4804830000000 1.0
C      1  0.5618380000000  0.5367990000000  0.4468060000000 1.0
C      1  0.4594890000000  0.5763770000000  0.5496870000000 1.0
C      1  0.5360970000000  0.5644060000000  0.4483400000000 1.0
C      1  0.5400180000000  0.4466990000000  0.5617670000000 1.0
C      1  0.4355850000000  0.5672820000000  0.5602510000000 1.0
C      1  0.5653560000000  0.4606650000000  0.5546540000000 1.0
C      1  0.4291000000000  0.5598780000000  0.5343900000000 1.0
C      1  0.5634350000000  0.5638000000000  0.4529820000000 1.0
C      1  0.5487550000000  0.4299300000000  0.5387620000000 1.0
C      1  0.4508240000000  0.4328520000000  0.4576610000000 1.0
C      1  0.4498690000000  0.4607240000000  0.4323680000000 1.0
C      1  0.4588970000000  0.4345160000000  0.4311580000000 1.0
END
