TITL C-8694-7203-6 -5.58966299370719e-07 125000 -346.240025539255 0 0 60 (D2) n - 1
REM
REM in /home/bkarasulu/CARBON/AIRSS/Generating-Clusters/EDIP-Nigel-Params/Higher-Symm/Box-15A/Only-C60/SD-CG/HFTN-CG
REM
REM
REM
REM
REM
REM ./C.cell (414f73aa93bd7a1190c7fd0f31ff2f98)
REM
REM compiler GCC version 9.2.1 20190827 (Red Hat 9.2.1-1)
REM options -cpp -mtune=generic -march=x86-64 -g -O0 -fpre-include=/usr/include/finclude/math-vector-fortran.h
REM seed -1537164961 376422642 -1145335409 -1043904668 398674055 -1444360185 -1859410515 296123377 1446366961 1609490892 -988466982 1287883098 -1177775825 1001268743 -1338678892 689642324 -1425343404 413944280 19172465 -800132145 1983707611 -816980809 1773512122 -2081316493 -1601501332 -205772427 -168562350 -1435631948 -1700420619 1717043090 -1021674752 2027210352 -47209990
REM
CELL 1.54180   50.00000   50.00000   50.00000   90.00000   90.00000   90.00000
LATT -1
SFAC C  
C      1  0.5242400000000  0.5513390000000  0.5232970000000 1.0
C      1  0.4399270000000  0.5252110000000  0.5290650000000 1.0
C      1  0.4757580000000  0.4486670000000  0.5233080000000 1.0
C      1  0.5600700000000  0.4747960000000  0.5290770000000 1.0
C      1  0.4747640000000  0.5600550000000  0.4744950000000 1.0
C      1  0.5513250000000  0.5242630000000  0.4802720000000 1.0
C      1  0.5252390000000  0.4399370000000  0.4745140000000 1.0
C      1  0.4486770000000  0.4757310000000  0.4802730000000 1.0
C      1  0.4499610000000  0.5497060000000  0.4668090000000 1.0
C      1  0.4515300000000  0.4519330000000  0.4662590000000 1.0
C      1  0.5500420000000  0.4502840000000  0.4668270000000 1.0
C      1  0.5484740000000  0.5480570000000  0.4662510000000 1.0
C      1  0.5480360000000  0.5485010000000  0.5373160000000 1.0
C      1  0.5497340000000  0.4499890000000  0.5367660000000 1.0
C      1  0.4519610000000  0.4515090000000  0.5373240000000 1.0
C      1  0.4502620000000  0.5500210000000  0.5367480000000 1.0
C      1  0.5240860000000  0.4990460000000  0.4454320000000 1.0
C      1  0.4989800000000  0.5245650000000  0.4457400000000 1.0
C      1  0.4759190000000  0.5009390000000  0.4454290000000 1.0
C      1  0.5010250000000  0.4754200000000  0.4457470000000 1.0
C      1  0.4754240000000  0.5010180000000  0.5578300000000 1.0
C      1  0.4990390000000  0.5240900000000  0.5581410000000 1.0
C      1  0.5245700000000  0.4989970000000  0.5578330000000 1.0
C      1  0.5009560000000  0.4759250000000  0.5581480000000 1.0
C      1  0.4758850000000  0.4410990000000  0.4745620000000 1.0
C      1  0.5524820000000  0.4744670000000  0.4803480000000 1.0
C      1  0.5241180000000  0.5588940000000  0.4745490000000 1.0
C      1  0.4475200000000  0.5255270000000  0.4803360000000 1.0
C      1  0.5255550000000  0.4475350000000  0.5232410000000 1.0
C      1  0.4411130000000  0.4758580000000  0.5290200000000 1.0
C      1  0.4744430000000  0.5524710000000  0.5232250000000 1.0
C      1  0.5588840000000  0.5241490000000  0.5290190000000 1.0
C      1  0.5458890000000  0.4992050000000  0.4666810000000 1.0
C      1  0.4991100000000  0.5447910000000  0.4684090000000 1.0
C      1  0.4541140000000  0.5007850000000  0.4666770000000 1.0
C      1  0.5008930000000  0.4552000000000  0.4684210000000 1.0
C      1  0.4552020000000  0.5008740000000  0.5351580000000 1.0
C      1  0.4991860000000  0.5458920000000  0.5368900000000 1.0
C      1  0.5447950000000  0.4991350000000  0.5351630000000 1.0
C      1  0.5008110000000  0.4541170000000  0.5369020000000 1.0
C      1  0.4282470000000  0.4759590000000  0.5019560000000 1.0
C      1  0.5244200000000  0.4271050000000  0.5016070000000 1.0
C      1  0.5717530000000  0.5240410000000  0.5019560000000 1.0
C      1  0.4755800000000  0.5728950000000  0.5015860000000 1.0
C      1  0.5729080000000  0.4756160000000  0.5019850000000 1.0
C      1  0.4759950000000  0.4282350000000  0.5016270000000 1.0
C      1  0.4270920000000  0.5243840000000  0.5019720000000 1.0
C      1  0.5240050000000  0.5717650000000  0.5016110000000 1.0
C      1  0.5358450000000  0.4991960000000  0.4209070000000 1.0
C      1  0.4990280000000  0.5374280000000  0.4217540000000 1.0
C      1  0.4641630000000  0.5007830000000  0.4209040000000 1.0
C      1  0.5009790000000  0.4625510000000  0.4217640000000 1.0
C      1  0.4625570000000  0.5009670000000  0.5818150000000 1.0
C      1  0.4991850000000  0.5358510000000  0.5826650000000 1.0
C      1  0.5374350000000  0.4990540000000  0.5818180000000 1.0
C      1  0.5008070000000  0.4641700000000  0.5826740000000 1.0
C      1  0.4135220000000  0.4998390000000  0.4995380000000 1.0
C      1  0.4998820000000  0.4135230000000  0.5040450000000 1.0
C      1  0.5864780000000  0.5001600000000  0.4995460000000 1.0
C      1  0.5001170000000  0.5864780000000  0.5040220000000 1.0
END
