TITL C-8694-7203-167 -2.70882240611796e-07 125000 -374.022885840971 0 0 60 (C1) n - 1
REM
REM in /home/bkarasulu/CARBON/AIRSS/Generating-Clusters/EDIP-Nigel-Params/Higher-Symm/Box-15A/Only-C60/SD-CG/HFTN-CG
REM
REM
REM
REM
REM
REM ./C.cell (414f73aa93bd7a1190c7fd0f31ff2f98)
REM
REM compiler GCC version 9.2.1 20190827 (Red Hat 9.2.1-1)
REM options -cpp -mtune=generic -march=x86-64 -g -O0 -fpre-include=/usr/include/finclude/math-vector-fortran.h
REM seed 1548885281 -1249097847 118718565 -548447584 722260792 852185859 -1786480401 -2036264293 1534224328 1110484730 1677809270 -540584720 -1568331723 -15499771 -129042801 1951839662 -53302349 -1266299112 578831159 1920775916 -1063520194 -1041947395 -1394086123 2075833431 567423352 504082943 -1545829150 2042202616 -1525704381 -832966572 -176570589 -1973032792 1816831470
REM
CELL 1.54180   50.00000   50.00000   50.00000   90.00000   90.00000   90.00000
LATT -1
SFAC C  
C      1  0.5195100000000  0.4960370000000  0.5675440000000 1.0
C      1  0.5414650000000  0.4980710000000  0.4520200000000 1.0
C      1  0.4347450000000  0.4987790000000  0.4828310000000 1.0
C      1  0.5647600000000  0.4803430000000  0.4940230000000 1.0
C      1  0.4627730000000  0.4830040000000  0.4484580000000 1.0
C      1  0.4765040000000  0.4810260000000  0.5562970000000 1.0
C      1  0.5125070000000  0.4203400000000  0.5292850000000 1.0
C      1  0.5211670000000  0.4231410000000  0.4717680000000 1.0
C      1  0.4685500000000  0.4226910000000  0.4937380000000 1.0
C      1  0.5528490000000  0.5368680000000  0.5147130000000 1.0
C      1  0.4847710000000  0.5377520000000  0.4397260000000 1.0
C      1  0.4607020000000  0.5364570000000  0.5424550000000 1.0
C      1  0.5399260000000  0.4616480000000  0.5347970000000 1.0
C      1  0.5094420000000  0.4635030000000  0.4434810000000 1.0
C      1  0.4534630000000  0.4648060000000  0.5148460000000 1.0
C      1  0.5591740000000  0.5150290000000  0.5345750000000 1.0
C      1  0.4998220000000  0.5132110000000  0.4308210000000 1.0
C      1  0.4430360000000  0.5137770000000  0.5342340000000 1.0
C      1  0.5210600000000  0.4934240000000  0.4740630000000 1.0
C      1  0.4612280000000  0.5060370000000  0.5007220000000 1.0
C      1  0.5224310000000  0.5020520000000  0.5352880000000 1.0
C      1  0.4377280000000  0.5506680000000  0.5008670000000 1.0
C      1  0.5280200000000  0.5497510000000  0.5566070000000 1.0
C      1  0.5323620000000  0.5468690000000  0.4451830000000 1.0
C      1  0.5292910000000  0.5191860000000  0.4335410000000 1.0
C      1  0.4273170000000  0.5226550000000  0.5077840000000 1.0
C      1  0.5427730000000  0.5229060000000  0.5613950000000 1.0
C      1  0.4740180000000  0.5306170000000  0.4865330000000 1.0
C      1  0.5054190000000  0.5245190000000  0.5281640000000 1.0
C      1  0.5225780000000  0.5183610000000  0.4880790000000 1.0
C      1  0.5078750000000  0.5623920000000  0.5052870000000 1.0
C      1  0.5029730000000  0.5413320000000  0.4839050000000 1.0
C      1  0.4830130000000  0.5710590000000  0.5146530000000 1.0
C      1  0.4901120000000  0.5039650000000  0.5684990000000 1.0
C      1  0.5671630000000  0.5045540000000  0.4775030000000 1.0
C      1  0.4459400000000  0.5061780000000  0.4556470000000 1.0
C      1  0.4682360000000  0.4395750000000  0.5162740000000 1.0
C      1  0.5315420000000  0.4383790000000  0.5186050000000 1.0
C      1  0.5019620000000  0.4408130000000  0.4611100000000 1.0
C      1  0.4949630000000  0.4582290000000  0.5541410000000 1.0
C      1  0.5455770000000  0.4635050000000  0.4789340000000 1.0
C      1  0.4556280000000  0.4603760000000  0.4662260000000 1.0
C      1  0.4911480000000  0.4870450000000  0.4423870000000 1.0
C      1  0.4546120000000  0.4848690000000  0.5369750000000 1.0
C      1  0.5578840000000  0.4840930000000  0.5229840000000 1.0
C      1  0.4460210000000  0.5540050000000  0.4728940000000 1.0
C      1  0.5018370000000  0.5510220000000  0.5673360000000 1.0
C      1  0.5515590000000  0.5486900000000  0.4661310000000 1.0
C      1  0.5503870000000  0.5279430000000  0.4863470000000 1.0
C      1  0.4609840000000  0.5320370000000  0.4583920000000 1.0
C      1  0.4883450000000  0.5296150000000  0.5525040000000 1.0
C      1  0.5255790000000  0.5472870000000  0.5255850000000 1.0
C      1  0.5051150000000  0.5529970000000  0.4554840000000 1.0
C      1  0.4600900000000  0.5556380000000  0.5201790000000 1.0
C      1  0.5232580000000  0.4658290000000  0.5598520000000 1.0
C      1  0.5381080000000  0.4698510000000  0.4418720000000 1.0
C      1  0.4392370000000  0.4696690000000  0.4892280000000 1.0
C      1  0.5358030000000  0.4386640000000  0.4899980000000 1.0
C      1  0.4752860000000  0.4398050000000  0.4724390000000 1.0
C      1  0.4903700000000  0.4370600000000  0.5347890000000 1.0
END
