TITL C-8695-8180-173 3.41402941561234e-05 125000 -369.635663608685 0 0 60 (C1) n - 1
REM
REM in /home/bkarasulu/CARBON/AIRSS/Generating-Clusters/EDIP-Nigel-Params/Higher-Symm/Box-15A/Only-C60/SD-CG/HFTN-CG
REM
REM
REM
REM
REM
REM ./C.cell (414f73aa93bd7a1190c7fd0f31ff2f98)
REM
REM compiler GCC version 9.2.1 20190827 (Red Hat 9.2.1-1)
REM options -cpp -mtune=generic -march=x86-64 -g -O0 -fpre-include=/usr/include/finclude/math-vector-fortran.h
REM seed -2015898387 -1990999838 -1702693475 -1284972383 1613590486 -441519679 -543805368 1877186397 274434412 1784533592 -635458523 485968167 -910921591 1928138703 902687749 -1863088389 66666013 -636785049 270578159 965082462 -74860595 -1856042710 -720595778 459212724 -786891242 1103008270 1412278870 -545289870 -558785206 -1332473034 2023225523 1720454213 1728174285
REM
CELL 1.54180   50.00000   50.00000   50.00000   90.00000   90.00000   90.00000
LATT -1
SFAC C  
C      1  0.4363070000000  0.4685720000000  0.4855020000000 1.0
C      1  0.4689210000000  0.4838370000000  0.4354200000000 1.0
C      1  0.4853960000000  0.4342040000000  0.4703780000000 1.0
C      1  0.5549590000000  0.4748960000000  0.5101280000000 1.0
C      1  0.5626360000000  0.5357850000000  0.4873420000000 1.0
C      1  0.4612490000000  0.5309130000000  0.5127950000000 1.0
C      1  0.5344550000000  0.4870820000000  0.5679960000000 1.0
C      1  0.5359200000000  0.5199890000000  0.4487000000000 1.0
C      1  0.4767520000000  0.5095340000000  0.5570240000000 1.0
C      1  0.5137930000000  0.4558090000000  0.5323800000000 1.0
C      1  0.5153240000000  0.5638560000000  0.4654960000000 1.0
C      1  0.4886200000000  0.5673620000000  0.5361660000000 1.0
C      1  0.4425560000000  0.5292040000000  0.4906080000000 1.0
C      1  0.4734500000000  0.5086930000000  0.4510140000000 1.0
C      1  0.4870510000000  0.5747640000000  0.4634190000000 1.0
C      1  0.5520790000000  0.5352340000000  0.5148410000000 1.0
C      1  0.5686160000000  0.4676020000000  0.4850670000000 1.0
C      1  0.4522190000000  0.4732300000000  0.5104700000000 1.0
C      1  0.5337310000000  0.5136960000000  0.5549640000000 1.0
C      1  0.5313920000000  0.4959840000000  0.4339470000000 1.0
C      1  0.4674180000000  0.4856570000000  0.5719070000000 1.0
C      1  0.5171730000000  0.5598050000000  0.5417920000000 1.0
C      1  0.5098410000000  0.4507230000000  0.4759120000000 1.0
C      1  0.4910560000000  0.4380160000000  0.5300850000000 1.0
C      1  0.4439700000000  0.4761590000000  0.5585800000000 1.0
C      1  0.4730080000000  0.5563280000000  0.4450980000000 1.0
C      1  0.5582140000000  0.4429980000000  0.4752160000000 1.0
C      1  0.5506820000000  0.4764760000000  0.4415100000000 1.0
C      1  0.5564610000000  0.5165160000000  0.5368860000000 1.0
C      1  0.4463340000000  0.5155780000000  0.4627260000000 1.0
C      1  0.5170850000000  0.5371970000000  0.5616700000000 1.0
C      1  0.5148230000000  0.4650090000000  0.4496140000000 1.0
C      1  0.4744700000000  0.4421080000000  0.5537690000000 1.0
C      1  0.4629780000000  0.4449790000000  0.5167650000000 1.0
C      1  0.4474030000000  0.5534830000000  0.4732680000000 1.0
C      1  0.5362810000000  0.5587420000000  0.5193500000000 1.0
C      1  0.4563550000000  0.5150980000000  0.5367770000000 1.0
C      1  0.4773620000000  0.4366030000000  0.4430620000000 1.0
C      1  0.5520690000000  0.5614980000000  0.4775480000000 1.0
C      1  0.5534650000000  0.5132600000000  0.4705220000000 1.0
C      1  0.5592400000000  0.4770610000000  0.5575930000000 1.0
C      1  0.4416900000000  0.4752710000000  0.4378910000000 1.0
C      1  0.5128000000000  0.4683120000000  0.5587100000000 1.0
C      1  0.5133830000000  0.5365860000000  0.4547480000000 1.0
C      1  0.4753530000000  0.5566360000000  0.5591100000000 1.0
C      1  0.4782480000000  0.5550000000000  0.5106790000000 1.0
C      1  0.4377980000000  0.4412970000000  0.4769780000000 1.0
C      1  0.5378500000000  0.4521460000000  0.5166880000000 1.0
C      1  0.4882500000000  0.5319070000000  0.4412630000000 1.0
C      1  0.4885090000000  0.5334770000000  0.5694760000000 1.0
C      1  0.4886320000000  0.4614780000000  0.4354670000000 1.0
C      1  0.4862000000000  0.4626780000000  0.5712900000000 1.0
C      1  0.5339210000000  0.4400410000000  0.4899810000000 1.0
C      1  0.4423300000000  0.4893590000000  0.5332870000000 1.0
C      1  0.4619390000000  0.4325300000000  0.4889970000000 1.0
C      1  0.4690490000000  0.5704090000000  0.4869440000000 1.0
C      1  0.5352750000000  0.5751890000000  0.4962150000000 1.0
C      1  0.5662260000000  0.4875630000000  0.4636170000000 1.0
C      1  0.5674330000000  0.4890590000000  0.5328940000000 1.0
C      1  0.4339990000000  0.4875170000000  0.4624560000000 1.0
END
