TITL C-8693-7204-200 -8.37664854611816e-06 125000 -367.922750872665 0 0 60 (C1) n - 1
REM
REM in /home/bkarasulu/CARBON/AIRSS/Generating-Clusters/EDIP-Nigel-Params/Higher-Symm/Box-15A/Only-C60/SD-CG/HFTN-CG
REM
REM
REM
REM
REM
REM ./C.cell (414f73aa93bd7a1190c7fd0f31ff2f98)
REM
REM compiler GCC version 9.2.1 20190827 (Red Hat 9.2.1-1)
REM options -cpp -mtune=generic -march=x86-64 -g -O0 -fpre-include=/usr/include/finclude/math-vector-fortran.h
REM seed -986838811 -1036086912 -1180116423 1585884988 -346612817 346324587 -334474508 1137610614 -700285752 306059634 -1155228717 -952256032 2014739274 -1483064694 -1053639574 -352370833 -1664900260 1349538680 1846692747 -1696144855 -342401899 -950034362 -1190186802 -1243808796 1987174390 -4974146 1228566693 1281471104 1365927050 987610339 -1759665001 1786888093 1566729453
REM
CELL 1.54180   50.00000   50.00000   50.00000   90.00000   90.00000   90.00000
LATT -1
SFAC C  
C      1  0.5011140000000  0.5301380000000  0.4858420000000 1.0
C      1  0.4978080000000  0.5058570000000  0.4644240000000 1.0
C      1  0.5036190000000  0.4744060000000  0.4761740000000 1.0
C      1  0.4970930000000  0.4710940000000  0.5094420000000 1.0
C      1  0.5042640000000  0.4948960000000  0.5276150000000 1.0
C      1  0.4961410000000  0.5225330000000  0.5159100000000 1.0
C      1  0.5493520000000  0.4612090000000  0.4936280000000 1.0
C      1  0.4503040000000  0.4720810000000  0.5320580000000 1.0
C      1  0.5511740000000  0.5139320000000  0.5410920000000 1.0
C      1  0.4471040000000  0.5436500000000  0.5096540000000 1.0
C      1  0.5556220000000  0.5274690000000  0.4641660000000 1.0
C      1  0.4531350000000  0.4885450000000  0.4627790000000 1.0
C      1  0.5511380000000  0.5232640000000  0.4937280000000 1.0
C      1  0.4435840000000  0.5134640000000  0.4717410000000 1.0
C      1  0.5456540000000  0.4875910000000  0.4814350000000 1.0
C      1  0.4668870000000  0.4629450000000  0.5082750000000 1.0
C      1  0.5346100000000  0.4885890000000  0.5358730000000 1.0
C      1  0.4654810000000  0.5255560000000  0.5263850000000 1.0
C      1  0.4817670000000  0.4608960000000  0.4360760000000 1.0
C      1  0.5151370000000  0.4268650000000  0.5020060000000 1.0
C      1  0.4853410000000  0.4660490000000  0.5644580000000 1.0
C      1  0.5148880000000  0.5377710000000  0.5599250000000 1.0
C      1  0.4824970000000  0.5729370000000  0.4977240000000 1.0
C      1  0.5178330000000  0.5355240000000  0.4341050000000 1.0
C      1  0.4612650000000  0.5692980000000  0.5182730000000 1.0
C      1  0.5401140000000  0.5488410000000  0.4486070000000 1.0
C      1  0.4604670000000  0.4817110000000  0.4347450000000 1.0
C      1  0.5370410000000  0.4352770000000  0.4831190000000 1.0
C      1  0.4630200000000  0.4511820000000  0.5510880000000 1.0
C      1  0.5373460000000  0.5199070000000  0.5676210000000 1.0
C      1  0.4512450000000  0.5389000000000  0.4811690000000 1.0
C      1  0.5465280000000  0.5008860000000  0.4554380000000 1.0
C      1  0.4580660000000  0.4656700000000  0.4793890000000 1.0
C      1  0.5423880000000  0.4621240000000  0.5218050000000 1.0
C      1  0.4582260000000  0.4988480000000  0.5415340000000 1.0
C      1  0.5440540000000  0.5336070000000  0.5204110000000 1.0
C      1  0.4890760000000  0.5252670000000  0.5669990000000 1.0
C      1  0.5093990000000  0.5722970000000  0.5095120000000 1.0
C      1  0.4911300000000  0.5466830000000  0.4405110000000 1.0
C      1  0.5080890000000  0.4720320000000  0.4284570000000 1.0
C      1  0.4883030000000  0.4258030000000  0.4893750000000 1.0
C      1  0.5113900000000  0.4542720000000  0.5580110000000 1.0
C      1  0.5303170000000  0.4363140000000  0.4553460000000 1.0
C      1  0.4717690000000  0.4270110000000  0.5380130000000 1.0
C      1  0.5284620000000  0.4965040000000  0.5819230000000 1.0
C      1  0.4715100000000  0.5683700000000  0.5452140000000 1.0
C      1  0.5314310000000  0.5701060000000  0.4653970000000 1.0
C      1  0.4688390000000  0.5056870000000  0.4215380000000 1.0
C      1  0.5197740000000  0.5059270000000  0.4420100000000 1.0
C      1  0.4820520000000  0.4525330000000  0.4663770000000 1.0
C      1  0.5148480000000  0.4488500000000  0.5234360000000 1.0
C      1  0.4859240000000  0.4948150000000  0.5535010000000 1.0
C      1  0.5159340000000  0.5421540000000  0.5295920000000 1.0
C      1  0.4790550000000  0.5505640000000  0.4767430000000 1.0
C      1  0.5225420000000  0.5560510000000  0.4884310000000 1.0
C      1  0.4773030000000  0.5210190000000  0.4444900000000 1.0
C      1  0.5228600000000  0.4635750000000  0.4524880000000 1.0
C      1  0.4685880000000  0.4334890000000  0.5107220000000 1.0
C      1  0.5314880000000  0.4761670000000  0.5625930000000 1.0
C      1  0.4686120000000  0.5409950000000  0.5516040000000 1.0
END
