TITL C-8692-4986-160 2.14704813396606e-05 125000 -367.515333239248 0 0 60 (C1) n - 1
REM
REM in /home/bkarasulu/CARBON/AIRSS/Generating-Clusters/EDIP-Nigel-Params/Higher-Symm/Box-15A/Only-C60/SD-CG/HFTN-CG
REM
REM
REM
REM
REM
REM ./C.cell (414f73aa93bd7a1190c7fd0f31ff2f98)
REM
REM compiler GCC version 9.2.1 20190827 (Red Hat 9.2.1-1)
REM options -cpp -mtune=generic -march=x86-64 -g -O0 -fpre-include=/usr/include/finclude/math-vector-fortran.h
REM seed -1064882495 1100469521 -2062359081 1782604573 440891056 189501861 -1159529529 -758847015 1441993690 1654048382 118316516 4899638 -654079322 -1099297652 -2115881661 -1881277726 -606151378 1589764458 1339988145 -734349014 128293118 -568875310 -1838235254 -135767874 -274272137 -192915158 -1780447975 -402802823 92950682 340909380 -1793250275 -1302218781 -470252604
REM
CELL 1.54180   50.00000   50.00000   50.00000   90.00000   90.00000   90.00000
LATT -1
SFAC C  
C      1  0.4749190000000  0.4662330000000  0.4553870000000 1.0
C      1  0.5228520000000  0.4652530000000  0.5402900000000 1.0
C      1  0.4927020000000  0.5437850000000  0.4585440000000 1.0
C      1  0.5063090000000  0.5433210000000  0.5406950000000 1.0
C      1  0.4996040000000  0.4655210000000  0.5582260000000 1.0
C      1  0.4993590000000  0.4649460000000  0.4394050000000 1.0
C      1  0.5279360000000  0.5472750000000  0.5208820000000 1.0
C      1  0.4700860000000  0.5490920000000  0.4775720000000 1.0
C      1  0.5154680000000  0.5010730000000  0.4074670000000 1.0
C      1  0.4857860000000  0.5012670000000  0.5923410000000 1.0
C      1  0.5678040000000  0.5126850000000  0.4347720000000 1.0
C      1  0.4315790000000  0.5142710000000  0.5689350000000 1.0
C      1  0.5509540000000  0.5288980000000  0.5115820000000 1.0
C      1  0.4487860000000  0.5289730000000  0.4881110000000 1.0
C      1  0.4099360000000  0.4979610000000  0.5266040000000 1.0
C      1  0.5938670000000  0.5062330000000  0.4764590000000 1.0
C      1  0.4614880000000  0.5012400000000  0.4877970000000 1.0
C      1  0.5415310000000  0.4990990000000  0.5099160000000 1.0
C      1  0.4109710000000  0.4991680000000  0.4752680000000 1.0
C      1  0.5896040000000  0.5054170000000  0.5301410000000 1.0
C      1  0.4711640000000  0.4393090000000  0.5251730000000 1.0
C      1  0.5217580000000  0.4339540000000  0.4734020000000 1.0
C      1  0.4172320000000  0.4851840000000  0.5016140000000 1.0
C      1  0.5893600000000  0.4931050000000  0.5020030000000 1.0
C      1  0.5031080000000  0.4787460000000  0.4157470000000 1.0
C      1  0.4985160000000  0.4800950000000  0.5817380000000 1.0
C      1  0.4564700000000  0.5250040000000  0.5608520000000 1.0
C      1  0.5432580000000  0.5248800000000  0.4402120000000 1.0
C      1  0.5376040000000  0.4451340000000  0.4945220000000 1.0
C      1  0.4584460000000  0.4540120000000  0.5020580000000 1.0
C      1  0.5192570000000  0.5233940000000  0.4234950000000 1.0
C      1  0.4808450000000  0.5241300000000  0.5773400000000 1.0
C      1  0.4948000000000  0.4285400000000  0.4842740000000 1.0
C      1  0.4971820000000  0.4292720000000  0.5140120000000 1.0
C      1  0.4484820000000  0.4884920000000  0.5337360000000 1.0
C      1  0.5622250000000  0.4810260000000  0.4684340000000 1.0
C      1  0.5136740000000  0.5598870000000  0.4981040000000 1.0
C      1  0.4846830000000  0.5605410000000  0.5013040000000 1.0
C      1  0.4590620000000  0.4914810000000  0.4591340000000 1.0
C      1  0.5400180000000  0.4901120000000  0.5383750000000 1.0
C      1  0.4766880000000  0.4521830000000  0.5496270000000 1.0
C      1  0.5185950000000  0.4471210000000  0.4487660000000 1.0
C      1  0.5171540000000  0.5498980000000  0.4717690000000 1.0
C      1  0.4818230000000  0.5498410000000  0.5278090000000 1.0
C      1  0.5681200000000  0.4935160000000  0.5471840000000 1.0
C      1  0.4301280000000  0.4909230000000  0.4540610000000 1.0
C      1  0.5805690000000  0.4960540000000  0.4533060000000 1.0
C      1  0.4260570000000  0.4944870000000  0.5498330000000 1.0
C      1  0.5189250000000  0.4493840000000  0.5155080000000 1.0
C      1  0.4770770000000  0.4515400000000  0.4803010000000 1.0
C      1  0.5626210000000  0.4815470000000  0.4970050000000 1.0
C      1  0.4468080000000  0.4815470000000  0.5055860000000 1.0
C      1  0.5041890000000  0.5360420000000  0.5673830000000 1.0
C      1  0.4956050000000  0.5359950000000  0.4319750000000 1.0
C      1  0.5426660000000  0.5408700000000  0.4639310000000 1.0
C      1  0.4564610000000  0.5414950000000  0.5369670000000 1.0
C      1  0.4400000000000  0.5370600000000  0.5148350000000 1.0
C      1  0.5604480000000  0.5383610000000  0.4854770000000 1.0
C      1  0.5724670000000  0.5288790000000  0.5315010000000 1.0
C      1  0.4249140000000  0.5252460000000  0.4712560000000 1.0
END
