TITL C-8693-7204-276 2.07979554848956e-05 125000 -360.60527388622 0 0 60 (C1) n - 1
REM
REM in /home/bkarasulu/CARBON/AIRSS/Generating-Clusters/EDIP-Nigel-Params/Higher-Symm/Box-15A/Only-C60/SD-CG/HFTN-CG
REM
REM
REM
REM
REM
REM ./C.cell (414f73aa93bd7a1190c7fd0f31ff2f98)
REM
REM compiler GCC version 9.2.1 20190827 (Red Hat 9.2.1-1)
REM options -cpp -mtune=generic -march=x86-64 -g -O0 -fpre-include=/usr/include/finclude/math-vector-fortran.h
REM seed 656216469 -383338455 -22880905 770558469 -178727515 -2045006907 -1542004109 -1854152735 -681330651 1030766559 1456632613 -1133428009 -1401774425 -2023299504 970951023 685362704 -1844280723 396110772 1786329874 449991905 -611986881 1263271862 1775253573 -1893793908 1018552935 650394062 -64603277 -757587272 -219213047 -921452776 151133955 -360398381 724435948
REM
CELL 1.54180   50.00000   50.00000   50.00000   90.00000   90.00000   90.00000
LATT -1
SFAC C  
C      1  0.4729810000000  0.4901490000000  0.4933460000000 1.0
C      1  0.4761760000000  0.4995710000000  0.5228930000000 1.0
C      1  0.4697370000000  0.5149800000000  0.4767340000000 1.0
C      1  0.5533900000000  0.4718310000000  0.4638260000000 1.0
C      1  0.5591040000000  0.4779930000000  0.5468110000000 1.0
C      1  0.5557180000000  0.5497380000000  0.4947860000000 1.0
C      1  0.5119320000000  0.5557690000000  0.4561170000000 1.0
C      1  0.5127680000000  0.4343820000000  0.4709670000000 1.0
C      1  0.5146140000000  0.5108130000000  0.5710590000000 1.0
C      1  0.5114000000000  0.4999160000000  0.4656530000000 1.0
C      1  0.5138800000000  0.4598540000000  0.5253180000000 1.0
C      1  0.5203500000000  0.5280770000000  0.5175320000000 1.0
C      1  0.5529760000000  0.5188900000000  0.4557680000000 1.0
C      1  0.5576430000000  0.4475250000000  0.5086350000000 1.0
C      1  0.5627580000000  0.5289720000000  0.5385550000000 1.0
C      1  0.4488060000000  0.4927050000000  0.4385430000000 1.0
C      1  0.4588270000000  0.4606080000000  0.5336420000000 1.0
C      1  0.4578430000000  0.5535950000000  0.5133380000000 1.0
C      1  0.4886050000000  0.5351840000000  0.4875560000000 1.0
C      1  0.4986830000000  0.4773160000000  0.4804290000000 1.0
C      1  0.5023510000000  0.4865050000000  0.5358450000000 1.0
C      1  0.4948380000000  0.5369430000000  0.5309690000000 1.0
C      1  0.4880870000000  0.5110500000000  0.4488350000000 1.0
C      1  0.4950120000000  0.4358740000000  0.5275160000000 1.0
C      1  0.5162520000000  0.5233080000000  0.4865600000000 1.0
C      1  0.5196300000000  0.4685010000000  0.4981500000000 1.0
C      1  0.5258660000000  0.5029250000000  0.5289340000000 1.0
C      1  0.4681100000000  0.5311120000000  0.5600590000000 1.0
C      1  0.4630310000000  0.5476380000000  0.4454080000000 1.0
C      1  0.4711660000000  0.4284480000000  0.4978620000000 1.0
C      1  0.4392280000000  0.5078630000000  0.5295600000000 1.0
C      1  0.4411400000000  0.5267810000000  0.4735200000000 1.0
C      1  0.4488290000000  0.4739160000000  0.4872720000000 1.0
C      1  0.5374260000000  0.5397340000000  0.4717680000000 1.0
C      1  0.5399640000000  0.4530420000000  0.4839900000000 1.0
C      1  0.5457300000000  0.5052780000000  0.5497550000000 1.0
C      1  0.4500450000000  0.5548320000000  0.4812350000000 1.0
C      1  0.4418920000000  0.4744230000000  0.4597100000000 1.0
C      1  0.4472760000000  0.4849020000000  0.5439460000000 1.0
C      1  0.4540920000000  0.4511460000000  0.5060380000000 1.0
C      1  0.4511640000000  0.5331530000000  0.5358160000000 1.0
C      1  0.4413450000000  0.5226480000000  0.4434030000000 1.0
C      1  0.4884240000000  0.4641580000000  0.4348330000000 1.0
C      1  0.4896500000000  0.4593570000000  0.5714900000000 1.0
C      1  0.4971340000000  0.5785040000000  0.4989290000000 1.0
C      1  0.4985920000000  0.4208950000000  0.4927870000000 1.0
C      1  0.4976900000000  0.5341070000000  0.5621900000000 1.0
C      1  0.4920160000000  0.5396850000000  0.4388790000000 1.0
C      1  0.4936700000000  0.4553790000000  0.4610700000000 1.0
C      1  0.5001650000000  0.4850750000000  0.5650840000000 1.0
C      1  0.4885360000000  0.5627630000000  0.4763260000000 1.0
C      1  0.5720260000000  0.4706570000000  0.5208600000000 1.0
C      1  0.5742640000000  0.5309400000000  0.5101860000000 1.0
C      1  0.5679370000000  0.4972890000000  0.4703720000000 1.0
C      1  0.5423940000000  0.5476300000000  0.5229130000000 1.0
C      1  0.5359950000000  0.4935920000000  0.4490770000000 1.0
C      1  0.5418330000000  0.4524620000000  0.5363140000000 1.0
C      1  0.4772630000000  0.4898390000000  0.4304700000000 1.0
C      1  0.4772080000000  0.4451590000000  0.5501420000000 1.0
C      1  0.4845360000000  0.5646200000000  0.5204210000000 1.0
END
