TITL C-8692-4986-242 -2.26443202320738e-06 125000 -359.852045771294 0 0 60 (C1) n - 1
REM
REM in /home/bkarasulu/CARBON/AIRSS/Generating-Clusters/EDIP-Nigel-Params/Higher-Symm/Box-15A/Only-C60/SD-CG/HFTN-CG
REM
REM
REM
REM
REM
REM ./C.cell (414f73aa93bd7a1190c7fd0f31ff2f98)
REM
REM compiler GCC version 9.2.1 20190827 (Red Hat 9.2.1-1)
REM options -cpp -mtune=generic -march=x86-64 -g -O0 -fpre-include=/usr/include/finclude/math-vector-fortran.h
REM seed -2086380447 -1727518096 1269702407 -1421635774 932918934 1883291289 1998818608 -26690131 1503135808 1863312945 -102263626 -1416208223 1458779643 182178362 -165182955 258571260 1813164223 -1754908685 925379462 -859931419 1343590188 362224659 184446113 -1093503209 -1202222765 -1315744512 1463707594 -1178638520 -875221725 -235533614 -897695805 -112257345 -372019989
REM
CELL 1.54180   50.00000   50.00000   50.00000   90.00000   90.00000   90.00000
LATT -1
SFAC C  
C      1  0.4741750000000  0.5408350000000  0.5418320000000 1.0
C      1  0.5435260000000  0.4818590000000  0.5538270000000 1.0
C      1  0.4690550000000  0.4618020000000  0.5503380000000 1.0
C      1  0.4827270000000  0.4530980000000  0.4534700000000 1.0
C      1  0.5478740000000  0.5168060000000  0.4504200000000 1.0
C      1  0.4617520000000  0.5272950000000  0.4471290000000 1.0
C      1  0.5037450000000  0.4645560000000  0.4380140000000 1.0
C      1  0.4789950000000  0.5086120000000  0.4342250000000 1.0
C      1  0.5276350000000  0.5075570000000  0.4329240000000 1.0
C      1  0.4963290000000  0.5330570000000  0.5614630000000 1.0
C      1  0.4685400000000  0.4865140000000  0.5647650000000 1.0
C      1  0.5191000000000  0.4880450000000  0.5669280000000 1.0
C      1  0.4660690000000  0.4705270000000  0.5233700000000 1.0
C      1  0.4923090000000  0.5488150000000  0.5193080000000 1.0
C      1  0.5441850000000  0.4951020000000  0.5252170000000 1.0
C      1  0.4749140000000  0.5346660000000  0.4746690000000 1.0
C      1  0.4861710000000  0.4524370000000  0.4814490000000 1.0
C      1  0.5433110000000  0.5030560000000  0.4768110000000 1.0
C      1  0.4451710000000  0.5027970000000  0.5559420000000 1.0
C      1  0.5228330000000  0.5472860000000  0.5519460000000 1.0
C      1  0.5449420000000  0.4542600000000  0.5420150000000 1.0
C      1  0.4377970000000  0.5152530000000  0.4617740000000 1.0
C      1  0.5298510000000  0.4555350000000  0.4488200000000 1.0
C      1  0.5421460000000  0.5449970000000  0.4590400000000 1.0
C      1  0.5608270000000  0.4545740000000  0.5183850000000 1.0
C      1  0.4231210000000  0.4883160000000  0.5445400000000 1.0
C      1  0.5136220000000  0.5680390000000  0.5303380000000 1.0
C      1  0.5529790000000  0.5537560000000  0.4857490000000 1.0
C      1  0.4332910000000  0.5298020000000  0.4859530000000 1.0
C      1  0.5291520000000  0.4287070000000  0.4593220000000 1.0
C      1  0.5118950000000  0.5440680000000  0.4655480000000 1.0
C      1  0.5364520000000  0.4708450000000  0.4743020000000 1.0
C      1  0.4487300000000  0.4897430000000  0.4745240000000 1.0
C      1  0.5184250000000  0.4483090000000  0.5296550000000 1.0
C      1  0.5364320000000  0.5296990000000  0.5287350000000 1.0
C      1  0.4555810000000  0.5187740000000  0.5330320000000 1.0
C      1  0.5218990000000  0.4288580000000  0.5089690000000 1.0
C      1  0.4313020000000  0.5239240000000  0.5136390000000 1.0
C      1  0.5597210000000  0.5357990000000  0.5080840000000 1.0
C      1  0.5064360000000  0.5692890000000  0.4822210000000 1.0
C      1  0.4319770000000  0.4784060000000  0.4960670000000 1.0
C      1  0.5553260000000  0.4520000000000  0.4907260000000 1.0
C      1  0.4726780000000  0.4988310000000  0.5178770000000 1.0
C      1  0.5109370000000  0.5245000000000  0.5135800000000 1.0
C      1  0.5157450000000  0.4765620000000  0.5168160000000 1.0
C      1  0.4722010000000  0.5046820000000  0.4878760000000 1.0
C      1  0.5087710000000  0.4723110000000  0.4875700000000 1.0
C      1  0.5164260000000  0.5183310000000  0.4838560000000 1.0
C      1  0.4205840000000  0.4961180000000  0.5169200000000 1.0
C      1  0.5389910000000  0.4278460000000  0.4861660000000 1.0
C      1  0.5265840000000  0.5733900000000  0.5038010000000 1.0
C      1  0.5616540000000  0.5071670000000  0.5000100000000 1.0
C      1  0.4807550000000  0.5587130000000  0.4932470000000 1.0
C      1  0.4628500000000  0.4549450000000  0.4989460000000 1.0
C      1  0.5021810000000  0.4911410000000  0.3990670000000 1.0
C      1  0.4958420000000  0.5040960000000  0.5996010000000 1.0
C      1  0.4949580000000  0.5027160000000  0.5726940000000 1.0
C      1  0.5029520000000  0.4934620000000  0.4262010000000 1.0
C      1  0.5000110000000  0.5002790000000  0.5260760000000 1.0
C      1  0.4979580000000  0.4971940000000  0.4771870000000 1.0
END
