TITL C-8694-7203-241 2.78853209355827e-05 125000 -351.854654927803 0 0 60 (C1) n - 1
REM
REM in /home/bkarasulu/CARBON/AIRSS/Generating-Clusters/EDIP-Nigel-Params/Higher-Symm/Box-15A/Only-C60/SD-CG/HFTN-CG
REM
REM
REM
REM
REM
REM ./C.cell (414f73aa93bd7a1190c7fd0f31ff2f98)
REM
REM compiler GCC version 9.2.1 20190827 (Red Hat 9.2.1-1)
REM options -cpp -mtune=generic -march=x86-64 -g -O0 -fpre-include=/usr/include/finclude/math-vector-fortran.h
REM seed -751950058 16715954 1738649316 -256715781 -1818436105 -1303945506 1897996249 -762750435 -1320202016 -1986262299 1058040031 -799603854 1439862178 1460491522 -1136262352 177503166 1924641338 -1192297642 212623204 -508057664 1237106140 -1444929925 781539527 544938923 -1676467814 -1537661775 -2127593913 480697375 -1947286903 1883528790 335530861 -1042106289 -1022493971
REM
CELL 1.54180   50.00000   50.00000   50.00000   90.00000   90.00000   90.00000
LATT -1
SFAC C  
C      1  0.4667730000000  0.5406090000000  0.4532430000000 1.0
C      1  0.4612460000000  0.4665380000000  0.4529250000000 1.0
C      1  0.5339820000000  0.4607880000000  0.4537230000000 1.0
C      1  0.5388670000000  0.5328370000000  0.4531260000000 1.0
C      1  0.5345450000000  0.5383100000000  0.5496090000000 1.0
C      1  0.5391450000000  0.4651030000000  0.5510860000000 1.0
C      1  0.4658190000000  0.4626520000000  0.5509430000000 1.0
C      1  0.4621150000000  0.5375080000000  0.5510030000000 1.0
C      1  0.5288110000000  0.5539800000000  0.5238880000000 1.0
C      1  0.4460870000000  0.5336350000000  0.5259680000000 1.0
C      1  0.4718290000000  0.4462780000000  0.5250390000000 1.0
C      1  0.5542350000000  0.4707490000000  0.5245980000000 1.0
C      1  0.4685030000000  0.5466180000000  0.4839050000000 1.0
C      1  0.5435170000000  0.5301030000000  0.4829000000000 1.0
C      1  0.5319370000000  0.4553580000000  0.4838290000000 1.0
C      1  0.4561590000000  0.4687730000000  0.4831340000000 1.0
C      1  0.4901560000000  0.5464250000000  0.5462130000000 1.0
C      1  0.4539920000000  0.4898330000000  0.5460120000000 1.0
C      1  0.5115960000000  0.4534220000000  0.5475640000000 1.0
C      1  0.5450010000000  0.5107760000000  0.5451160000000 1.0
C      1  0.5156150000000  0.5509320000000  0.4502660000000 1.0
C      1  0.5506290000000  0.4849930000000  0.4502460000000 1.0
C      1  0.4853550000000  0.4494150000000  0.4508280000000 1.0
C      1  0.4519840000000  0.5150450000000  0.4522440000000 1.0
C      1  0.5164700000000  0.5166750000000  0.4877480000000 1.0
C      1  0.4776210000000  0.5165940000000  0.4884700000000 1.0
C      1  0.4826030000000  0.4831850000000  0.4878300000000 1.0
C      1  0.5207240000000  0.4838700000000  0.4890730000000 1.0
C      1  0.4793950000000  0.5136240000000  0.5191670000000 1.0
C      1  0.5113290000000  0.5195750000000  0.5182760000000 1.0
C      1  0.5186540000000  0.4864280000000  0.5195600000000 1.0
C      1  0.4872920000000  0.4813830000000  0.5184780000000 1.0
C      1  0.5013240000000  0.4398860000000  0.5221140000000 1.0
C      1  0.5603230000000  0.5004540000000  0.5207510000000 1.0
C      1  0.4996840000000  0.5617510000000  0.5214800000000 1.0
C      1  0.4387090000000  0.4961270000000  0.5214670000000 1.0
C      1  0.4896170000000  0.4341660000000  0.4741240000000 1.0
C      1  0.4361610000000  0.5102410000000  0.4748070000000 1.0
C      1  0.5116520000000  0.5664840000000  0.4733960000000 1.0
C      1  0.5675390000000  0.4900250000000  0.4722060000000 1.0
C      1  0.5107460000000  0.5406710000000  0.5651430000000 1.0
C      1  0.4589200000000  0.5119780000000  0.5634570000000 1.0
C      1  0.4904550000000  0.4609140000000  0.5653830000000 1.0
C      1  0.5402270000000  0.4903600000000  0.5645530000000 1.0
C      1  0.4914010000000  0.5415410000000  0.4394090000000 1.0
C      1  0.5393960000000  0.5083400000000  0.4389830000000 1.0
C      1  0.5092340000000  0.4598740000000  0.4401120000000 1.0
C      1  0.4619210000000  0.4916920000000  0.4398530000000 1.0
C      1  0.4914510000000  0.5635750000000  0.4927090000000 1.0
C      1  0.4366460000000  0.4891840000000  0.4930920000000 1.0
C      1  0.5099050000000  0.4371980000000  0.4933280000000 1.0
C      1  0.5632620000000  0.5094480000000  0.4920480000000 1.0
C      1  0.4547190000000  0.4438280000000  0.5001310000000 1.0
C      1  0.5563130000000  0.4518800000000  0.5011060000000 1.0
C      1  0.5461780000000  0.5552460000000  0.4992400000000 1.0
C      1  0.4452320000000  0.5516820000000  0.5024420000000 1.0
C      1  0.5640140000000  0.4269990000000  0.5062330000000 1.0
C      1  0.4304970000000  0.4334110000000  0.5034940000000 1.0
C      1  0.4215760000000  0.5566980000000  0.4916170000000 1.0
C      1  0.5709110000000  0.5643310000000  0.5027460000000 1.0
END
