TITL C-8698-8182-5 -2.78459314071477e-05 125000 -360.873149637534 0 0 60 (C1) n - 1
REM
REM in /home/bkarasulu/CARBON/AIRSS/Generating-Clusters/EDIP-Nigel-Params/Higher-Symm/Box-15A/Only-C60/SD-CG/HFTN-CG
REM
REM
REM
REM
REM
REM ./C.cell (414f73aa93bd7a1190c7fd0f31ff2f98)
REM
REM compiler GCC version 9.2.1 20190827 (Red Hat 9.2.1-1)
REM options -cpp -mtune=generic -march=x86-64 -g -O0 -fpre-include=/usr/include/finclude/math-vector-fortran.h
REM seed -250390204 1291101398 495485882 1192778662 251257620 264796614 -477371448 1072704064 957772190 1034380320 1622515630 1851590571 -1812531689 231891758 1070088231 646715361 352993651 891939668 131038145 663370438 -1295416086 -286148332 -1898920956 -1395300562 821271638 -289269700 -2012050457 -1101675481 -2036935840 1868480828 1027867249 506575020 420824341
REM
CELL 1.54180   50.00000   50.00000   50.00000   90.00000   90.00000   90.00000
LATT -1
SFAC C  
C      1  0.4772680000000  0.4842160000000  0.5112020000000 1.0
C      1  0.5299780000000  0.4841970000000  0.5069240000000 1.0
C      1  0.5039330000000  0.5266190000000  0.5196670000000 1.0
C      1  0.4769370000000  0.5149320000000  0.5109060000000 1.0
C      1  0.5296050000000  0.5153930000000  0.5070990000000 1.0
C      1  0.5045830000000  0.4726910000000  0.5199580000000 1.0
C      1  0.4763630000000  0.4279410000000  0.5237160000000 1.0
C      1  0.5714590000000  0.5139510000000  0.5209680000000 1.0
C      1  0.4542160000000  0.5528900000000  0.5132380000000 1.0
C      1  0.4762620000000  0.5713910000000  0.5198180000000 1.0
C      1  0.5718750000000  0.4850480000000  0.5207240000000 1.0
C      1  0.4546620000000  0.4470160000000  0.5197330000000 1.0
C      1  0.4415910000000  0.4708660000000  0.5322960000000 1.0
C      1  0.5524590000000  0.4655850000000  0.5330360000000 1.0
C      1  0.5017800000000  0.5626450000000  0.5347350000000 1.0
C      1  0.4412470000000  0.5311760000000  0.5289500000000 1.0
C      1  0.5519550000000  0.5331210000000  0.5339540000000 1.0
C      1  0.5034450000000  0.4366220000000  0.5349780000000 1.0
C      1  0.4833260000000  0.5880400000000  0.4977310000000 1.0
C      1  0.4530970000000  0.4468760000000  0.4900220000000 1.0
C      1  0.5756590000000  0.4805910000000  0.4920740000000 1.0
C      1  0.4795950000000  0.4191060000000  0.4955990000000 1.0
C      1  0.4428200000000  0.5536950000000  0.4867410000000 1.0
C      1  0.5755100000000  0.5190220000000  0.4924800000000 1.0
C      1  0.5216640000000  0.5667660000000  0.5134340000000 1.0
C      1  0.4259930000000  0.4838300000000  0.5105580000000 1.0
C      1  0.5478580000000  0.4446640000000  0.5122140000000 1.0
C      1  0.5215130000000  0.4326530000000  0.5120610000000 1.0
C      1  0.4288430000000  0.5140540000000  0.5082450000000 1.0
C      1  0.5478420000000  0.5545210000000  0.5137190000000 1.0
C      1  0.5359820000000  0.4618820000000  0.4460010000000 1.0
C      1  0.5093070000000  0.5522550000000  0.4527550000000 1.0
C      1  0.4549280000000  0.4844830000000  0.4602270000000 1.0
C      1  0.5355000000000  0.5391220000000  0.4474550000000 1.0
C      1  0.5095090000000  0.4493960000000  0.4510170000000 1.0
C      1  0.4544270000000  0.5131470000000  0.4595010000000 1.0
C      1  0.5585840000000  0.4570210000000  0.4879320000000 1.0
C      1  0.5108810000000  0.5834660000000  0.4925650000000 1.0
C      1  0.4259360000000  0.4643070000000  0.4870800000000 1.0
C      1  0.5585890000000  0.5427780000000  0.4890910000000 1.0
C      1  0.5084320000000  0.4186140000000  0.4901970000000 1.0
C      1  0.4231860000000  0.5317130000000  0.4850020000000 1.0
C      1  0.4251860000000  0.5171960000000  0.4601220000000 1.0
C      1  0.5195440000000  0.4247920000000  0.4637420000000 1.0
C      1  0.5519690000000  0.5558580000000  0.4641650000000 1.0
C      1  0.4262670000000  0.4790110000000  0.4620160000000 1.0
C      1  0.5204260000000  0.5766050000000  0.4656400000000 1.0
C      1  0.5518760000000  0.4446390000000  0.4627420000000 1.0
C      1  0.4601550000000  0.4883300000000  0.5455040000000 1.0
C      1  0.5357080000000  0.4675540000000  0.5567000000000 1.0
C      1  0.5075070000000  0.5349290000000  0.5488060000000 1.0
C      1  0.4592380000000  0.5165490000000  0.5453020000000 1.0
C      1  0.5341140000000  0.5314080000000  0.5568680000000 1.0
C      1  0.5090370000000  0.4641300000000  0.5489880000000 1.0
C      1  0.4713960000000  0.4715100000000  0.4819110000000 1.0
C      1  0.5258700000000  0.4835180000000  0.4744270000000 1.0
C      1  0.4984070000000  0.5319260000000  0.4709970000000 1.0
C      1  0.4700090000000  0.5277550000000  0.4815280000000 1.0
C      1  0.5253840000000  0.5171180000000  0.4747640000000 1.0
C      1  0.4993090000000  0.4688720000000  0.4701730000000 1.0
END
