TITL C-8697-8172-38 6.46195890517503e-07 125000 -363.50890675382 0 0 60 (C2) n - 1
REM
REM in /home/bkarasulu/CARBON/AIRSS/Generating-Clusters/EDIP-Nigel-Params/Higher-Symm/Box-15A/Only-C60/SD-CG/HFTN-CG
REM
REM
REM
REM
REM
REM ./C.cell (414f73aa93bd7a1190c7fd0f31ff2f98)
REM
REM compiler GCC version 9.2.1 20190827 (Red Hat 9.2.1-1)
REM options -cpp -mtune=generic -march=x86-64 -g -O0 -fpre-include=/usr/include/finclude/math-vector-fortran.h
REM seed -1430949306 -2014583478 1167659244 -649936177 1663335754 1947330003 678264698 -807460888 1771234802 -1924573565 1875291904 602790114 -465054561 -445843981 1584134536 -659184226 -185267697 -1629625909 -1933544578 -589754682 789817214 153674537 1162240985 37457457 -638076953 278390059 -1573982833 -322328933 71309439 -1003277800 1057530599 -1741519407 -1209574428
REM
CELL 1.54180   50.00000   50.00000   50.00000   90.00000   90.00000   90.00000
LATT -1
SFAC C  
C      1  0.4871020000000  0.4664880000000  0.4508500000000 1.0
C      1  0.4656790000000  0.5169930000000  0.4485390000000 1.0
C      1  0.5132550000000  0.5333270000000  0.4508170000000 1.0
C      1  0.5346940000000  0.4828130000000  0.4488650000000 1.0
C      1  0.5141330000000  0.4624180000000  0.4395450000000 1.0
C      1  0.5347940000000  0.5133330000000  0.4428180000000 1.0
C      1  0.4863100000000  0.5373520000000  0.4392940000000 1.0
C      1  0.4656240000000  0.4864500000000  0.4426100000000 1.0
C      1  0.5369040000000  0.5708640000000  0.5105550000000 1.0
C      1  0.5723850000000  0.4630650000000  0.5133060000000 1.0
C      1  0.4630040000000  0.4291840000000  0.5105550000000 1.0
C      1  0.4275040000000  0.5369920000000  0.5126160000000 1.0
C      1  0.4691510000000  0.5705410000000  0.5035970000000 1.0
C      1  0.4250260000000  0.4693700000000  0.5075600000000 1.0
C      1  0.5308070000000  0.4294810000000  0.5041050000000 1.0
C      1  0.5749020000000  0.5306670000000  0.5080030000000 1.0
C      1  0.4407530000000  0.4685100000000  0.5307930000000 1.0
C      1  0.4682140000000  0.5586000000000  0.5289630000000 1.0
C      1  0.5590020000000  0.5316180000000  0.5311140000000 1.0
C      1  0.5315540000000  0.4415210000000  0.5294300000000 1.0
C      1  0.5520510000000  0.4617610000000  0.5330670000000 1.0
C      1  0.5378240000000  0.5515230000000  0.5311500000000 1.0
C      1  0.4476900000000  0.5383740000000  0.5325250000000 1.0
C      1  0.4619290000000  0.4486050000000  0.5310650000000 1.0
C      1  0.5590060000000  0.5324740000000  0.4847760000000 1.0
C      1  0.5310870000000  0.4440370000000  0.4799640000000 1.0
C      1  0.4410970000000  0.4674730000000  0.4844600000000 1.0
C      1  0.4690530000000  0.5558900000000  0.4795120000000 1.0
C      1  0.4368520000000  0.5171670000000  0.4951570000000 1.0
C      1  0.4826790000000  0.4387960000000  0.4929060000000 1.0
C      1  0.5631690000000  0.4828210000000  0.4956990000000 1.0
C      1  0.5173620000000  0.5611830000000  0.4927970000000 1.0
C      1  0.4908810000000  0.4673510000000  0.4974870000000 1.0
C      1  0.4653380000000  0.5097230000000  0.4987480000000 1.0
C      1  0.5091260000000  0.5326460000000  0.4974280000000 1.0
C      1  0.5346580000000  0.4902790000000  0.4990470000000 1.0
C      1  0.5180570000000  0.4713090000000  0.4821730000000 1.0
C      1  0.5324530000000  0.5166660000000  0.4856550000000 1.0
C      1  0.4820660000000  0.5286270000000  0.4819260000000 1.0
C      1  0.4676430000000  0.4832840000000  0.4854760000000 1.0
C      1  0.4820520000000  0.4391920000000  0.4629560000000 1.0
C      1  0.4315780000000  0.5129390000000  0.4668190000000 1.0
C      1  0.5182140000000  0.5606700000000  0.4628540000000 1.0
C      1  0.5686570000000  0.4869390000000  0.4673860000000 1.0
C      1  0.5186710000000  0.4361700000000  0.4545100000000 1.0
C      1  0.5622680000000  0.5151570000000  0.4589800000000 1.0
C      1  0.4816600000000  0.5636580000000  0.4541210000000 1.0
C      1  0.4380290000000  0.4846880000000  0.4585720000000 1.0
C      1  0.5575310000000  0.5091420000000  0.5475980000000 1.0
C      1  0.5088040000000  0.4417190000000  0.5453750000000 1.0
C      1  0.4420990000000  0.4910500000000  0.5471990000000 1.0
C      1  0.4908430000000  0.5584640000000  0.5450790000000 1.0
C      1  0.4508550000000  0.5169310000000  0.5519060000000 1.0
C      1  0.4832500000000  0.4507650000000  0.5504310000000 1.0
C      1  0.5487400000000  0.4832800000000  0.5523400000000 1.0
C      1  0.5163580000000  0.5494390000000  0.5503630000000 1.0
C      1  0.4941930000000  0.4784130000000  0.5263090000000 1.0
C      1  0.4777210000000  0.5063460000000  0.5268070000000 1.0
C      1  0.5220640000000  0.4937660000000  0.5269980000000 1.0
C      1  0.5055970000000  0.5216970000000  0.5262670000000 1.0
END
