TITL C-8691-6797-238 -2.51139207626097e-06 125000 -364.0204579719 0 0 60 (C1) n - 1
REM
REM in /home/bkarasulu/CARBON/AIRSS/Generating-Clusters/EDIP-Nigel-Params/Higher-Symm/Box-15A/Only-C60/SD-CG/HFTN-CG
REM
REM
REM
REM
REM
REM ./C.cell (414f73aa93bd7a1190c7fd0f31ff2f98)
REM
REM compiler GCC version 9.2.1 20190827 (Red Hat 9.2.1-1)
REM options -cpp -mtune=generic -march=x86-64 -g -O0 -fpre-include=/usr/include/finclude/math-vector-fortran.h
REM seed 622018063 166559284 -1167993337 661599649 1591758390 -1063553306 -1951851516 -1202578808 -54408788 1302451861 842331409 1474529560 680542215 -905843234 -548255961 1467291568 -1269510084 1704678046 426972902 -661313955 -247389688 2093507423 -1281413920 1322523474 -1855360937 1954806874 833340162 -1604617393 336573453 -274260605 -1340592970 -1381837527 2006034200
REM
CELL 1.54180   50.00000   50.00000   50.00000   90.00000   90.00000   90.00000
LATT -1
SFAC C  
C      1  0.5016080000000  0.4297050000000  0.5168960000000 1.0
C      1  0.4476710000000  0.5048810000000  0.4877900000000 1.0
C      1  0.5328420000000  0.4492060000000  0.5517740000000 1.0
C      1  0.5673800000000  0.4835920000000  0.5328280000000 1.0
C      1  0.5285900000000  0.5434630000000  0.5012270000000 1.0
C      1  0.4509980000000  0.5537990000000  0.5411490000000 1.0
C      1  0.4552860000000  0.4647250000000  0.5185660000000 1.0
C      1  0.5558880000000  0.5109500000000  0.5202770000000 1.0
C      1  0.5433570000000  0.5398560000000  0.5280950000000 1.0
C      1  0.4680220000000  0.4916660000000  0.4436520000000 1.0
C      1  0.4994310000000  0.5284980000000  0.4299700000000 1.0
C      1  0.5218050000000  0.4839930000000  0.4909630000000 1.0
C      1  0.5527620000000  0.4799050000000  0.4601180000000 1.0
C      1  0.5214100000000  0.4912020000000  0.5426890000000 1.0
C      1  0.4244190000000  0.4909780000000  0.4823380000000 1.0
C      1  0.4711150000000  0.4612780000000  0.4449570000000 1.0
C      1  0.4926040000000  0.4998930000000  0.4285940000000 1.0
C      1  0.4820750000000  0.5175840000000  0.5516170000000 1.0
C      1  0.4789590000000  0.5092680000000  0.5224620000000 1.0
C      1  0.4999290000000  0.4691430000000  0.5459120000000 1.0
C      1  0.4501340000000  0.5128010000000  0.5160240000000 1.0
C      1  0.4875710000000  0.4789760000000  0.5727380000000 1.0
C      1  0.4548310000000  0.5276100000000  0.4481760000000 1.0
C      1  0.4666610000000  0.4978770000000  0.5674490000000 1.0
C      1  0.5702250000000  0.4855410000000  0.4830060000000 1.0
C      1  0.5456420000000  0.4759650000000  0.5530990000000 1.0
C      1  0.4972110000000  0.5282040000000  0.5006140000000 1.0
C      1  0.4736500000000  0.4941140000000  0.4745200000000 1.0
C      1  0.5209480000000  0.5719030000000  0.4996720000000 1.0
C      1  0.5407880000000  0.4522420000000  0.5035980000000 1.0
C      1  0.5318620000000  0.4595440000000  0.4555990000000 1.0
C      1  0.5670760000000  0.5138800000000  0.4929250000000 1.0
C      1  0.5271350000000  0.5009910000000  0.5151390000000 1.0
C      1  0.5262890000000  0.5345030000000  0.4338300000000 1.0
C      1  0.5209410000000  0.5015960000000  0.4624820000000 1.0
C      1  0.4997320000000  0.4411430000000  0.4905840000000 1.0
C      1  0.5672140000000  0.4667880000000  0.5070800000000 1.0
C      1  0.4480890000000  0.4501130000000  0.4941890000000 1.0
C      1  0.5117610000000  0.5141000000000  0.5605540000000 1.0
C      1  0.5231900000000  0.5420980000000  0.5498480000000 1.0
C      1  0.4385450000000  0.5278560000000  0.4726510000000 1.0
C      1  0.5066170000000  0.4972540000000  0.5854290000000 1.0
C      1  0.4988420000000  0.5589320000000  0.5414370000000 1.0
C      1  0.5466380000000  0.5280300000000  0.4508890000000 1.0
C      1  0.5122880000000  0.4792590000000  0.4281640000000 1.0
C      1  0.5264610000000  0.4398220000000  0.5258830000000 1.0
C      1  0.4391100000000  0.5401130000000  0.5197740000000 1.0
C      1  0.4242270000000  0.4661630000000  0.4950910000000 1.0
C      1  0.4955270000000  0.5703230000000  0.5129880000000 1.0
C      1  0.5276510000000  0.4419000000000  0.4786240000000 1.0
C      1  0.4940620000000  0.4715460000000  0.4932020000000 1.0
C      1  0.4623230000000  0.4512510000000  0.4696790000000 1.0
C      1  0.4821270000000  0.5359000000000  0.4523450000000 1.0
C      1  0.4747370000000  0.5467920000000  0.5537280000000 1.0
C      1  0.4820430000000  0.4776700000000  0.5206480000000 1.0
C      1  0.4939510000000  0.5164590000000  0.4726030000000 1.0
C      1  0.4748770000000  0.5588270000000  0.4949240000000 1.0
C      1  0.4464380000000  0.5506150000000  0.4929530000000 1.0
C      1  0.4983960000000  0.4557590000000  0.4367540000000 1.0
C      1  0.5480370000000  0.5319570000000  0.4792360000000 1.0
END
