TITL C-8694-7203-205 7.34670665808443e-05 125000 -356.377595097381 0 0 60 (C1) n - 1
REM
REM in /home/bkarasulu/CARBON/AIRSS/Generating-Clusters/EDIP-Nigel-Params/Higher-Symm/Box-15A/Only-C60/SD-CG/HFTN-CG
REM
REM
REM
REM
REM
REM ./C.cell (414f73aa93bd7a1190c7fd0f31ff2f98)
REM
REM compiler GCC version 9.2.1 20190827 (Red Hat 9.2.1-1)
REM options -cpp -mtune=generic -march=x86-64 -g -O0 -fpre-include=/usr/include/finclude/math-vector-fortran.h
REM seed -1294333165 606841009 -359899396 1905180441 -1357409518 1767634273 -2011575568 1156978620 -1942718315 -1889923213 2116947912 1862555888 1220513846 -1175535484 1319486256 -1942421779 2117798243 -848688419 -152898883 -1109435557 -142230597 -217361337 378772133 1288942757 -1470958414 -1673375277 1929591565 195161695 -120366171 1736777967 362896184 278359536 -1637654956
REM
CELL 1.54180   50.00000   50.00000   50.00000   90.00000   90.00000   90.00000
LATT -1
SFAC C  
C      1  0.5513410000000  0.5352100000000  0.5251580000000 1.0
C      1  0.5541680000000  0.4616780000000  0.5329410000000 1.0
C      1  0.4498720000000  0.4392050000000  0.4980120000000 1.0
C      1  0.4423050000000  0.5539030000000  0.5017700000000 1.0
C      1  0.5134290000000  0.5643860000000  0.5054400000000 1.0
C      1  0.5179310000000  0.4445740000000  0.4992530000000 1.0
C      1  0.5426360000000  0.5520070000000  0.5021160000000 1.0
C      1  0.5548640000000  0.4427400000000  0.5104420000000 1.0
C      1  0.5442790000000  0.4560290000000  0.4867430000000 1.0
C      1  0.5309770000000  0.5452080000000  0.4762650000000 1.0
C      1  0.5319050000000  0.4770310000000  0.5759660000000 1.0
C      1  0.5352350000000  0.5232240000000  0.5700730000000 1.0
C      1  0.5337700000000  0.4562130000000  0.5573690000000 1.0
C      1  0.5429190000000  0.5436140000000  0.5523420000000 1.0
C      1  0.5045210000000  0.5243510000000  0.4340030000000 1.0
C      1  0.4953570000000  0.4767950000000  0.4270700000000 1.0
C      1  0.5062660000000  0.4493380000000  0.5475030000000 1.0
C      1  0.5237800000000  0.5642550000000  0.5519750000000 1.0
C      1  0.5247870000000  0.4856240000000  0.5252000000000 1.0
C      1  0.4999160000000  0.5280870000000  0.5325100000000 1.0
C      1  0.4595110000000  0.4778620000000  0.4666760000000 1.0
C      1  0.4590550000000  0.5248240000000  0.4662640000000 1.0
C      1  0.5769520000000  0.5221080000000  0.5241730000000 1.0
C      1  0.5793420000000  0.4781640000000  0.5319880000000 1.0
C      1  0.4709970000000  0.4641560000000  0.5432580000000 1.0
C      1  0.4565630000000  0.5114680000000  0.5352520000000 1.0
C      1  0.4702520000000  0.4876610000000  0.4382320000000 1.0
C      1  0.4742610000000  0.5177220000000  0.4397630000000 1.0
C      1  0.5088060000000  0.4621460000000  0.5214050000000 1.0
C      1  0.5051090000000  0.5559180000000  0.5328170000000 1.0
C      1  0.4946210000000  0.4499420000000  0.4812180000000 1.0
C      1  0.4895600000000  0.5556660000000  0.4882040000000 1.0
C      1  0.4560010000000  0.4544800000000  0.5214350000000 1.0
C      1  0.4481320000000  0.5321260000000  0.5194510000000 1.0
C      1  0.4737040000000  0.4301140000000  0.4829990000000 1.0
C      1  0.4655200000000  0.5706820000000  0.4940980000000 1.0
C      1  0.5280280000000  0.5224060000000  0.4570110000000 1.0
C      1  0.5205680000000  0.4754990000000  0.4465060000000 1.0
C      1  0.4821930000000  0.4763970000000  0.4852680000000 1.0
C      1  0.4830700000000  0.5271030000000  0.4824210000000 1.0
C      1  0.4444110000000  0.4526220000000  0.4716800000000 1.0
C      1  0.4425730000000  0.5487720000000  0.4721900000000 1.0
C      1  0.5453650000000  0.4855510000000  0.4857840000000 1.0
C      1  0.3868220000000  0.4918810000000  0.4895380000000 1.0
C      1  0.3968060000000  0.5220280000000  0.4861600000000 1.0
C      1  0.5817570000000  0.4973150000000  0.5072550000000 1.0
C      1  0.4433560000000  0.5008580000000  0.4744720000000 1.0
C      1  0.5187560000000  0.5015250000000  0.5763610000000 1.0
C      1  0.5081310000000  0.5062970000000  0.5159860000000 1.0
C      1  0.5675450000000  0.4975280000000  0.4711440000000 1.0
C      1  0.5214150000000  0.4958290000000  0.4708590000000 1.0
C      1  0.4149510000000  0.4989940000000  0.4804180000000 1.0
C      1  0.5426920000000  0.4911580000000  0.4286700000000 1.0
C      1  0.5811510000000  0.5034560000000  0.5461870000000 1.0
C      1  0.4920210000000  0.5011970000000  0.5670410000000 1.0
C      1  0.5143860000000  0.5008330000000  0.4172550000000 1.0
C      1  0.5559920000000  0.5111060000000  0.4471220000000 1.0
C      1  0.4979980000000  0.5014730000000  0.4887750000000 1.0
C      1  0.3706620000000  0.5145970000000  0.4940270000000 1.0
C      1  0.4702850000000  0.4923410000000  0.5510960000000 1.0
END
