TITL C-8697-8172-137 1.77437283015925e-07 125000 -370.35067885867 0 0 60 (C1) n - 1
REM
REM in /home/bkarasulu/CARBON/AIRSS/Generating-Clusters/EDIP-Nigel-Params/Higher-Symm/Box-15A/Only-C60/SD-CG/HFTN-CG
REM
REM
REM
REM
REM
REM ./C.cell (414f73aa93bd7a1190c7fd0f31ff2f98)
REM
REM compiler GCC version 9.2.1 20190827 (Red Hat 9.2.1-1)
REM options -cpp -mtune=generic -march=x86-64 -g -O0 -fpre-include=/usr/include/finclude/math-vector-fortran.h
REM seed 297624140 -1616922047 2090875169 -1334858419 -252575358 -2076457196 -670343756 1927297518 -536220061 1666201133 1949529335 89096722 679574161 -630859855 -1711515517 1177241128 -415236653 -2109348727 2080006108 -222322245 -1802170417 -1539842246 -214814667 1116565562 448467401 1825330491 1600800692 1940765061 1042025644 685896399 1231221717 -1666658919 1948484477
REM
CELL 1.54180   50.00000   50.00000   50.00000   90.00000   90.00000   90.00000
LATT -1
SFAC C  
C      1  0.4794320000000  0.5694860000000  0.4992150000000 1.0
C      1  0.5317490000000  0.5785310000000  0.5064950000000 1.0
C      1  0.5584150000000  0.4997760000000  0.4652310000000 1.0
C      1  0.4360360000000  0.4953170000000  0.5400470000000 1.0
C      1  0.4429290000000  0.4654510000000  0.5368350000000 1.0
C      1  0.5533740000000  0.4693100000000  0.4660420000000 1.0
C      1  0.4906910000000  0.4558820000000  0.5602460000000 1.0
C      1  0.5049680000000  0.4561950000000  0.4382770000000 1.0
C      1  0.5305950000000  0.4425700000000  0.5358170000000 1.0
C      1  0.4685290000000  0.4429950000000  0.4668470000000 1.0
C      1  0.5021460000000  0.5009370000000  0.4815520000000 1.0
C      1  0.5029970000000  0.5066190000000  0.5249370000000 1.0
C      1  0.4803680000000  0.5669320000000  0.4480110000000 1.0
C      1  0.5075390000000  0.5681920000000  0.5486270000000 1.0
C      1  0.5034670000000  0.4337030000000  0.5439670000000 1.0
C      1  0.4951690000000  0.4343320000000  0.4564160000000 1.0
C      1  0.5050630000000  0.5266900000000  0.4344590000000 1.0
C      1  0.4874970000000  0.5279350000000  0.5669430000000 1.0
C      1  0.5379150000000  0.4395970000000  0.5060050000000 1.0
C      1  0.4590450000000  0.4375680000000  0.4949470000000 1.0
C      1  0.5594600000000  0.4855780000000  0.5107620000000 1.0
C      1  0.4402560000000  0.4841320000000  0.4939700000000 1.0
C      1  0.4732310000000  0.4682070000000  0.5396080000000 1.0
C      1  0.5242640000000  0.4677560000000  0.4580020000000 1.0
C      1  0.4539180000000  0.5366430000000  0.4769300000000 1.0
C      1  0.5430320000000  0.5383440000000  0.5308790000000 1.0
C      1  0.4709840000000  0.5504260000000  0.5208490000000 1.0
C      1  0.5442590000000  0.5577320000000  0.4866950000000 1.0
C      1  0.4552710000000  0.5095130000000  0.5567980000000 1.0
C      1  0.5384040000000  0.5126690000000  0.4482790000000 1.0
C      1  0.4595830000000  0.4664070000000  0.4514730000000 1.0
C      1  0.5363790000000  0.4667840000000  0.5519070000000 1.0
C      1  0.5480240000000  0.4892700000000  0.5377280000000 1.0
C      1  0.4469500000000  0.4882340000000  0.4660890000000 1.0
C      1  0.5156410000000  0.4282090000000  0.4762140000000 1.0
C      1  0.4895000000000  0.4281390000000  0.5175150000000 1.0
C      1  0.5308090000000  0.5649980000000  0.5332530000000 1.0
C      1  0.4681210000000  0.5616760000000  0.4729890000000 1.0
C      1  0.4522730000000  0.5313050000000  0.5060740000000 1.0
C      1  0.5554220000000  0.5358830000000  0.5039760000000 1.0
C      1  0.5139730000000  0.5111540000000  0.5679530000000 1.0
C      1  0.4790710000000  0.5090880000000  0.4360360000000 1.0
C      1  0.5126810000000  0.4766330000000  0.5676300000000 1.0
C      1  0.4810310000000  0.4771320000000  0.4336390000000 1.0
C      1  0.5570610000000  0.5083620000000  0.4932720000000 1.0
C      1  0.4385960000000  0.5059820000000  0.5126380000000 1.0
C      1  0.5045130000000  0.5526470000000  0.4494150000000 1.0
C      1  0.4859810000000  0.5506560000000  0.5471170000000 1.0
C      1  0.4570600000000  0.5141910000000  0.4570440000000 1.0
C      1  0.5294400000000  0.5126630000000  0.5410890000000 1.0
C      1  0.5148380000000  0.4956050000000  0.4554940000000 1.0
C      1  0.4801330000000  0.4964180000000  0.5450880000000 1.0
C      1  0.4402610000000  0.4581570000000  0.5071540000000 1.0
C      1  0.5575500000000  0.4602300000000  0.4952050000000 1.0
C      1  0.5087170000000  0.4151610000000  0.4997840000000 1.0
C      1  0.4842920000000  0.4605330000000  0.5129600000000 1.0
C      1  0.5037920000000  0.4825780000000  0.5045920000000 1.0
C      1  0.5041250000000  0.5271290000000  0.4929050000000 1.0
C      1  0.5136560000000  0.5514720000000  0.4786060000000 1.0
C      1  0.5043100000000  0.5843610000000  0.4972330000000 1.0
END
