TITL C-8692-4986-53 -1.19303359966604e-05 125000 -363.554725603763 0 0 60 (Cs) n - 1
REM
REM in /home/bkarasulu/CARBON/AIRSS/Generating-Clusters/EDIP-Nigel-Params/Higher-Symm/Box-15A/Only-C60/SD-CG/HFTN-CG
REM
REM
REM
REM
REM
REM ./C.cell (414f73aa93bd7a1190c7fd0f31ff2f98)
REM
REM compiler GCC version 9.2.1 20190827 (Red Hat 9.2.1-1)
REM options -cpp -mtune=generic -march=x86-64 -g -O0 -fpre-include=/usr/include/finclude/math-vector-fortran.h
REM seed 1445327230 1515870799 1607795368 4212887 -1064361029 1138147122 1079116865 -423175908 -589640736 -704371806 -472053331 1853480995 -970561070 1428674325 -180378904 1797587427 -1180311668 1128442033 174526418 -760329239 1219876039 131334815 1607393758 -1127340367 2089937674 2088237695 67322243 -364776099 -865734007 -155412470 1900727553 -1283248193 1224589666
REM
CELL 1.54180   50.00000   50.00000   50.00000   90.00000   90.00000   90.00000
LATT -1
SFAC C  
C      1  0.5349810000000  0.4937610000000  0.5755510000000 1.0
C      1  0.5017460000000  0.5768760000000  0.5342060000000 1.0
C      1  0.5674710000000  0.5324200000000  0.5084110000000 1.0
C      1  0.5349670000000  0.5007740000000  0.4316210000000 1.0
C      1  0.4667150000000  0.4958080000000  0.4246710000000 1.0
C      1  0.4671870000000  0.5046210000000  0.5681990000000 1.0
C      1  0.5003740000000  0.4270350000000  0.4660820000000 1.0
C      1  0.4984970000000  0.5773280000000  0.4645220000000 1.0
C      1  0.4989340000000  0.4266040000000  0.5335180000000 1.0
C      1  0.5713710000000  0.4664480000000  0.4926460000000 1.0
C      1  0.4275460000000  0.5326390000000  0.4964200000000 1.0
C      1  0.4290730000000  0.4651620000000  0.5062210000000 1.0
C      1  0.5342170000000  0.5768710000000  0.5017320000000 1.0
C      1  0.5084230000000  0.5324280000000  0.5674650000000 1.0
C      1  0.5755540000000  0.4937550000000  0.5349730000000 1.0
C      1  0.5335080000000  0.4266000000000  0.4989400000000 1.0
C      1  0.4660720000000  0.4270400000000  0.5003880000000 1.0
C      1  0.4645320000000  0.5773330000000  0.4984910000000 1.0
C      1  0.5062080000000  0.4651520000000  0.4290770000000 1.0
C      1  0.4926500000000  0.4664590000000  0.5713760000000 1.0
C      1  0.4964150000000  0.5326300000000  0.4275420000000 1.0
C      1  0.5681960000000  0.5046080000000  0.4671780000000 1.0
C      1  0.4316250000000  0.5007880000000  0.5349750000000 1.0
C      1  0.4246660000000  0.4958130000000  0.4667250000000 1.0
C      1  0.5229530000000  0.4540980000000  0.5000860000000 1.0
C      1  0.4573180000000  0.5035570000000  0.5201390000000 1.0
C      1  0.5059450000000  0.5296580000000  0.4536280000000 1.0
C      1  0.5215800000000  0.5501890000000  0.4970630000000 1.0
C      1  0.4770330000000  0.4544080000000  0.4995640000000 1.0
C      1  0.4701260000000  0.5525690000000  0.5099590000000 1.0
C      1  0.4505870000000  0.4861770000000  0.4707560000000 1.0
C      1  0.5417030000000  0.5038220000000  0.4808110000000 1.0
C      1  0.5496480000000  0.4846800000000  0.5294790000000 1.0
C      1  0.5012560000000  0.4766520000000  0.5447850000000 1.0
C      1  0.4979740000000  0.5283420000000  0.5418380000000 1.0
C      1  0.4984760000000  0.4769590000000  0.4552690000000 1.0
C      1  0.5201350000000  0.5035480000000  0.4573150000000 1.0
C      1  0.4536330000000  0.5296650000000  0.5059470000000 1.0
C      1  0.5000830000000  0.4541010000000  0.5229590000000 1.0
C      1  0.5294830000000  0.4846830000000  0.5496470000000 1.0
C      1  0.4707480000000  0.4861740000000  0.4505930000000 1.0
C      1  0.4808170000000  0.5038300000000  0.5417050000000 1.0
C      1  0.4552660000000  0.4769640000000  0.4984850000000 1.0
C      1  0.5447820000000  0.4766470000000  0.5012540000000 1.0
C      1  0.5418410000000  0.5283370000000  0.4979650000000 1.0
C      1  0.5099630000000  0.5525640000000  0.4701180000000 1.0
C      1  0.4970720000000  0.5501920000000  0.5215740000000 1.0
C      1  0.4995550000000  0.4544050000000  0.4770390000000 1.0
C      1  0.5102060000000  0.4129790000000  0.4891130000000 1.0
C      1  0.4157730000000  0.4891990000000  0.5142270000000 1.0
C      1  0.4906620000000  0.5078100000000  0.4151110000000 1.0
C      1  0.5107340000000  0.5908090000000  0.5107210000000 1.0
C      1  0.4891030000000  0.4129820000000  0.5102190000000 1.0
C      1  0.4895640000000  0.5872100000000  0.4895540000000 1.0
C      1  0.4151110000000  0.5078200000000  0.4906710000000 1.0
C      1  0.5839010000000  0.4917570000000  0.4871380000000 1.0
C      1  0.5827400000000  0.5086480000000  0.5119260000000 1.0
C      1  0.4871470000000  0.4917700000000  0.5839040000000 1.0
C      1  0.5142150000000  0.4891860000000  0.4157730000000 1.0
C      1  0.5119370000000  0.5086580000000  0.5827380000000 1.0
END
