TITL C-8699-7882-286 -1.91510675997596e-05 125000 -359.553514829674 0 0 60 (C2) n - 1
REM
REM in /home/bkarasulu/CARBON/AIRSS/Generating-Clusters/EDIP-Nigel-Params/Higher-Symm/Box-15A/Only-C60/SD-CG/HFTN-CG
REM
REM
REM
REM
REM
REM ./C.cell (414f73aa93bd7a1190c7fd0f31ff2f98)
REM
REM compiler GCC version 9.2.1 20190827 (Red Hat 9.2.1-1)
REM options -cpp -mtune=generic -march=x86-64 -g -O0 -fpre-include=/usr/include/finclude/math-vector-fortran.h
REM seed 197642606 -1291290718 -1562216310 -2023844732 -504860547 -952334153 239370599 622967564 1373413197 1368279597 -684320018 1453270519 -580885626 2127334758 904645918 1659715956 -947146798 -535052798 979119728 1332413013 686010920 -1242319123 -315305903 -1567690062 -1725747962 -88898468 -618276830 744544304 -1526379136 -1136695027 25675040 1409001902 1481499992
REM
CELL 1.54180   50.00000   50.00000   50.00000   90.00000   90.00000   90.00000
LATT -1
SFAC C  
C      1  0.5745130000000  0.5297360000000  0.5075050000000 1.0
C      1  0.4297550000000  0.4707920000000  0.5081610000000 1.0
C      1  0.5702450000000  0.4707920000000  0.4918380000000 1.0
C      1  0.4254870000000  0.5297360000000  0.4924950000000 1.0
C      1  0.4921450000000  0.5642350000000  0.5132560000000 1.0
C      1  0.5071780000000  0.4337710000000  0.5132630000000 1.0
C      1  0.4928220000000  0.4337710000000  0.4867350000000 1.0
C      1  0.5078550000000  0.5642350000000  0.4867460000000 1.0
C      1  0.4539940000000  0.5260500000000  0.4589970000000 1.0
C      1  0.5479690000000  0.4756320000000  0.4541510000000 1.0
C      1  0.4520310000000  0.4756310000000  0.5458480000000 1.0
C      1  0.5460070000000  0.5260490000000  0.5410040000000 1.0
C      1  0.5442160000000  0.5352360000000  0.4702750000000 1.0
C      1  0.4569450000000  0.4629150000000  0.4694630000000 1.0
C      1  0.5430550000000  0.4629140000000  0.5305360000000 1.0
C      1  0.4557840000000  0.5352350000000  0.5297260000000 1.0
C      1  0.5129450000000  0.4491590000000  0.4587830000000 1.0
C      1  0.4896090000000  0.5521620000000  0.4610680000000 1.0
C      1  0.5103910000000  0.5521610000000  0.5389330000000 1.0
C      1  0.4870550000000  0.4491580000000  0.5412150000000 1.0
C      1  0.5222600000000  0.5158530000000  0.4668110000000 1.0
C      1  0.4795520000000  0.4818320000000  0.4668360000000 1.0
C      1  0.5204480000000  0.4818310000000  0.5331630000000 1.0
C      1  0.4777400000000  0.5158520000000  0.5331890000000 1.0
C      1  0.5548360000000  0.5514750000000  0.5128800000000 1.0
C      1  0.4522040000000  0.4525990000000  0.5144030000000 1.0
C      1  0.5477950000000  0.4526000000000  0.4855950000000 1.0
C      1  0.4451640000000  0.5514750000000  0.4871210000000 1.0
C      1  0.4625370000000  0.5557740000000  0.5103990000000 1.0
C      1  0.5361040000000  0.4423720000000  0.5105760000000 1.0
C      1  0.4638950000000  0.4423720000000  0.4894230000000 1.0
C      1  0.5374630000000  0.5557750000000  0.4896030000000 1.0
C      1  0.5302140000000  0.4844980000000  0.4319200000000 1.0
C      1  0.4714630000000  0.5176640000000  0.4354500000000 1.0
C      1  0.5285380000000  0.5176620000000  0.5645510000000 1.0
C      1  0.4697850000000  0.4844970000000  0.5680800000000 1.0
C      1  0.4717620000000  0.4908610000000  0.5156830000000 1.0
C      1  0.5262200000000  0.5050230000000  0.5150540000000 1.0
C      1  0.4737800000000  0.5050230000000  0.4849460000000 1.0
C      1  0.5282380000000  0.4908620000000  0.4843160000000 1.0
C      1  0.5048710000000  0.4698690000000  0.4787740000000 1.0
C      1  0.4966850000000  0.5275590000000  0.4788640000000 1.0
C      1  0.5033150000000  0.5275590000000  0.5211360000000 1.0
C      1  0.4951290000000  0.4698680000000  0.5212250000000 1.0
C      1  0.5679420000000  0.5090500000000  0.5283290000000 1.0
C      1  0.4300570000000  0.4911470000000  0.5299090000000 1.0
C      1  0.5699430000000  0.4911480000000  0.4700900000000 1.0
C      1  0.4320580000000  0.5090500000000  0.4716720000000 1.0
C      1  0.5184600000000  0.4901790000000  0.5615820000000 1.0
C      1  0.4798770000000  0.5110340000000  0.5623700000000 1.0
C      1  0.5201230000000  0.5110360000000  0.4376310000000 1.0
C      1  0.4815400000000  0.4901810000000  0.4384180000000 1.0
C      1  0.5678360000000  0.5203650000000  0.4795230000000 1.0
C      1  0.4367690000000  0.4808880000000  0.4815320000000 1.0
C      1  0.5632310000000  0.4808880000000  0.5184680000000 1.0
C      1  0.4321640000000  0.5203650000000  0.5204780000000 1.0
C      1  0.4909010000000  0.4647520000000  0.5655910000000 1.0
C      1  0.5071780000000  0.5375200000000  0.5643210000000 1.0
C      1  0.4928220000000  0.5375220000000  0.4356800000000 1.0
C      1  0.5090990000000  0.4647530000000  0.4344080000000 1.0
END
