TITL C-8695-8180-52 -1.55791851687443e-06 125000 -363.013779751531 0 0 60 (C1) n - 1
REM
REM in /home/bkarasulu/CARBON/AIRSS/Generating-Clusters/EDIP-Nigel-Params/Higher-Symm/Box-15A/Only-C60/SD-CG/HFTN-CG
REM
REM
REM
REM
REM
REM ./C.cell (414f73aa93bd7a1190c7fd0f31ff2f98)
REM
REM compiler GCC version 9.2.1 20190827 (Red Hat 9.2.1-1)
REM options -cpp -mtune=generic -march=x86-64 -g -O0 -fpre-include=/usr/include/finclude/math-vector-fortran.h
REM seed -547438598 1902257890 1858319496 1565327908 183257243 1305034839 -379960894 566500913 855825979 1644584423 544220741 545406969 -448760240 27404019 1140739560 1589142594 1076537130 -322714875 1623675244 -803210170 -16577030 1285588440 350262914 2080701737 -2111216020 -1482109661 900999485 311253013 275146430 -1425271363 386685797 2015262390 -2133557980
REM
CELL 1.54180   50.00000   50.00000   50.00000   90.00000   90.00000   90.00000
LATT -1
SFAC C  
C      1  0.4329360000000  0.4830470000000  0.4630940000000 1.0
C      1  0.4659700000000  0.4512410000000  0.4311270000000 1.0
C      1  0.4541180000000  0.4372000000000  0.4762790000000 1.0
C      1  0.5626580000000  0.4839400000000  0.5483530000000 1.0
C      1  0.5810360000000  0.5026900000000  0.4620400000000 1.0
C      1  0.4333290000000  0.5139930000000  0.5382240000000 1.0
C      1  0.5200040000000  0.4472750000000  0.5648960000000 1.0
C      1  0.5215380000000  0.5498610000000  0.4314710000000 1.0
C      1  0.4740020000000  0.5502340000000  0.5700260000000 1.0
C      1  0.5583890000000  0.4378030000000  0.5362920000000 1.0
C      1  0.5374110000000  0.5687850000000  0.4744610000000 1.0
C      1  0.4523380000000  0.5571390000000  0.5249690000000 1.0
C      1  0.4401800000000  0.4780690000000  0.4348100000000 1.0
C      1  0.4464080000000  0.4647560000000  0.4818730000000 1.0
C      1  0.4692120000000  0.4326560000000  0.4523860000000 1.0
C      1  0.5414770000000  0.4788660000000  0.5675520000000 1.0
C      1  0.4506850000000  0.5214700000000  0.5602340000000 1.0
C      1  0.5611090000000  0.5182750000000  0.4495740000000 1.0
C      1  0.5719060000000  0.4616790000000  0.5301920000000 1.0
C      1  0.4335960000000  0.5364780000000  0.5167910000000 1.0
C      1  0.5596020000000  0.5498050000000  0.4709340000000 1.0
C      1  0.5305890000000  0.4374710000000  0.5399620000000 1.0
C      1  0.4781100000000  0.5704890000000  0.5502280000000 1.0
C      1  0.5156850000000  0.5670570000000  0.4531510000000 1.0
C      1  0.4956480000000  0.5542160000000  0.4719090000000 1.0
C      1  0.5608400000000  0.4824800000000  0.5037710000000 1.0
C      1  0.4762550000000  0.5080770000000  0.5563820000000 1.0
C      1  0.4992690000000  0.5602280000000  0.5298170000000 1.0
C      1  0.4966360000000  0.4477510000000  0.4752600000000 1.0
C      1  0.5155920000000  0.4533410000000  0.5208900000000 1.0
C      1  0.4451950000000  0.4685470000000  0.5104840000000 1.0
C      1  0.4504940000000  0.5173520000000  0.4973280000000 1.0
C      1  0.5573340000000  0.5300190000000  0.4923330000000 1.0
C      1  0.5342310000000  0.5071650000000  0.4482580000000 1.0
C      1  0.5168390000000  0.4912770000000  0.5598760000000 1.0
C      1  0.4635680000000  0.4959740000000  0.4289010000000 1.0
C      1  0.4769800000000  0.5505030000000  0.5114700000000 1.0
C      1  0.4993110000000  0.4676760000000  0.5597840000000 1.0
C      1  0.5741410000000  0.5055290000000  0.4894680000000 1.0
C      1  0.5173950000000  0.5556120000000  0.4958370000000 1.0
C      1  0.4709680000000  0.4319820000000  0.4991120000000 1.0
C      1  0.5214050000000  0.4489370000000  0.4929170000000 1.0
C      1  0.4843390000000  0.4742400000000  0.4332440000000 1.0
C      1  0.5126270000000  0.5246110000000  0.4403800000000 1.0
C      1  0.4942030000000  0.5290850000000  0.5664000000000 1.0
C      1  0.4517930000000  0.4959730000000  0.5194260000000 1.0
C      1  0.5516380000000  0.5010160000000  0.5274610000000 1.0
C      1  0.4414110000000  0.5113040000000  0.4687620000000 1.0
C      1  0.4904410000000  0.5256850000000  0.4618300000000 1.0
C      1  0.5392860000000  0.4705730000000  0.4844860000000 1.0
C      1  0.4819930000000  0.4974860000000  0.5279460000000 1.0
C      1  0.4990690000000  0.4728130000000  0.4588930000000 1.0
C      1  0.4893700000000  0.4659990000000  0.5308720000000 1.0
C      1  0.4801900000000  0.5236050000000  0.4990680000000 1.0
C      1  0.5256460000000  0.4834770000000  0.4623550000000 1.0
C      1  0.5226960000000  0.5133730000000  0.5283430000000 1.0
C      1  0.4633770000000  0.5181910000000  0.4495370000000 1.0
C      1  0.5131610000000  0.5372350000000  0.5450150000000 1.0
C      1  0.4650600000000  0.4496010000000  0.5216280000000 1.0
C      1  0.5293100000000  0.5287830000000  0.5016440000000 1.0
END
