TITL C-8695-8180-87 1.88635598898831e-05 125000 -367.66242359136 0 0 60 (C2) n - 1
REM
REM in /home/bkarasulu/CARBON/AIRSS/Generating-Clusters/EDIP-Nigel-Params/Higher-Symm/Box-15A/Only-C60/SD-CG/HFTN-CG
REM
REM
REM
REM
REM
REM ./C.cell (414f73aa93bd7a1190c7fd0f31ff2f98)
REM
REM compiler GCC version 9.2.1 20190827 (Red Hat 9.2.1-1)
REM options -cpp -mtune=generic -march=x86-64 -g -O0 -fpre-include=/usr/include/finclude/math-vector-fortran.h
REM seed 1576516705 -660276425 781184513 885776043 1177272039 -394902402 649757090 600056936 -601045623 -643084063 -509087470 -657536446 -1419963524 -1265998702 508025890 296498469 -382768619 1310298891 549412697 -652424608 -991462983 1576228452 1695851399 -1340564261 -1152847273 -391931974 -1311714843 1861423760 -1493052732 539156878 -106249338 735049906 1956075338
REM
CELL 1.54180   50.00000   50.00000   50.00000   90.00000   90.00000   90.00000
LATT -1
SFAC C  
C      1  0.4420200000000  0.4897600000000  0.4707910000000 1.0
C      1  0.4397670000000  0.5288190000000  0.5027750000000 1.0
C      1  0.4388160000000  0.4815030000000  0.5202370000000 1.0
C      1  0.5579800000000  0.5102290000000  0.4707860000000 1.0
C      1  0.5602330000000  0.4711820000000  0.5027850000000 1.0
C      1  0.5611850000000  0.5185040000000  0.5202290000000 1.0
C      1  0.4977680000000  0.5152780000000  0.4526260000000 1.0
C      1  0.4972770000000  0.5409070000000  0.5424390000000 1.0
C      1  0.4922160000000  0.4481250000000  0.5161310000000 1.0
C      1  0.5022310000000  0.4847040000000  0.4526320000000 1.0
C      1  0.5027240000000  0.4591090000000  0.5424540000000 1.0
C      1  0.5077840000000  0.5518820000000  0.5161110000000 1.0
C      1  0.4865260000000  0.4993800000000  0.5820510000000 1.0
C      1  0.4870530000000  0.4228150000000  0.4579110000000 1.0
C      1  0.4861670000000  0.5765980000000  0.4573770000000 1.0
C      1  0.5134750000000  0.5006510000000  0.5820500000000 1.0
C      1  0.5129460000000  0.5771690000000  0.4578820000000 1.0
C      1  0.5138320000000  0.4233860000000  0.4574060000000 1.0
C      1  0.4426420000000  0.5187200000000  0.4757640000000 1.0
C      1  0.4408900000000  0.5101400000000  0.5248970000000 1.0
C      1  0.4427500000000  0.4709810000000  0.4933270000000 1.0
C      1  0.5573570000000  0.4812710000000  0.4757710000000 1.0
C      1  0.5591100000000  0.4898700000000  0.5249000000000 1.0
C      1  0.5572500000000  0.5290170000000  0.4933150000000 1.0
C      1  0.5299380000000  0.4595650000000  0.5487790000000 1.0
C      1  0.5248080000000  0.4740980000000  0.4395730000000 1.0
C      1  0.5303270000000  0.5684260000000  0.5120650000000 1.0
C      1  0.4700630000000  0.5404530000000  0.5487640000000 1.0
C      1  0.4751910000000  0.5258790000000  0.4395640000000 1.0
C      1  0.4696730000000  0.4315780000000  0.5120910000000 1.0
C      1  0.4403870000000  0.5563810000000  0.5064430000000 1.0
C      1  0.4393460000000  0.4647300000000  0.5424370000000 1.0
C      1  0.4439770000000  0.4789100000000  0.4451540000000 1.0
C      1  0.5596130000000  0.4436210000000  0.5064640000000 1.0
C      1  0.5606540000000  0.5352860000000  0.5424220000000 1.0
C      1  0.5560220000000  0.5210690000000  0.4451450000000 1.0
C      1  0.5467890000000  0.5463130000000  0.4430830000000 1.0
C      1  0.5474860000000  0.5292480000000  0.5650570000000 1.0
C      1  0.5507670000000  0.4255750000000  0.4885590000000 1.0
C      1  0.4532100000000  0.4536650000000  0.4431010000000 1.0
C      1  0.4525150000000  0.4707760000000  0.5650690000000 1.0
C      1  0.4492320000000  0.5744200000000  0.4885320000000 1.0
C      1  0.5020660000000  0.4852180000000  0.4842520000000 1.0
C      1  0.5148700000000  0.5252440000000  0.5052280000000 1.0
C      1  0.4900340000000  0.4875770000000  0.5363440000000 1.0
C      1  0.4979330000000  0.5147760000000  0.4842460000000 1.0
C      1  0.4851300000000  0.4747580000000  0.5052380000000 1.0
C      1  0.5099670000000  0.5124370000000  0.5363390000000 1.0
C      1  0.5303990000000  0.5064930000000  0.5594770000000 1.0
C      1  0.5365370000000  0.4360740000000  0.4670790000000 1.0
C      1  0.5361450000000  0.5627620000000  0.4627560000000 1.0
C      1  0.4696020000000  0.4935290000000  0.5594800000000 1.0
C      1  0.4634620000000  0.5639140000000  0.4670550000000 1.0
C      1  0.4638550000000  0.4372240000000  0.4627810000000 1.0
C      1  0.5434110000000  0.4627380000000  0.4573770000000 1.0
C      1  0.5434520000000  0.5554120000000  0.4900080000000 1.0
C      1  0.5459250000000  0.4824680000000  0.5499990000000 1.0
C      1  0.4565890000000  0.5372450000000  0.4573630000000 1.0
C      1  0.4565480000000  0.4445840000000  0.4900300000000 1.0
C      1  0.4540760000000  0.5175510000000  0.5499930000000 1.0
END
