TITL C-8699-7882-262 -8.11269136485426e-07 125000 -360.404361671273 0 0 60 (C1) n - 1
REM
REM in /home/bkarasulu/CARBON/AIRSS/Generating-Clusters/EDIP-Nigel-Params/Higher-Symm/Box-15A/Only-C60/SD-CG/HFTN-CG
REM
REM
REM
REM
REM
REM ./C.cell (414f73aa93bd7a1190c7fd0f31ff2f98)
REM
REM compiler GCC version 9.2.1 20190827 (Red Hat 9.2.1-1)
REM options -cpp -mtune=generic -march=x86-64 -g -O0 -fpre-include=/usr/include/finclude/math-vector-fortran.h
REM seed 717747843 933712040 -1127911928 648253936 1538540681 748435915 -1916864351 1882491714 -1703748706 759306559 -1377995295 1400975209 1949802450 909345582 -73575801 -1025441012 766266559 -464917121 1983508862 776189571 -1915790760 -1632411243 87969209 1068909493 129946307 1310527350 1251653168 -1743295987 1934677186 -1041368911 920723059 669009623 -1401430091
REM
CELL 1.54180   50.00000   50.00000   50.00000   90.00000   90.00000   90.00000
LATT -1
SFAC C  
C      1  0.4533470000000  0.4631510000000  0.5529280000000 1.0
C      1  0.5007150000000  0.5490970000000  0.4819960000000 1.0
C      1  0.4368460000000  0.5383300000000  0.4839100000000 1.0
C      1  0.4951140000000  0.4961850000000  0.4456940000000 1.0
C      1  0.4262550000000  0.4855390000000  0.5072680000000 1.0
C      1  0.5751580000000  0.4817340000000  0.5438920000000 1.0
C      1  0.4438440000000  0.4644400000000  0.4680850000000 1.0
C      1  0.4307860000000  0.5097710000000  0.5241900000000 1.0
C      1  0.5140660000000  0.5035600000000  0.5649990000000 1.0
C      1  0.5563640000000  0.5366270000000  0.4916110000000 1.0
C      1  0.4942890000000  0.4630510000000  0.4807390000000 1.0
C      1  0.4870730000000  0.4600570000000  0.5109570000000 1.0
C      1  0.5248930000000  0.4623650000000  0.4419750000000 1.0
C      1  0.5213880000000  0.4890740000000  0.4343030000000 1.0
C      1  0.4695000000000  0.4549710000000  0.4672690000000 1.0
C      1  0.4634220000000  0.4815530000000  0.5155620000000 1.0
C      1  0.5199170000000  0.4510170000000  0.4672880000000 1.0
C      1  0.4291430000000  0.4865120000000  0.4782550000000 1.0
C      1  0.5221260000000  0.5684750000000  0.4805330000000 1.0
C      1  0.5192550000000  0.5430970000000  0.4280920000000 1.0
C      1  0.4661760000000  0.5339820000000  0.5478320000000 1.0
C      1  0.4942040000000  0.4943340000000  0.4764260000000 1.0
C      1  0.5212990000000  0.5400200000000  0.5311660000000 1.0
C      1  0.5440820000000  0.5047780000000  0.4459360000000 1.0
C      1  0.5454740000000  0.4467350000000  0.4824350000000 1.0
C      1  0.5512780000000  0.5420150000000  0.5220370000000 1.0
C      1  0.5634240000000  0.4708090000000  0.4811260000000 1.0
C      1  0.4540300000000  0.5145780000000  0.4457820000000 1.0
C      1  0.4911900000000  0.5424900000000  0.4308360000000 1.0
C      1  0.4502330000000  0.5104330000000  0.5461090000000 1.0
C      1  0.4334480000000  0.5373950000000  0.5130410000000 1.0
C      1  0.5726190000000  0.4981600000000  0.5221860000000 1.0
C      1  0.4485350000000  0.4487030000000  0.5300060000000 1.0
C      1  0.4566340000000  0.5516710000000  0.5262270000000 1.0
C      1  0.5433890000000  0.5530990000000  0.4705040000000 1.0
C      1  0.4576090000000  0.5591000000000  0.4819550000000 1.0
C      1  0.4738340000000  0.5623560000000  0.5055260000000 1.0
C      1  0.4627390000000  0.4886420000000  0.5589680000000 1.0
C      1  0.4780510000000  0.5154210000000  0.4311180000000 1.0
C      1  0.5081430000000  0.4654420000000  0.5313280000000 1.0
C      1  0.4690740000000  0.5013160000000  0.4905510000000 1.0
C      1  0.5095730000000  0.5155960000000  0.5189580000000 1.0
C      1  0.4842010000000  0.5533710000000  0.4567760000000 1.0
C      1  0.5195440000000  0.4450670000000  0.5468840000000 1.0
C      1  0.5172180000000  0.5352870000000  0.5607300000000 1.0
C      1  0.5425370000000  0.5110980000000  0.4844150000000 1.0
C      1  0.4846230000000  0.4989630000000  0.5766320000000 1.0
C      1  0.4706700000000  0.4361060000000  0.5170860000000 1.0
C      1  0.5653490000000  0.5208220000000  0.5361590000000 1.0
C      1  0.4660490000000  0.4183680000000  0.4980120000000 1.0
C      1  0.5124010000000  0.5166380000000  0.4894600000000 1.0
C      1  0.4462770000000  0.5111230000000  0.4734550000000 1.0
C      1  0.5543270000000  0.4894670000000  0.5014000000000 1.0
C      1  0.5145470000000  0.4932300000000  0.5371310000000 1.0
C      1  0.5440520000000  0.4355690000000  0.5082940000000 1.0
C      1  0.5633130000000  0.4856690000000  0.4568990000000 1.0
C      1  0.4869130000000  0.5310360000000  0.5702080000000 1.0
C      1  0.5446160000000  0.4403740000000  0.5357050000000 1.0
C      1  0.5653120000000  0.4563350000000  0.5452490000000 1.0
C      1  0.5395120000000  0.5357960000000  0.4459060000000 1.0
END
