TITL C-8697-8172-78 9.34141443735664e-06 125000 -356.53452481426 0 0 60 (C1) n - 1
REM
REM in /home/bkarasulu/CARBON/AIRSS/Generating-Clusters/EDIP-Nigel-Params/Higher-Symm/Box-15A/Only-C60/SD-CG/HFTN-CG
REM
REM
REM
REM
REM
REM ./C.cell (414f73aa93bd7a1190c7fd0f31ff2f98)
REM
REM compiler GCC version 9.2.1 20190827 (Red Hat 9.2.1-1)
REM options -cpp -mtune=generic -march=x86-64 -g -O0 -fpre-include=/usr/include/finclude/math-vector-fortran.h
REM seed -208587024 -856907687 -365009573 -797891924 -1794254117 -1610750373 58513498 1421113900 1564202829 410629677 858699562 1829758600 -2111487747 29137795 42815013 -1792283694 1306036849 -1006126182 -851521933 1563464429 -1701922577 -1108876628 -1231833735 -1754609542 -512290225 -312039357 1127215707 -1715568223 -973089568 1630847107 -594081077 -15280927 1888434057
REM
CELL 1.54180   50.00000   50.00000   50.00000   90.00000   90.00000   90.00000
LATT -1
SFAC C  
C      1  0.5600620000000  0.4978280000000  0.4975300000000 1.0
C      1  0.5077260000000  0.4969910000000  0.4349020000000 1.0
C      1  0.4428210000000  0.4948370000000  0.4722170000000 1.0
C      1  0.4525160000000  0.4888100000000  0.5516540000000 1.0
C      1  0.5268440000000  0.4916130000000  0.5686010000000 1.0
C      1  0.4280940000000  0.4897290000000  0.5077700000000 1.0
C      1  0.4769570000000  0.4973520000000  0.5643920000000 1.0
C      1  0.5559350000000  0.4862490000000  0.5435760000000 1.0
C      1  0.5552170000000  0.4959240000000  0.4590020000000 1.0
C      1  0.4695760000000  0.4919620000000  0.4327380000000 1.0
C      1  0.4462740000000  0.5479060000000  0.4694290000000 1.0
C      1  0.4698590000000  0.5425410000000  0.5256790000000 1.0
C      1  0.5139260000000  0.5607630000000  0.5462990000000 1.0
C      1  0.5514960000000  0.5480280000000  0.5006990000000 1.0
C      1  0.5114220000000  0.5446020000000  0.4497740000000 1.0
C      1  0.5503010000000  0.5217320000000  0.5139730000000 1.0
C      1  0.5182970000000  0.5230170000000  0.4689210000000 1.0
C      1  0.4705110000000  0.5329140000000  0.4614560000000 1.0
C      1  0.4646520000000  0.5169290000000  0.5094430000000 1.0
C      1  0.5096240000000  0.5324280000000  0.5498800000000 1.0
C      1  0.5014210000000  0.4812750000000  0.5601940000000 1.0
C      1  0.5623290000000  0.4747720000000  0.5172870000000 1.0
C      1  0.5313170000000  0.4817510000000  0.4478490000000 1.0
C      1  0.4547650000000  0.4766720000000  0.4521520000000 1.0
C      1  0.4418190000000  0.4755220000000  0.5285830000000 1.0
C      1  0.4708190000000  0.5214620000000  0.4332180000000 1.0
C      1  0.4340890000000  0.5175370000000  0.5083750000000 1.0
C      1  0.4835050000000  0.5263810000000  0.5644550000000 1.0
C      1  0.5547550000000  0.5155990000000  0.5425490000000 1.0
C      1  0.5477120000000  0.5233880000000  0.4637640000000 1.0
C      1  0.5332540000000  0.5192760000000  0.5626070000000 1.0
C      1  0.5637620000000  0.5427980000000  0.4761390000000 1.0
C      1  0.4996850000000  0.5267110000000  0.4286450000000 1.0
C      1  0.4283550000000  0.5297170000000  0.4825640000000 1.0
C      1  0.4635610000000  0.5428360000000  0.5534520000000 1.0
C      1  0.5386580000000  0.4476350000000  0.4833010000000 1.0
C      1  0.4961160000000  0.4484910000000  0.4565400000000 1.0
C      1  0.4582680000000  0.4450200000000  0.4908610000000 1.0
C      1  0.4769680000000  0.4449980000000  0.5378090000000 1.0
C      1  0.5248290000000  0.4479460000000  0.5315760000000 1.0
C      1  0.5229220000000  0.4573460000000  0.4616170000000 1.0
C      1  0.4692420000000  0.4546590000000  0.4650660000000 1.0
C      1  0.4581130000000  0.4539180000000  0.5189770000000 1.0
C      1  0.5014080000000  0.4570670000000  0.5442850000000 1.0
C      1  0.5438300000000  0.4528300000000  0.5110110000000 1.0
C      1  0.4805950000000  0.5662000000000  0.5122860000000 1.0
C      1  0.5083190000000  0.5730230000000  0.5217780000000 1.0
C      1  0.5248210000000  0.5640480000000  0.4979620000000 1.0
C      1  0.5056790000000  0.5680820000000  0.4694570000000 1.0
C      1  0.4780260000000  0.5647330000000  0.4822210000000 1.0
C      1  0.5299480000000  0.4895670000000  0.4908490000000 1.0
C      1  0.4948650000000  0.4901030000000  0.4712420000000 1.0
C      1  0.4699550000000  0.5090900000000  0.4786990000000 1.0
C      1  0.4826470000000  0.4905470000000  0.5215200000000 1.0
C      1  0.5209830000000  0.4895480000000  0.5215430000000 1.0
C      1  0.5065420000000  0.4191810000000  0.4859080000000 1.0
C      1  0.5071040000000  0.5189580000000  0.5221710000000 1.0
C      1  0.4953030000000  0.4392690000000  0.4998850000000 1.0
C      1  0.4934200000000  0.4708530000000  0.4982040000000 1.0
C      1  0.5089270000000  0.5369980000000  0.4949210000000 1.0
END
