TITL C-8693-7204-50 3.90792495922959e-07 125000 -366.747214383822 0 0 60 (C1) n - 1
REM
REM in /home/bkarasulu/CARBON/AIRSS/Generating-Clusters/EDIP-Nigel-Params/Higher-Symm/Box-15A/Only-C60/SD-CG/HFTN-CG
REM
REM
REM
REM
REM
REM ./C.cell (414f73aa93bd7a1190c7fd0f31ff2f98)
REM
REM compiler GCC version 9.2.1 20190827 (Red Hat 9.2.1-1)
REM options -cpp -mtune=generic -march=x86-64 -g -O0 -fpre-include=/usr/include/finclude/math-vector-fortran.h
REM seed -722236097 -1962070109 415934220 -380402481 -969729998 1200542662 -1023653754 -2047952382 947213907 -1491880789 573568774 -1752992680 1470125962 -1233103652 454360021 -2003433357 1656408561 -1482631464 -1028037201 -1557090141 -769031190 -612004123 1863488685 1991123259 1541837340 -879201352 -858063079 1469517819 -1700883604 -448504830 706663104 1233155509 112761526
REM
CELL 1.54180   50.00000   50.00000   50.00000   90.00000   90.00000   90.00000
LATT -1
SFAC C  
C      1  0.4544820000000  0.5598520000000  0.5102860000000 1.0
C      1  0.5216080000000  0.4973740000000  0.5175860000000 1.0
C      1  0.4348000000000  0.4529600000000  0.4954550000000 1.0
C      1  0.5117560000000  0.4719130000000  0.5090380000000 1.0
C      1  0.5589760000000  0.5196810000000  0.5261150000000 1.0
C      1  0.4821010000000  0.5250480000000  0.5144350000000 1.0
C      1  0.5268500000000  0.5517220000000  0.5019820000000 1.0
C      1  0.5163210000000  0.5834750000000  0.4833620000000 1.0
C      1  0.5208910000000  0.4465510000000  0.5238750000000 1.0
C      1  0.5611000000000  0.4692970000000  0.5379890000000 1.0
C      1  0.5424510000000  0.4370510000000  0.5059540000000 1.0
C      1  0.4785700000000  0.4942500000000  0.4464170000000 1.0
C      1  0.4936750000000  0.5440460000000  0.4679460000000 1.0
C      1  0.5023800000000  0.5150450000000  0.5327300000000 1.0
C      1  0.4732160000000  0.4997210000000  0.4994610000000 1.0
C      1  0.4484570000000  0.5470610000000  0.4855850000000 1.0
C      1  0.4432350000000  0.4992690000000  0.5034000000000 1.0
C      1  0.5542140000000  0.5413830000000  0.4638050000000 1.0
C      1  0.5298090000000  0.4828910000000  0.5660130000000 1.0
C      1  0.5394680000000  0.4747540000000  0.4659640000000 1.0
C      1  0.5165930000000  0.5363390000000  0.5478810000000 1.0
C      1  0.5117960000000  0.4708710000000  0.4782760000000 1.0
C      1  0.5576510000000  0.4829180000000  0.4881800000000 1.0
C      1  0.4542830000000  0.5161540000000  0.5474310000000 1.0
C      1  0.4631690000000  0.5376950000000  0.4635190000000 1.0
C      1  0.4963970000000  0.5006780000000  0.4254200000000 1.0
C      1  0.4485540000000  0.4667790000000  0.4741050000000 1.0
C      1  0.4746910000000  0.4687010000000  0.4353250000000 1.0
C      1  0.5200720000000  0.5108770000000  0.4380990000000 1.0
C      1  0.5395180000000  0.4913290000000  0.4431520000000 1.0
C      1  0.4546970000000  0.5113930000000  0.4509960000000 1.0
C      1  0.4920590000000  0.5936750000000  0.4936200000000 1.0
C      1  0.5089940000000  0.5016240000000  0.5745320000000 1.0
C      1  0.5393950000000  0.5439860000000  0.5302050000000 1.0
C      1  0.5593740000000  0.4981290000000  0.5462430000000 1.0
C      1  0.5620590000000  0.4602750000000  0.5081350000000 1.0
C      1  0.5129250000000  0.5670240000000  0.4598620000000 1.0
C      1  0.4783690000000  0.4740220000000  0.5447140000000 1.0
C      1  0.4458620000000  0.4455640000000  0.5215020000000 1.0
C      1  0.5022590000000  0.4197560000000  0.4883370000000 1.0
C      1  0.4968710000000  0.4448580000000  0.4698140000000 1.0
C      1  0.5114930000000  0.5194640000000  0.4658850000000 1.0
C      1  0.4822620000000  0.5720170000000  0.5089930000000 1.0
C      1  0.5359750000000  0.5290850000000  0.4830700000000 1.0
C      1  0.4954620000000  0.4283510000000  0.5161220000000 1.0
C      1  0.4689200000000  0.4522950000000  0.4578350000000 1.0
C      1  0.5452480000000  0.5070340000000  0.5024480000000 1.0
C      1  0.4381400000000  0.4953610000000  0.5325120000000 1.0
C      1  0.5357290000000  0.4576920000000  0.5504480000000 1.0
C      1  0.4485380000000  0.4680150000000  0.5425460000000 1.0
C      1  0.5204860000000  0.5277340000000  0.5747170000000 1.0
C      1  0.4956490000000  0.5472720000000  0.4991320000000 1.0
C      1  0.4936310000000  0.4953570000000  0.4730000000000 1.0
C      1  0.4845810000000  0.5013450000000  0.5542150000000 1.0
C      1  0.4372580000000  0.4931690000000  0.4661300000000 1.0
C      1  0.4831120000000  0.4740320000000  0.5151030000000 1.0
C      1  0.4530690000000  0.5421420000000  0.5338260000000 1.0
C      1  0.5298070000000  0.4274440000000  0.4818050000000 1.0
C      1  0.5379280000000  0.5587570000000  0.4500310000000 1.0
C      1  0.4727680000000  0.4474430000000  0.5054390000000 1.0
END
