TITL C-8699-7882-18 3.8982515724402e-06 125000 -360.107511837837 0 0 60 (C1) n - 1
REM
REM in /home/bkarasulu/CARBON/AIRSS/Generating-Clusters/EDIP-Nigel-Params/Higher-Symm/Box-15A/Only-C60/SD-CG/HFTN-CG
REM
REM
REM
REM
REM
REM ./C.cell (414f73aa93bd7a1190c7fd0f31ff2f98)
REM
REM compiler GCC version 9.2.1 20190827 (Red Hat 9.2.1-1)
REM options -cpp -mtune=generic -march=x86-64 -g -O0 -fpre-include=/usr/include/finclude/math-vector-fortran.h
REM seed -1103158194 1196895800 -254996443 193684528 -1085841166 239490151 94572639 -887439483 -1353377753 837258734 -1802202879 -369284568 -2113960423 -1442411 -1576798221 -407920427 -1810773275 74152582 -807141458 -883718086 -2064045472 -1394416618 -879203225 1693837975 -2021150707 -1727399253 -2005435522 -1961392811 -1643084762 -268976019 1124338612 -2016260521 -421724108
REM
CELL 1.54180   50.00000   50.00000   50.00000   90.00000   90.00000   90.00000
LATT -1
SFAC C  
C      1  0.5097030000000  0.5252630000000  0.5204150000000 1.0
C      1  0.4932530000000  0.5277610000000  0.4967230000000 1.0
C      1  0.5046630000000  0.5110060000000  0.4765280000000 1.0
C      1  0.5129420000000  0.4846820000000  0.4823340000000 1.0
C      1  0.5005430000000  0.4761060000000  0.5068440000000 1.0
C      1  0.5075650000000  0.4966570000000  0.5286900000000 1.0
C      1  0.5395410000000  0.4668930000000  0.4468650000000 1.0
C      1  0.5214570000000  0.4524400000000  0.5115440000000 1.0
C      1  0.5284380000000  0.4867940000000  0.5478770000000 1.0
C      1  0.5419930000000  0.5374130000000  0.5486650000000 1.0
C      1  0.5363070000000  0.5551730000000  0.4877010000000 1.0
C      1  0.5372510000000  0.5190610000000  0.4475610000000 1.0
C      1  0.4559350000000  0.4366080000000  0.5197300000000 1.0
C      1  0.4556510000000  0.4840560000000  0.5626150000000 1.0
C      1  0.4561220000000  0.5461800000000  0.5451830000000 1.0
C      1  0.4513170000000  0.5597640000000  0.4783850000000 1.0
C      1  0.4532080000000  0.5137010000000  0.4378180000000 1.0
C      1  0.4574170000000  0.4492160000000  0.4590710000000 1.0
C      1  0.4525010000000  0.4803940000000  0.5186570000000 1.0
C      1  0.4560740000000  0.5070820000000  0.5249380000000 1.0
C      1  0.4635750000000  0.5259280000000  0.5044190000000 1.0
C      1  0.4492210000000  0.5157070000000  0.4815890000000 1.0
C      1  0.4609580000000  0.4905420000000  0.4745970000000 1.0
C      1  0.4690810000000  0.4728670000000  0.4967850000000 1.0
C      1  0.5183020000000  0.4603610000000  0.4299140000000 1.0
C      1  0.5105500000000  0.4267680000000  0.5167540000000 1.0
C      1  0.5156260000000  0.4791070000000  0.5723270000000 1.0
C      1  0.5219630000000  0.5472470000000  0.5655400000000 1.0
C      1  0.5183770000000  0.5748530000000  0.4796090000000 1.0
C      1  0.5214140000000  0.5272620000000  0.4262110000000 1.0
C      1  0.4644240000000  0.4116630000000  0.5292850000000 1.0
C      1  0.4659030000000  0.4776000000000  0.5877090000000 1.0
C      1  0.4727610000000  0.5616620000000  0.5612540000000 1.0
C      1  0.4681290000000  0.5803340000000  0.4708640000000 1.0
C      1  0.4712860000000  0.5195920000000  0.4179060000000 1.0
C      1  0.4739000000000  0.4365390000000  0.4404560000000 1.0
C      1  0.4507060000000  0.5346410000000  0.4602460000000 1.0
C      1  0.4529810000000  0.4779570000000  0.4505700000000 1.0
C      1  0.4633530000000  0.4445090000000  0.4896610000000 1.0
C      1  0.4549250000000  0.4617050000000  0.5404520000000 1.0
C      1  0.4565160000000  0.5143920000000  0.5526700000000 1.0
C      1  0.4542950000000  0.5525240000000  0.5145960000000 1.0
C      1  0.5371110000000  0.5392500000000  0.5179280000000 1.0
C      1  0.5499340000000  0.5383020000000  0.4667570000000 1.0
C      1  0.5534090000000  0.4939190000000  0.4453750000000 1.0
C      1  0.5351010000000  0.4635320000000  0.4770800000000 1.0
C      1  0.5403400000000  0.4626820000000  0.5329610000000 1.0
C      1  0.5505790000000  0.5083500000000  0.5523260000000 1.0
C      1  0.4944560000000  0.5842530000000  0.4726570000000 1.0
C      1  0.4971230000000  0.5256520000000  0.4153530000000 1.0
C      1  0.4966310000000  0.4447790000000  0.4288730000000 1.0
C      1  0.4911160000000  0.4107960000000  0.5256420000000 1.0
C      1  0.4926930000000  0.4765790000000  0.5858620000000 1.0
C      1  0.4982470000000  0.5590520000000  0.5689470000000 1.0
C      1  0.5717440000000  0.4944510000000  0.4697470000000 1.0
C      1  0.5621300000000  0.4721740000000  0.4884250000000 1.0
C      1  0.5648420000000  0.4735920000000  0.5195110000000 1.0
C      1  0.5686090000000  0.5018740000000  0.5292220000000 1.0
C      1  0.5574490000000  0.5194880000000  0.5092510000000 1.0
C      1  0.5683560000000  0.5212640000000  0.4825250000000 1.0
END
