TITL C-8697-8172-56 -7.46008360325485e-07 125000 -359.944252683107 0 0 60 (C1) n - 1
REM
REM in /home/bkarasulu/CARBON/AIRSS/Generating-Clusters/EDIP-Nigel-Params/Higher-Symm/Box-15A/Only-C60/SD-CG/HFTN-CG
REM
REM
REM
REM
REM
REM ./C.cell (414f73aa93bd7a1190c7fd0f31ff2f98)
REM
REM compiler GCC version 9.2.1 20190827 (Red Hat 9.2.1-1)
REM options -cpp -mtune=generic -march=x86-64 -g -O0 -fpre-include=/usr/include/finclude/math-vector-fortran.h
REM seed -1720720242 -958180741 1682368681 1443304343 -713413884 -1294915332 494430502 522532840 -1034454731 -1202943779 -2138198364 -1709618265 273058289 1760634245 -1942448660 -1161103818 -163840992 1139274508 -1135111905 1422510031 -1446251017 -1706302757 1793550304 1351818722 -1470500851 -1113276022 -972583317 -2022328137 -308326165 807919778 116772941 562883568 264827364
REM
CELL 1.54180   50.00000   50.00000   50.00000   90.00000   90.00000   90.00000
LATT -1
SFAC C  
C      1  0.5021770000000  0.4405920000000  0.5515960000000 1.0
C      1  0.4942040000000  0.5720730000000  0.5478480000000 1.0
C      1  0.5101940000000  0.4218810000000  0.4587550000000 1.0
C      1  0.4949990000000  0.5700300000000  0.4671320000000 1.0
C      1  0.5595890000000  0.4857550000000  0.5103030000000 1.0
C      1  0.4327260000000  0.5056860000000  0.5000000000000 1.0
C      1  0.5579120000000  0.4840600000000  0.4811200000000 1.0
C      1  0.4380920000000  0.5112610000000  0.4718970000000 1.0
C      1  0.5259200000000  0.4426090000000  0.4436410000000 1.0
C      1  0.4774130000000  0.5532960000000  0.4488430000000 1.0
C      1  0.5167950000000  0.4662550000000  0.5599960000000 1.0
C      1  0.4906760000000  0.5553090000000  0.5708710000000 1.0
C      1  0.5313340000000  0.5332810000000  0.5700890000000 1.0
C      1  0.4719400000000  0.4857510000000  0.5620650000000 1.0
C      1  0.5186140000000  0.5346120000000  0.4334120000000 1.0
C      1  0.4836170000000  0.4606540000000  0.4249810000000 1.0
C      1  0.4936890000000  0.5205010000000  0.4741990000000 1.0
C      1  0.5029410000000  0.4718400000000  0.4682890000000 1.0
C      1  0.5028700000000  0.5315430000000  0.5321660000000 1.0
C      1  0.5025710000000  0.4871810000000  0.5213270000000 1.0
C      1  0.4829700000000  0.4921830000000  0.4766320000000 1.0
C      1  0.5217130000000  0.5225020000000  0.4858900000000 1.0
C      1  0.4782860000000  0.4876460000000  0.5049320000000 1.0
C      1  0.5190480000000  0.5118740000000  0.5156350000000 1.0
C      1  0.4982990000000  0.4887690000000  0.5520570000000 1.0
C      1  0.5040400000000  0.5313280000000  0.5628500000000 1.0
C      1  0.5072740000000  0.4653680000000  0.4401310000000 1.0
C      1  0.4932420000000  0.5290850000000  0.4446530000000 1.0
C      1  0.4491180000000  0.4603540000000  0.4604420000000 1.0
C      1  0.5580080000000  0.5302490000000  0.4609030000000 1.0
C      1  0.4419450000000  0.4679670000000  0.5305060000000 1.0
C      1  0.5604430000000  0.5319170000000  0.5324860000000 1.0
C      1  0.5213950000000  0.5583210000000  0.4732890000000 1.0
C      1  0.4823850000000  0.4225980000000  0.4523660000000 1.0
C      1  0.5185150000000  0.5598440000000  0.5319730000000 1.0
C      1  0.4741950000000  0.4403860000000  0.5563990000000 1.0
C      1  0.4731320000000  0.5396470000000  0.4908710000000 1.0
C      1  0.5227130000000  0.4570220000000  0.4855490000000 1.0
C      1  0.4736560000000  0.5373980000000  0.5220720000000 1.0
C      1  0.5213060000000  0.4632900000000  0.5158530000000 1.0
C      1  0.4504740000000  0.5384260000000  0.4704870000000 1.0
C      1  0.5486570000000  0.4578000000000  0.4706780000000 1.0
C      1  0.4520810000000  0.5187910000000  0.5310090000000 1.0
C      1  0.5419770000000  0.4693560000000  0.5409830000000 1.0
C      1  0.4521290000000  0.4929830000000  0.5173250000000 1.0
C      1  0.5459610000000  0.5055730000000  0.5277140000000 1.0
C      1  0.4571650000000  0.4899320000000  0.4606900000000 1.0
C      1  0.5418680000000  0.5064940000000  0.4687630000000 1.0
C      1  0.5712090000000  0.5414740000000  0.4829710000000 1.0
C      1  0.4412440000000  0.4487560000000  0.4850160000000 1.0
C      1  0.5709280000000  0.5437580000000  0.5095930000000 1.0
C      1  0.4380350000000  0.4475880000000  0.5117280000000 1.0
C      1  0.4800270000000  0.5697630000000  0.4921130000000 1.0
C      1  0.5143650000000  0.4282320000000  0.4868040000000 1.0
C      1  0.4717230000000  0.5668800000000  0.5293490000000 1.0
C      1  0.5083990000000  0.4375520000000  0.5235770000000 1.0
C      1  0.4573890000000  0.4628630000000  0.5550960000000 1.0
C      1  0.5420460000000  0.5490790000000  0.5487290000000 1.0
C      1  0.4678790000000  0.4448540000000  0.4425480000000 1.0
C      1  0.5364880000000  0.5479270000000  0.4508080000000 1.0
END
