TITL C-8693-7204-326 -1.64952794441007e-05 125000 -356.522556890194 0 0 60 (C1) n - 1
REM
REM in /home/bkarasulu/CARBON/AIRSS/Generating-Clusters/EDIP-Nigel-Params/Higher-Symm/Box-15A/Only-C60/SD-CG/HFTN-CG
REM
REM
REM
REM
REM
REM ./C.cell (414f73aa93bd7a1190c7fd0f31ff2f98)
REM
REM compiler GCC version 9.2.1 20190827 (Red Hat 9.2.1-1)
REM options -cpp -mtune=generic -march=x86-64 -g -O0 -fpre-include=/usr/include/finclude/math-vector-fortran.h
REM seed 2035824471 -548924873 -801790009 1874029783 1577352586 -375169912 1162866496 1572271891 1510870386 218713406 759234778 2086860253 -1375199483 1342151774 -1902905790 -1804792541 -1243969155 -519305518 -339415418 494182922 1298953266 -995278982 -656637258 -99853406 -520959459 228160847 -2044598620 -1717161096 -1676449764 -2034353221 -928847113 -9241448 -87821411
REM
CELL 1.54180   50.00000   50.00000   50.00000   90.00000   90.00000   90.00000
LATT -1
SFAC C  
C      1  0.4970990000000  0.4275330000000  0.5143370000000 1.0
C      1  0.5870400000000  0.4859920000000  0.5025270000000 1.0
C      1  0.5352820000000  0.5670420000000  0.5127170000000 1.0
C      1  0.4554140000000  0.5435010000000  0.5074580000000 1.0
C      1  0.4333050000000  0.4818660000000  0.5084780000000 1.0
C      1  0.4981860000000  0.5760460000000  0.5116030000000 1.0
C      1  0.5883640000000  0.5172760000000  0.5033170000000 1.0
C      1  0.5338430000000  0.4372380000000  0.5133380000000 1.0
C      1  0.4532610000000  0.4614320000000  0.5137930000000 1.0
C      1  0.4269510000000  0.5331690000000  0.5036340000000 1.0
C      1  0.4858200000000  0.5771080000000  0.4848850000000 1.0
C      1  0.4226310000000  0.5194720000000  0.4767090000000 1.0
C      1  0.4635540000000  0.4500610000000  0.4867870000000 1.0
C      1  0.5412680000000  0.4384310000000  0.4856520000000 1.0
C      1  0.5921940000000  0.5304260000000  0.4776400000000 1.0
C      1  0.4826020000000  0.4262070000000  0.4889230000000 1.0
C      1  0.4304180000000  0.4903760000000  0.4800430000000 1.0
C      1  0.4673330000000  0.5532200000000  0.4812380000000 1.0
C      1  0.5438210000000  0.5646650000000  0.4850020000000 1.0
C      1  0.5887460000000  0.4743510000000  0.4758860000000 1.0
C      1  0.4454170000000  0.5589760000000  0.4622490000000 1.0
C      1  0.4346610000000  0.4695760000000  0.4580180000000 1.0
C      1  0.5021580000000  0.4306120000000  0.4662270000000 1.0
C      1  0.5859750000000  0.4896140000000  0.4522390000000 1.0
C      1  0.5315400000000  0.5848150000000  0.4691060000000 1.0
C      1  0.4409290000000  0.4443530000000  0.4688010000000 1.0
C      1  0.4386600000000  0.5320440000000  0.4548140000000 1.0
C      1  0.5062640000000  0.5729260000000  0.4630690000000 1.0
C      1  0.5896300000000  0.5175220000000  0.4526890000000 1.0
C      1  0.5276910000000  0.4186020000000  0.4704930000000 1.0
C      1  0.5529100000000  0.4862820000000  0.5446540000000 1.0
C      1  0.5271850000000  0.5306240000000  0.5500920000000 1.0
C      1  0.4713290000000  0.5161570000000  0.5492020000000 1.0
C      1  0.4383150000000  0.4808590000000  0.5685740000000 1.0
C      1  0.4929070000000  0.4574230000000  0.5550030000000 1.0
C      1  0.5528900000000  0.5169670000000  0.5456910000000 1.0
C      1  0.5277180000000  0.4726840000000  0.5498610000000 1.0
C      1  0.4658240000000  0.4549610000000  0.5625920000000 1.0
C      1  0.4429760000000  0.5066170000000  0.5562560000000 1.0
C      1  0.4894490000000  0.5388500000000  0.5507280000000 1.0
C      1  0.4354760000000  0.5073920000000  0.5241610000000 1.0
C      1  0.4471590000000  0.4489360000000  0.5402420000000 1.0
C      1  0.5225780000000  0.4626290000000  0.5227570000000 1.0
C      1  0.5607260000000  0.5189080000000  0.5159870000000 1.0
C      1  0.4963260000000  0.5491270000000  0.5238720000000 1.0
C      1  0.4239080000000  0.4619450000000  0.5522070000000 1.0
C      1  0.4651730000000  0.5180780000000  0.5199430000000 1.0
C      1  0.5241100000000  0.5424310000000  0.5237410000000 1.0
C      1  0.5591830000000  0.4861040000000  0.5147090000000 1.0
C      1  0.4951420000000  0.4540190000000  0.5264950000000 1.0
C      1  0.5565220000000  0.5165940000000  0.4725250000000 1.0
C      1  0.5094770000000  0.5428080000000  0.4594510000000 1.0
C      1  0.4642030000000  0.5162260000000  0.4519500000000 1.0
C      1  0.4804170000000  0.4721520000000  0.4738560000000 1.0
C      1  0.5307640000000  0.4656020000000  0.4792880000000 1.0
C      1  0.5519870000000  0.4858710000000  0.4709240000000 1.0
C      1  0.5055900000000  0.4606280000000  0.4637130000000 1.0
C      1  0.4610390000000  0.4859340000000  0.4560480000000 1.0
C      1  0.4838410000000  0.5308430000000  0.4688270000000 1.0
C      1  0.5348190000000  0.5378980000000  0.4749790000000 1.0
END
