TITL C-8697-8172-195 -3.85587516544361e-05 125000 -364.424388593055 0 0 60 (C1) n - 1
REM
REM in /home/bkarasulu/CARBON/AIRSS/Generating-Clusters/EDIP-Nigel-Params/Higher-Symm/Box-15A/Only-C60/SD-CG/HFTN-CG
REM
REM
REM
REM
REM
REM ./C.cell (414f73aa93bd7a1190c7fd0f31ff2f98)
REM
REM compiler GCC version 9.2.1 20190827 (Red Hat 9.2.1-1)
REM options -cpp -mtune=generic -march=x86-64 -g -O0 -fpre-include=/usr/include/finclude/math-vector-fortran.h
REM seed -876753460 453678079 -1768589960 180530179 -949310018 1145373096 1759249665 550368778 275530624 -1989267818 -880054763 584506594 -136749514 324821632 1643240212 -1784197317 2081248630 -1503832357 760205270 -523374 279676412 61326195 -196513989 -268797799 2120447654 1272956838 -989491922 138534664 1073962941 393102568 699096598 -601976370 -1692127712
REM
CELL 1.54180   50.00000   50.00000   50.00000   90.00000   90.00000   90.00000
LATT -1
SFAC C  
C      1  0.5086280000000  0.5132050000000  0.4697940000000 1.0
C      1  0.5081790000000  0.5131450000000  0.5312620000000 1.0
C      1  0.5416730000000  0.4854430000000  0.5552710000000 1.0
C      1  0.5415430000000  0.4852450000000  0.4448600000000 1.0
C      1  0.5036810000000  0.4503080000000  0.4406140000000 1.0
C      1  0.5039850000000  0.4500990000000  0.5595160000000 1.0
C      1  0.5267470000000  0.5737540000000  0.5275830000000 1.0
C      1  0.5250970000000  0.5723750000000  0.4708040000000 1.0
C      1  0.4889880000000  0.4954880000000  0.4244330000000 1.0
C      1  0.4893590000000  0.4947810000000  0.5768620000000 1.0
C      1  0.4821250000000  0.5017460000000  0.5193120000000 1.0
C      1  0.4826880000000  0.5016880000000  0.4812090000000 1.0
C      1  0.4767680000000  0.4288420000000  0.4809810000000 1.0
C      1  0.4768490000000  0.4286890000000  0.5189290000000 1.0
C      1  0.4695790000000  0.5155730000000  0.4318600000000 1.0
C      1  0.4692950000000  0.5146810000000  0.5694790000000 1.0
C      1  0.4608460000000  0.5033510000000  0.5441050000000 1.0
C      1  0.4622210000000  0.5060630000000  0.4583230000000 1.0
C      1  0.5536050000000  0.5094910000000  0.4855710000000 1.0
C      1  0.5531190000000  0.5098000000000  0.5143350000000 1.0
C      1  0.4301530000000  0.4922120000000  0.5140340000000 1.0
C      1  0.4294120000000  0.4922680000000  0.4848450000000 1.0
C      1  0.4655410000000  0.4563710000000  0.4850990000000 1.0
C      1  0.4654610000000  0.4561870000000  0.5147880000000 1.0
C      1  0.4415060000000  0.5168240000000  0.5274130000000 1.0
C      1  0.4383590000000  0.5183030000000  0.4699520000000 1.0
C      1  0.5364960000000  0.5111000000000  0.4313000000000 1.0
C      1  0.5365540000000  0.5113880000000  0.5688490000000 1.0
C      1  0.4963600000000  0.5622770000000  0.4721730000000 1.0
C      1  0.4989980000000  0.5631270000000  0.5311710000000 1.0
C      1  0.4723870000000  0.5561200000000  0.5251600000000 1.0
C      1  0.4681130000000  0.5588180000000  0.4718420000000 1.0
C      1  0.5290100000000  0.4621240000000  0.5644550000000 1.0
C      1  0.5287560000000  0.4620850000000  0.4355690000000 1.0
C      1  0.5254060000000  0.4393500000000  0.5190130000000 1.0
C      1  0.5252920000000  0.4393040000000  0.4810640000000 1.0
C      1  0.4832410000000  0.4699000000000  0.5627200000000 1.0
C      1  0.4829680000000  0.4701330000000  0.4375000000000 1.0
C      1  0.4396660000000  0.4669350000000  0.4753120000000 1.0
C      1  0.4394380000000  0.4667420000000  0.5240660000000 1.0
C      1  0.5165010000000  0.4682830000000  0.5151190000000 1.0
C      1  0.5165520000000  0.4682340000000  0.4851320000000 1.0
C      1  0.4485410000000  0.5429580000000  0.4851210000000 1.0
C      1  0.4564410000000  0.5370290000000  0.5120900000000 1.0
C      1  0.5112150000000  0.5394480000000  0.4853940000000 1.0
C      1  0.5115180000000  0.5396250000000  0.5164480000000 1.0
C      1  0.5493930000000  0.5598430000000  0.4836820000000 1.0
C      1  0.5499440000000  0.5601690000000  0.5149530000000 1.0
C      1  0.5023310000000  0.4310790000000  0.4647170000000 1.0
C      1  0.5024570000000  0.4309620000000  0.5352820000000 1.0
C      1  0.5321690000000  0.4929810000000  0.5278140000000 1.0
C      1  0.5324540000000  0.4927700000000  0.4724760000000 1.0
C      1  0.5520090000000  0.5316410000000  0.5566960000000 1.0
C      1  0.5527360000000  0.5310260000000  0.4427560000000 1.0
C      1  0.5073180000000  0.5164480000000  0.5619700000000 1.0
C      1  0.5076740000000  0.5167380000000  0.4391580000000 1.0
C      1  0.4876090000000  0.4733150000000  0.4747930000000 1.0
C      1  0.4874330000000  0.4730610000000  0.5255350000000 1.0
C      1  0.5590640000000  0.5343400000000  0.4701920000000 1.0
C      1  0.5585490000000  0.5347180000000  0.5292450000000 1.0
END
