TITL C-8694-7203-136 0.00286156674513446 125000 -354.871830298384 0 0 60 (C1) n - 1
REM
REM in /home/bkarasulu/CARBON/AIRSS/Generating-Clusters/EDIP-Nigel-Params/Higher-Symm/Box-15A/Only-C60/SD-CG/HFTN-CG
REM
REM
REM
REM
REM
REM ./C.cell (414f73aa93bd7a1190c7fd0f31ff2f98)
REM
REM compiler GCC version 9.2.1 20190827 (Red Hat 9.2.1-1)
REM options -cpp -mtune=generic -march=x86-64 -g -O0 -fpre-include=/usr/include/finclude/math-vector-fortran.h
REM seed -1779118418 -437532780 -1728651496 -825560048 -1235496446 -1463727379 -2111103689 -2026241524 1751296252 -1101294572 -1872787079 1554505463 1507133593 1308589495 962790388 -553721988 2083082240 -589577173 1151608519 174914858 1698229643 -1527458613 1963562757 -2146857123 777330286 -711905466 -2089775688 -424347218 -1753435236 -841612836 -1459137906 -596719021 -1827949320
REM
CELL 1.54180   50.00000   50.00000   50.00000   90.00000   90.00000   90.00000
LATT -1
SFAC C  
C      1  0.5072800000000  0.4612190000000  0.4541170000000 1.0
C      1  0.4603620000000  0.4616050000000  0.5082920000000 1.0
C      1  0.5430200000000  0.4601480000000  0.5347390000000 1.0
C      1  0.5242210000000  0.4870200000000  0.4530140000000 1.0
C      1  0.4473490000000  0.4875630000000  0.4983820000000 1.0
C      1  0.5332100000000  0.4872950000000  0.5455920000000 1.0
C      1  0.5406330000000  0.5340380000000  0.4709990000000 1.0
C      1  0.4545450000000  0.5349330000000  0.4775320000000 1.0
C      1  0.5023270000000  0.5349920000000  0.5502540000000 1.0
C      1  0.4753960000000  0.5096010000000  0.4401850000000 1.0
C      1  0.4613390000000  0.5072500000000  0.5486740000000 1.0
C      1  0.5611870000000  0.5074250000000  0.5079630000000 1.0
C      1  0.4670130000000  0.5485150000000  0.5262260000000 1.0
C      1  0.5408560000000  0.5498230000000  0.5141710000000 1.0
C      1  0.4928820000000  0.5497280000000  0.4574030000000 1.0
C      1  0.4617810000000  0.4402810000000  0.4586270000000 1.0
C      1  0.4833460000000  0.4390210000000  0.5493590000000 1.0
C      1  0.5486850000000  0.4375200000000  0.4893210000000 1.0
C      1  0.4788730000000  0.4617380000000  0.4473160000000 1.0
C      1  0.4680510000000  0.4605100000000  0.5373010000000 1.0
C      1  0.5552920000000  0.4588910000000  0.5078040000000 1.0
C      1  0.5169090000000  0.4363150000000  0.4674900000000 1.0
C      1  0.4662150000000  0.4370570000000  0.4890820000000 1.0
C      1  0.5199700000000  0.4412100000000  0.5360970000000 1.0
C      1  0.4560140000000  0.5625620000000  0.4855240000000 1.0
C      1  0.5080590000000  0.5628830000000  0.5455850000000 1.0
C      1  0.5341370000000  0.5620120000000  0.4684130000000 1.0
C      1  0.4409850000000  0.5384770000000  0.5195740000000 1.0
C      1  0.5453860000000  0.5382490000000  0.5403940000000 1.0
C      1  0.5114020000000  0.5391610000000  0.4381590000000 1.0
C      1  0.4732460000000  0.5337590000000  0.5500840000000 1.0
C      1  0.5557470000000  0.5333370000000  0.4959240000000 1.0
C      1  0.4686970000000  0.5352220000000  0.4519890000000 1.0
C      1  0.4410520000000  0.4817180000000  0.4691750000000 1.0
C      1  0.5056700000000  0.4804880000000  0.5615760000000 1.0
C      1  0.5511840000000  0.4784650000000  0.4647090000000 1.0
C      1  0.5064690000000  0.4503470000000  0.5631010000000 1.0
C      1  0.5521260000000  0.4491320000000  0.4634520000000 1.0
C      1  0.4374800000000  0.4529870000000  0.4675000000000 1.0
C      1  0.4887180000000  0.5689560000000  0.5254570000000 1.0
C      1  0.5276980000000  0.5687170000000  0.4954060000000 1.0
C      1  0.4826430000000  0.5691570000000  0.4775080000000 1.0
C      1  0.4666710000000  0.5143420000000  0.4978180000000 1.0
C      1  0.5150880000000  0.5168860000000  0.5283600000000 1.0
C      1  0.5162350000000  0.5144080000000  0.4707940000000 1.0
C      1  0.5525440000000  0.4836660000000  0.4937890000000 1.0
C      1  0.4664590000000  0.4864900000000  0.4548860000000 1.0
C      1  0.4804390000000  0.4855030000000  0.5458300000000 1.0
C      1  0.5550060000000  0.5103330000000  0.5373360000000 1.0
C      1  0.5037660000000  0.5119000000000  0.4321700000000 1.0
C      1  0.4401500000000  0.5106640000000  0.5281270000000 1.0
C      1  0.5007350000000  0.6336150000000  0.5001350000000 1.0
C      1  0.5010390000000  0.4038250000000  0.5015670000000 1.0
C      1  0.5031830000000  0.3790920000000  0.5078540000000 1.0
C      1  0.4998330000000  0.5068110000000  0.4999040000000 1.0
C      1  0.4970780000000  0.4299450000000  0.4913200000000 1.0
C      1  0.4999140000000  0.5796030000000  0.4996390000000 1.0
C      1  0.5030090000000  0.4503450000000  0.5117190000000 1.0
C      1  0.5001050000000  0.6079930000000  0.4997040000000 1.0
C      1  0.5014730000000  0.4778330000000  0.5030220000000 1.0
END
