TITL C-8693-7204-81 5.18570770099619e-06 125000 -362.482917617226 0 0 60 (C1) n - 1
REM
REM in /home/bkarasulu/CARBON/AIRSS/Generating-Clusters/EDIP-Nigel-Params/Higher-Symm/Box-15A/Only-C60/SD-CG/HFTN-CG
REM
REM
REM
REM
REM
REM ./C.cell (414f73aa93bd7a1190c7fd0f31ff2f98)
REM
REM compiler GCC version 9.2.1 20190827 (Red Hat 9.2.1-1)
REM options -cpp -mtune=generic -march=x86-64 -g -O0 -fpre-include=/usr/include/finclude/math-vector-fortran.h
REM seed -550668290 271214827 -770865178 -1621176027 -1989475698 -194573042 817615172 -1709501961 -158273886 397468891 -135388618 1032406327 -1866924200 74039489 -1959719029 285111407 -1213004927 -606169142 646077259 -308411343 63364025 1888522861 -941427115 -928191529 -1906902397 694726720 -279452931 -1862312900 1648767273 -1237183835 -990928567 -1914806160 -1360259890
REM
CELL 1.54180   50.00000   50.00000   50.00000   90.00000   90.00000   90.00000
LATT -1
SFAC C  
C      1  0.4861630000000  0.5318110000000  0.4302210000000 1.0
C      1  0.4380870000000  0.5237320000000  0.5557500000000 1.0
C      1  0.5671390000000  0.5272320000000  0.5208090000000 1.0
C      1  0.4929930000000  0.4632010000000  0.4310270000000 1.0
C      1  0.4416100000000  0.4666860000000  0.5468090000000 1.0
C      1  0.5629340000000  0.4767490000000  0.5139530000000 1.0
C      1  0.4721190000000  0.4890540000000  0.4934900000000 1.0
C      1  0.5096290000000  0.4888230000000  0.5252230000000 1.0
C      1  0.5177740000000  0.4911510000000  0.4743460000000 1.0
C      1  0.4688310000000  0.5190060000000  0.4975090000000 1.0
C      1  0.5099370000000  0.5199510000000  0.5258160000000 1.0
C      1  0.5150450000000  0.5231970000000  0.4753810000000 1.0
C      1  0.5520190000000  0.5367710000000  0.5424260000000 1.0
C      1  0.5135000000000  0.5293970000000  0.4275050000000 1.0
C      1  0.4353540000000  0.5271080000000  0.5276970000000 1.0
C      1  0.5526630000000  0.4665600000000  0.5393340000000 1.0
C      1  0.5194910000000  0.4571970000000  0.4396800000000 1.0
C      1  0.4366710000000  0.4573960000000  0.5204590000000 1.0
C      1  0.4730470000000  0.5582350000000  0.5195390000000 1.0
C      1  0.5205950000000  0.5592880000000  0.5081210000000 1.0
C      1  0.4921840000000  0.5610470000000  0.4971790000000 1.0
C      1  0.4832100000000  0.4473880000000  0.5127290000000 1.0
C      1  0.5167020000000  0.4474750000000  0.5096700000000 1.0
C      1  0.4956230000000  0.4491780000000  0.4765870000000 1.0
C      1  0.5382910000000  0.5171530000000  0.5593310000000 1.0
C      1  0.5394140000000  0.5012380000000  0.4290870000000 1.0
C      1  0.4268850000000  0.5080670000000  0.5059520000000 1.0
C      1  0.5392850000000  0.4870570000000  0.5579500000000 1.0
C      1  0.5342420000000  0.4810800000000  0.4499100000000 1.0
C      1  0.4304170000000  0.4785460000000  0.5000560000000 1.0
C      1  0.5733320000000  0.4843170000000  0.4704740000000 1.0
C      1  0.4523960000000  0.4916660000000  0.4540240000000 1.0
C      1  0.4861330000000  0.4876730000000  0.5635800000000 1.0
C      1  0.5617780000000  0.5099760000000  0.4720030000000 1.0
C      1  0.4478630000000  0.5206630000000  0.4583930000000 1.0
C      1  0.4881050000000  0.5167090000000  0.5676610000000 1.0
C      1  0.5279150000000  0.5370110000000  0.4515670000000 1.0
C      1  0.4448470000000  0.5512130000000  0.5132190000000 1.0
C      1  0.5271530000000  0.5544270000000  0.5381410000000 1.0
C      1  0.5217730000000  0.4408050000000  0.4643300000000 1.0
C      1  0.4553380000000  0.4378270000000  0.5118390000000 1.0
C      1  0.5275600000000  0.4488710000000  0.5381630000000 1.0
C      1  0.5463270000000  0.4461880000000  0.4779940000000 1.0
C      1  0.4421070000000  0.4734880000000  0.4741090000000 1.0
C      1  0.5132450000000  0.4713170000000  0.5593120000000 1.0
C      1  0.5524340000000  0.5214580000000  0.4469640000000 1.0
C      1  0.4334280000000  0.5284330000000  0.4837280000000 1.0
C      1  0.5135140000000  0.5308270000000  0.5661150000000 1.0
C      1  0.5286510000000  0.5312060000000  0.5009910000000 1.0
C      1  0.4868950000000  0.5357120000000  0.4793520000000 1.0
C      1  0.4797330000000  0.5284830000000  0.5258650000000 1.0
C      1  0.5268290000000  0.4777760000000  0.5023870000000 1.0
C      1  0.4907450000000  0.4787790000000  0.4714070000000 1.0
C      1  0.4817660000000  0.4768820000000  0.5193100000000 1.0
C      1  0.4653430000000  0.4820020000000  0.5434340000000 1.0
C      1  0.5661600000000  0.4637690000000  0.4881170000000 1.0
C      1  0.4744060000000  0.4834630000000  0.4365240000000 1.0
C      1  0.4643230000000  0.5315960000000  0.5609470000000 1.0
C      1  0.5665510000000  0.5286620000000  0.4933360000000 1.0
C      1  0.4714930000000  0.5380260000000  0.4531680000000 1.0
END
