TITL C-8691-6797-18 -1.23206396893227e-06 125000 -363.303328127167 0 0 60 (C1) n - 1
REM
REM in /home/bkarasulu/CARBON/AIRSS/Generating-Clusters/EDIP-Nigel-Params/Higher-Symm/Box-15A/Only-C60/SD-CG/HFTN-CG
REM
REM
REM
REM
REM
REM ./C.cell (414f73aa93bd7a1190c7fd0f31ff2f98)
REM
REM compiler GCC version 9.2.1 20190827 (Red Hat 9.2.1-1)
REM options -cpp -mtune=generic -march=x86-64 -g -O0 -fpre-include=/usr/include/finclude/math-vector-fortran.h
REM seed -1976513069 904385359 696953822 -1756503625 1251860500 360873380 -1016414884 1617922147 -1281667762 1302935352 -1106477172 -747839456 -550191223 -334394208 -306100888 1453067210 -1160312978 1059230619 1580638480 2040406568 -1528723759 22149646 -1301101144 -1232073228 -1288351898 -848163853 -246065558 -1537013348 1047927791 -1806495844 -1048533069 379818881 -726137530
REM
CELL 1.54180   50.00000   50.00000   50.00000   90.00000   90.00000   90.00000
LATT -1
SFAC C  
C      1  0.5220960000000  0.5291120000000  0.4337000000000 1.0
C      1  0.4523210000000  0.4827300000000  0.4965540000000 1.0
C      1  0.5508670000000  0.5369530000000  0.5172250000000 1.0
C      1  0.5176560000000  0.4451220000000  0.5368750000000 1.0
C      1  0.5404290000000  0.5012430000000  0.5472780000000 1.0
C      1  0.4744090000000  0.5452380000000  0.4673490000000 1.0
C      1  0.4976090000000  0.4470110000000  0.4574270000000 1.0
C      1  0.4861970000000  0.5206560000000  0.5013350000000 1.0
C      1  0.4599060000000  0.5392510000000  0.5317000000000 1.0
C      1  0.5484240000000  0.4814830000000  0.5267230000000 1.0
C      1  0.5075860000000  0.4957700000000  0.4655060000000 1.0
C      1  0.5249110000000  0.4994100000000  0.4402650000000 1.0
C      1  0.4559710000000  0.4867840000000  0.5450540000000 1.0
C      1  0.4893880000000  0.5404320000000  0.5750120000000 1.0
C      1  0.5464350000000  0.4337350000000  0.4808820000000 1.0
C      1  0.4580650000000  0.4528930000000  0.4939820000000 1.0
C      1  0.4385240000000  0.5224150000000  0.5236870000000 1.0
C      1  0.5621000000000  0.4904620000000  0.5023200000000 1.0
C      1  0.4818720000000  0.4900440000000  0.4995620000000 1.0
C      1  0.5199540000000  0.5025620000000  0.5690330000000 1.0
C      1  0.5004250000000  0.5096350000000  0.5300700000000 1.0
C      1  0.4988490000000  0.4844070000000  0.5777980000000 1.0
C      1  0.5521370000000  0.4967310000000  0.4536310000000 1.0
C      1  0.4286730000000  0.5198830000000  0.4768750000000 1.0
C      1  0.4684320000000  0.4605130000000  0.5445020000000 1.0
C      1  0.5078600000000  0.5218270000000  0.4822500000000 1.0
C      1  0.4655730000000  0.5409680000000  0.5603460000000 1.0
C      1  0.4688750000000  0.4442480000000  0.4657010000000 1.0
C      1  0.4541520000000  0.4555770000000  0.4441450000000 1.0
C      1  0.5211690000000  0.4733900000000  0.4828140000000 1.0
C      1  0.5515120000000  0.4776310000000  0.4769460000000 1.0
C      1  0.4737000000000  0.4464110000000  0.5187200000000 1.0
C      1  0.4881740000000  0.4622870000000  0.5645970000000 1.0
C      1  0.4671900000000  0.5270510000000  0.4429050000000 1.0
C      1  0.4396490000000  0.4941540000000  0.5217990000000 1.0
C      1  0.5597190000000  0.5190430000000  0.4964230000000 1.0
C      1  0.4966810000000  0.5638710000000  0.4570510000000 1.0
C      1  0.5385390000000  0.5428910000000  0.4552020000000 1.0
C      1  0.4999800000000  0.5585840000000  0.5089160000000 1.0
C      1  0.4655030000000  0.4999210000000  0.4530910000000 1.0
C      1  0.4550840000000  0.5581140000000  0.4864020000000 1.0
C      1  0.5578300000000  0.5228940000000  0.4664960000000 1.0
C      1  0.5435630000000  0.4525600000000  0.5286940000000 1.0
C      1  0.4996920000000  0.4699390000000  0.4375000000000 1.0
C      1  0.4944370000000  0.5432660000000  0.4331080000000 1.0
C      1  0.5159490000000  0.5308870000000  0.5757050000000 1.0
C      1  0.5524280000000  0.5280710000000  0.5446310000000 1.0
C      1  0.5347450000000  0.5456840000000  0.5597570000000 1.0
C      1  0.4999430000000  0.4357880000000  0.5171420000000 1.0
C      1  0.5181430000000  0.4356500000000  0.4745080000000 1.0
C      1  0.4790660000000  0.5058810000000  0.5530720000000 1.0
C      1  0.5632670000000  0.4522640000000  0.4682660000000 1.0
C      1  0.4428170000000  0.4963300000000  0.4715340000000 1.0
C      1  0.4698650000000  0.5595090000000  0.5124410000000 1.0
C      1  0.5518930000000  0.4354110000000  0.5081150000000 1.0
C      1  0.4707890000000  0.4771330000000  0.4357280000000 1.0
C      1  0.4301800000000  0.5451410000000  0.4865300000000 1.0
C      1  0.5139600000000  0.5392740000000  0.5279910000000 1.0
C      1  0.5167930000000  0.5507110000000  0.4755130000000 1.0
C      1  0.5080460000000  0.4731630000000  0.5116170000000 1.0
END
