TITL C-8693-7204-147 -1.64919684949302e-06 125000 -367.741372875719 0 0 60 (C1) n - 1
REM
REM in /home/bkarasulu/CARBON/AIRSS/Generating-Clusters/EDIP-Nigel-Params/Higher-Symm/Box-15A/Only-C60/SD-CG/HFTN-CG
REM
REM
REM
REM
REM
REM ./C.cell (414f73aa93bd7a1190c7fd0f31ff2f98)
REM
REM compiler GCC version 9.2.1 20190827 (Red Hat 9.2.1-1)
REM options -cpp -mtune=generic -march=x86-64 -g -O0 -fpre-include=/usr/include/finclude/math-vector-fortran.h
REM seed 321256851 851496319 197748024 1203985303 1643952189 -179798460 668006101 351675731 1290397658 -385153406 653842745 -890947018 104195222 -1098312248 812821657 877777068 644334267 -1172483936 41357627 223343900 1446772316 -1916078258 580400666 -424603295 -65433419 1205334741 979877934 -1598200923 -369676444 -949700649 -1250955305 -2144611414 1679518916
REM
CELL 1.54180   50.00000   50.00000   50.00000   90.00000   90.00000   90.00000
LATT -1
SFAC C  
C      1  0.4789290000000  0.4875870000000  0.4448220000000 1.0
C      1  0.4791360000000  0.5175910000000  0.4455310000000 1.0
C      1  0.5077110000000  0.5269810000000  0.4457990000000 1.0
C      1  0.5247300000000  0.5023120000000  0.4456190000000 1.0
C      1  0.5071290000000  0.4783100000000  0.4445550000000 1.0
C      1  0.5525410000000  0.4726970000000  0.5326530000000 1.0
C      1  0.4913580000000  0.4413380000000  0.5311270000000 1.0
C      1  0.4429560000000  0.4900260000000  0.5314610000000 1.0
C      1  0.4744770000000  0.5484950000000  0.5317290000000 1.0
C      1  0.5377360000000  0.5392710000000  0.5312640000000 1.0
C      1  0.5735800000000  0.5225200000000  0.4661270000000 1.0
C      1  0.5481880000000  0.4426390000000  0.4655790000000 1.0
C      1  0.4576500000000  0.4358860000000  0.4644600000000 1.0
C      1  0.4241120000000  0.5215780000000  0.4665570000000 1.0
C      1  0.4905000000000  0.5804550000000  0.4653550000000 1.0
C      1  0.5343930000000  0.4603620000000  0.5111590000000 1.0
C      1  0.4727250000000  0.4547590000000  0.5103200000000 1.0
C      1  0.4495110000000  0.5117730000000  0.5103930000000 1.0
C      1  0.4959660000000  0.5513020000000  0.5100370000000 1.0
C      1  0.5493400000000  0.5203150000000  0.5106240000000 1.0
C      1  0.4998510000000  0.5237200000000  0.4988230000000 1.0
C      1  0.5260630000000  0.5076660000000  0.4955370000000 1.0
C      1  0.5160660000000  0.4817860000000  0.5050520000000 1.0
C      1  0.4879580000000  0.4793300000000  0.5038320000000 1.0
C      1  0.4777490000000  0.5055090000000  0.5025730000000 1.0
C      1  0.4382300000000  0.5469970000000  0.4640470000000 1.0
C      1  0.5165470000000  0.5773250000000  0.4551570000000 1.0
C      1  0.5813920000000  0.4959400000000  0.4698160000000 1.0
C      1  0.5223210000000  0.4302800000000  0.4612040000000 1.0
C      1  0.4383850000000  0.4575170000000  0.4615430000000 1.0
C      1  0.4624240000000  0.5279360000000  0.4683840000000 1.0
C      1  0.5141400000000  0.5494120000000  0.4665780000000 1.0
C      1  0.5428600000000  0.5003990000000  0.4693680000000 1.0
C      1  0.5130020000000  0.4593290000000  0.4675200000000 1.0
C      1  0.4640750000000  0.4740770000000  0.4676240000000 1.0
C      1  0.5213950000000  0.5601640000000  0.5212380000000 1.0
C      1  0.5675840000000  0.4951090000000  0.5183510000000 1.0
C      1  0.5164650000000  0.4350580000000  0.5147990000000 1.0
C      1  0.4436180000000  0.4642970000000  0.5153920000000 1.0
C      1  0.4493130000000  0.5417240000000  0.5170010000000 1.0
C      1  0.4941920000000  0.4550520000000  0.5569710000000 1.0
C      1  0.4566760000000  0.4907010000000  0.5573990000000 1.0
C      1  0.4802610000000  0.5351060000000  0.5571140000000 1.0
C      1  0.5307910000000  0.5294010000000  0.5574880000000 1.0
C      1  0.5406650000000  0.4788730000000  0.5585540000000 1.0
C      1  0.5513570000000  0.4622160000000  0.4866830000000 1.0
C      1  0.4756030000000  0.4362590000000  0.4868780000000 1.0
C      1  0.4313110000000  0.5038360000000  0.4879870000000 1.0
C      1  0.4811170000000  0.5681010000000  0.4893140000000 1.0
C      1  0.5602340000000  0.5368470000000  0.4869620000000 1.0
C      1  0.5420830000000  0.5555660000000  0.4746140000000 1.0
C      1  0.5742730000000  0.4799390000000  0.4925150000000 1.0
C      1  0.5043900000000  0.4267790000000  0.4873090000000 1.0
C      1  0.4310780000000  0.4735010000000  0.4883500000000 1.0
C      1  0.4524690000000  0.5581610000000  0.4909660000000 1.0
C      1  0.5418880000000  0.5055350000000  0.5662110000000 1.0
C      1  0.5195530000000  0.4622510000000  0.5658820000000 1.0
C      1  0.4713740000000  0.4685130000000  0.5655300000000 1.0
C      1  0.4625140000000  0.5161860000000  0.5669910000000 1.0
C      1  0.5060610000000  0.5374010000000  0.5672700000000 1.0
END
