TITL C-8699-7882-303 3.19953481332926e-05 125000 -346.387372220887 0 0 60 (C1) n - 1
REM
REM in /home/bkarasulu/CARBON/AIRSS/Generating-Clusters/EDIP-Nigel-Params/Higher-Symm/Box-15A/Only-C60/SD-CG/HFTN-CG
REM
REM
REM
REM
REM
REM ./C.cell (414f73aa93bd7a1190c7fd0f31ff2f98)
REM
REM compiler GCC version 9.2.1 20190827 (Red Hat 9.2.1-1)
REM options -cpp -mtune=generic -march=x86-64 -g -O0 -fpre-include=/usr/include/finclude/math-vector-fortran.h
REM seed 424047385 1354956314 1111435407 -1705975088 691721767 1304367095 2055388820 1080499443 -1990306777 -468704430 1920556435 -275894612 -2013518328 -2056225828 1707813489 -1761107151 -1921158018 1418899943 2113216579 -1125613415 1254446794 -879738330 -1854474044 33744019 -710013184 -352535497 -1931137120 -2039432705 913886384 -558889213 2041329144 1858104787 969006298
REM
CELL 1.54180   50.00000   50.00000   50.00000   90.00000   90.00000   90.00000
LATT -1
SFAC C  
C      1  0.5199920000000  0.4424180000000  0.4426750000000 1.0
C      1  0.5632260000000  0.4194750000000  0.4374650000000 1.0
C      1  0.5793270000000  0.4214670000000  0.4841220000000 1.0
C      1  0.5964480000000  0.4153800000000  0.5303620000000 1.0
C      1  0.5568990000000  0.4342680000000  0.5538050000000 1.0
C      1  0.5128270000000  0.4194740000000  0.5688380000000 1.0
C      1  0.4702030000000  0.4404860000000  0.5609400000000 1.0
C      1  0.4243370000000  0.4235210000000  0.5524590000000 1.0
C      1  0.4270770000000  0.4229880000000  0.5028700000000 1.0
C      1  0.4278990000000  0.4189570000000  0.4535090000000 1.0
C      1  0.4726790000000  0.4383230000000  0.4456090000000 1.0
C      1  0.5400460000000  0.4888460000000  0.4654970000000 1.0
C      1  0.5485660000000  0.4992960000000  0.4902320000000 1.0
C      1  0.5435890000000  0.4866760000000  0.5149530000000 1.0
C      1  0.5249710000000  0.4934920000000  0.5354570000000 1.0
C      1  0.4986160000000  0.4781610000000  0.5339860000000 1.0
C      1  0.4742100000000  0.4932810000000  0.5416050000000 1.0
C      1  0.4464680000000  0.4963120000000  0.5152400000000 1.0
C      1  0.4448700000000  0.4956800000000  0.4865650000000 1.0
C      1  0.4659550000000  0.4933690000000  0.4543770000000 1.0
C      1  0.4925940000000  0.4824390000000  0.4492890000000 1.0
C      1  0.5170080000000  0.4988760000000  0.4527430000000 1.0
C      1  0.4977480000000  0.5370630000000  0.5393680000000 1.0
C      1  0.4715070000000  0.5224200000000  0.5412400000000 1.0
C      1  0.4508950000000  0.5243950000000  0.5199490000000 1.0
C      1  0.4481380000000  0.5238650000000  0.4811090000000 1.0
C      1  0.4622720000000  0.5220020000000  0.4553040000000 1.0
C      1  0.4866830000000  0.5357850000000  0.4495240000000 1.0
C      1  0.5138870000000  0.5279990000000  0.4530580000000 1.0
C      1  0.5318450000000  0.5431090000000  0.4715530000000 1.0
C      1  0.5478810000000  0.5284640000000  0.4918820000000 1.0
C      1  0.5478480000000  0.5392480000000  0.5195420000000 1.0
C      1  0.5232950000000  0.5223440000000  0.5411510000000 1.0
C      1  0.5160890000000  0.5884060000000  0.4589670000000 1.0
C      1  0.5329450000000  0.5720030000000  0.4734630000000 1.0
C      1  0.5445670000000  0.5811430000000  0.4969850000000 1.0
C      1  0.5449380000000  0.5682060000000  0.5218170000000 1.0
C      1  0.5254890000000  0.5757090000000  0.5404940000000 1.0
C      1  0.5001850000000  0.5654160000000  0.5459030000000 1.0
C      1  0.4786130000000  0.5823500000000  0.5428050000000 1.0
C      1  0.4658560000000  0.5987030000000  0.5260740000000 1.0
C      1  0.4637620000000  0.6029300000000  0.4998030000000 1.0
C      1  0.4704840000000  0.5887510000000  0.4770420000000 1.0
C      1  0.4912520000000  0.5981500000000  0.4613510000000 1.0
C      1  0.4383170000000  0.4183960000000  0.5278030000000 1.0
C      1  0.4331280000000  0.4333820000000  0.4778790000000 1.0
C      1  0.4555700000000  0.4225050000000  0.4606080000000 1.0
C      1  0.4952110000000  0.4540900000000  0.4452520000000 1.0
C      1  0.5394020000000  0.4252550000000  0.4525120000000 1.0
C      1  0.5669560000000  0.4334180000000  0.4623670000000 1.0
C      1  0.5754110000000  0.4146030000000  0.5106980000000 1.0
C      1  0.5754150000000  0.4348630000000  0.5332140000000 1.0
C      1  0.5298770000000  0.4390110000000  0.5579530000000 1.0
C      1  0.4979000000000  0.4411750000000  0.5583960000000 1.0
C      1  0.4465730000000  0.4408210000000  0.5464400000000 1.0
C      1  0.4841290000000  0.5434680000000  0.4975570000000 1.0
C      1  0.4953680000000  0.4681930000000  0.5072560000000 1.0
C      1  0.4712460000000  0.5611260000000  0.4809800000000 1.0
C      1  0.4883770000000  0.4908210000000  0.4927830000000 1.0
C      1  0.4941850000000  0.5175080000000  0.4994430000000 1.0
END
