TITL C-8699-7882-221 -0.000611982925926019 125000 -358.500331391887 0 0 60 (C1) n - 1
REM
REM in /home/bkarasulu/CARBON/AIRSS/Generating-Clusters/EDIP-Nigel-Params/Higher-Symm/Box-15A/Only-C60/SD-CG/HFTN-CG
REM
REM
REM
REM
REM
REM ./C.cell (414f73aa93bd7a1190c7fd0f31ff2f98)
REM
REM compiler GCC version 9.2.1 20190827 (Red Hat 9.2.1-1)
REM options -cpp -mtune=generic -march=x86-64 -g -O0 -fpre-include=/usr/include/finclude/math-vector-fortran.h
REM seed -546733429 -496933316 86628244 -796943520 -1796138656 -1990354579 -1358997351 -1396323573 -1983151922 1753024566 2032806756 -1197790499 -756533910 -25899854 -1766859772 -1083852671 254264376 -634895957 -632762680 -1906899219 -863581787 1336442734 806572189 983543541 -971523870 -250123777 -399933214 -1490027689 -1430902779 -1057875985 1288114897 567252552 1447597816
REM
CELL 1.54180   50.00000   50.00000   50.00000   90.00000   90.00000   90.00000
LATT -1
SFAC C  
C      1  0.4835500000000  0.5066180000000  0.4781740000000 1.0
C      1  0.5245840000000  0.4851100000000  0.4907360000000 1.0
C      1  0.5034840000000  0.5235150000000  0.4952090000000 1.0
C      1  0.4774160000000  0.4879920000000  0.5009160000000 1.0
C      1  0.5032490000000  0.4835500000000  0.5154000000000 1.0
C      1  0.5081320000000  0.5134330000000  0.5244280000000 1.0
C      1  0.5555730000000  0.4604440000000  0.5360460000000 1.0
C      1  0.5110050000000  0.5663480000000  0.5389280000000 1.0
C      1  0.4400230000000  0.4651000000000  0.5428710000000 1.0
C      1  0.5563270000000  0.4611080000000  0.4503280000000 1.0
C      1  0.5018190000000  0.5701070000000  0.4561630000000 1.0
C      1  0.4357100000000  0.4759090000000  0.4601040000000 1.0
C      1  0.5074160000000  0.4506880000000  0.4692070000000 1.0
C      1  0.5382530000000  0.5313140000000  0.4691680000000 1.0
C      1  0.4459070000000  0.5190290000000  0.4584740000000 1.0
C      1  0.5130150000000  0.4489620000000  0.5403820000000 1.0
C      1  0.5434080000000  0.5361350000000  0.5388780000000 1.0
C      1  0.4574910000000  0.5145810000000  0.5302920000000 1.0
C      1  0.5768000000000  0.4907330000000  0.4779520000000 1.0
C      1  0.4670090000000  0.5685930000000  0.4869140000000 1.0
C      1  0.4559780000000  0.4410410000000  0.4856240000000 1.0
C      1  0.5751340000000  0.4910540000000  0.5047830000000 1.0
C      1  0.4711860000000  0.5651330000000  0.5133130000000 1.0
C      1  0.4594280000000  0.4362630000000  0.5120700000000 1.0
C      1  0.4874090000000  0.4611900000000  0.5422310000000 1.0
C      1  0.5432110000000  0.5075940000000  0.5390790000000 1.0
C      1  0.4838120000000  0.5255130000000  0.5412240000000 1.0
C      1  0.4862420000000  0.4718530000000  0.4612790000000 1.0
C      1  0.5335710000000  0.5020580000000  0.4625410000000 1.0
C      1  0.4701530000000  0.5338460000000  0.4544970000000 1.0
C      1  0.5241000000000  0.5525920000000  0.4557300000000 1.0
C      1  0.4399680000000  0.4971710000000  0.4415110000000 1.0
C      1  0.5323980000000  0.4467120000000  0.4551260000000 1.0
C      1  0.5271720000000  0.5508940000000  0.5567310000000 1.0
C      1  0.4424740000000  0.4933230000000  0.5426770000000 1.0
C      1  0.5349610000000  0.4581790000000  0.5556790000000 1.0
C      1  0.4289940000000  0.4869090000000  0.4874280000000 1.0
C      1  0.5456840000000  0.4637790000000  0.4874830000000 1.0
C      1  0.5062040000000  0.5534140000000  0.4904820000000 1.0
C      1  0.4496000000000  0.4774250000000  0.5077330000000 1.0
C      1  0.5482850000000  0.4449120000000  0.5112380000000 1.0
C      1  0.5236640000000  0.5673570000000  0.5115660000000 1.0
C      1  0.4623670000000  0.4477690000000  0.5375380000000 1.0
C      1  0.5623850000000  0.4882720000000  0.5293560000000 1.0
C      1  0.4838580000000  0.5555080000000  0.5362610000000 1.0
C      1  0.4590180000000  0.4577690000000  0.4631700000000 1.0
C      1  0.5603950000000  0.4894130000000  0.4552620000000 1.0
C      1  0.4747040000000  0.5614770000000  0.4609770000000 1.0
C      1  0.4332790000000  0.5161390000000  0.4850170000000 1.0
C      1  0.5045840000000  0.4361760000000  0.4931510000000 1.0
C      1  0.5550160000000  0.5377870000000  0.4905490000000 1.0
C      1  0.4453750000000  0.5269610000000  0.5081070000000 1.0
C      1  0.5209380000000  0.4348450000000  0.5160340000000 1.0
C      1  0.5483850000000  0.5513000000000  0.5141650000000 1.0
C      1  0.5171930000000  0.5005390000000  0.4362260000000 1.0
C      1  0.4921860000000  0.5092820000000  0.4247340000000 1.0
C      1  0.4926350000000  0.4817030000000  0.4337400000000 1.0
C      1  0.5039240000000  0.5006180000000  0.5813610000000 1.0
C      1  0.4866260000000  0.5203820000000  0.5706490000000 1.0
C      1  0.4773350000000  0.4965830000000  0.5831080000000 1.0
END
