TITL C-8699-7882-161 1.19439964457988e-06 125000 -367.840993240611 0 0 60 (C1) n - 1
REM
REM in /home/bkarasulu/CARBON/AIRSS/Generating-Clusters/EDIP-Nigel-Params/Higher-Symm/Box-15A/Only-C60/SD-CG/HFTN-CG
REM
REM
REM
REM
REM
REM ./C.cell (414f73aa93bd7a1190c7fd0f31ff2f98)
REM
REM compiler GCC version 9.2.1 20190827 (Red Hat 9.2.1-1)
REM options -cpp -mtune=generic -march=x86-64 -g -O0 -fpre-include=/usr/include/finclude/math-vector-fortran.h
REM seed 294964928 -1490695151 349987436 -1407202884 691185404 1356403657 1113272322 -1810320887 1582197026 1831569293 611379815 2004366266 -804166785 1424345523 2138888407 -1454888421 1544612340 267389777 -1019247491 -297262888 -2000894398 1461296913 -657407938 976803951 1962348530 -2039105054 1393846100 2121223514 2060694344 2095994920 -404381971 991701263 -162279521
REM
CELL 1.54180   50.00000   50.00000   50.00000   90.00000   90.00000   90.00000
LATT -1
SFAC C  
C      1  0.5017760000000  0.4690370000000  0.4400580000000 1.0
C      1  0.5051150000000  0.4163720000000  0.4972390000000 1.0
C      1  0.5303720000000  0.4925710000000  0.5042990000000 1.0
C      1  0.4461780000000  0.4705800000000  0.4503510000000 1.0
C      1  0.5535650000000  0.4652050000000  0.4666470000000 1.0
C      1  0.4900120000000  0.5236050000000  0.4873590000000 1.0
C      1  0.4511240000000  0.4751560000000  0.5250650000000 1.0
C      1  0.4466420000000  0.5397580000000  0.5229650000000 1.0
C      1  0.4950140000000  0.5685800000000  0.4766730000000 1.0
C      1  0.4604370000000  0.4948450000000  0.5438560000000 1.0
C      1  0.4399780000000  0.5172800000000  0.4633550000000 1.0
C      1  0.5519100000000  0.5340900000000  0.4471400000000 1.0
C      1  0.4785430000000  0.4248530000000  0.5013790000000 1.0
C      1  0.5301620000000  0.4487930000000  0.4728380000000 1.0
C      1  0.5185310000000  0.4922170000000  0.4409980000000 1.0
C      1  0.4642100000000  0.4383790000000  0.4808910000000 1.0
C      1  0.5392350000000  0.4452880000000  0.5198200000000 1.0
C      1  0.4779220000000  0.5270160000000  0.4360720000000 1.0
C      1  0.4383990000000  0.5093430000000  0.4917530000000 1.0
C      1  0.5069440000000  0.5199530000000  0.4375820000000 1.0
C      1  0.5062710000000  0.4914220000000  0.5218940000000 1.0
C      1  0.5403030000000  0.5444750000000  0.4939060000000 1.0
C      1  0.4713630000000  0.5818840000000  0.5149460000000 1.0
C      1  0.4813850000000  0.4431200000000  0.5236730000000 1.0
C      1  0.4721690000000  0.5484160000000  0.4804220000000 1.0
C      1  0.5727960000000  0.5057780000000  0.4837170000000 1.0
C      1  0.4846950000000  0.4978020000000  0.4687600000000 1.0
C      1  0.5161870000000  0.5456210000000  0.4757510000000 1.0
C      1  0.5471340000000  0.4873220000000  0.4481660000000 1.0
C      1  0.5209750000000  0.4490810000000  0.5428320000000 1.0
C      1  0.5099420000000  0.4457960000000  0.4532620000000 1.0
C      1  0.4570290000000  0.5600080000000  0.5041850000000 1.0
C      1  0.5496570000000  0.5177860000000  0.5457470000000 1.0
C      1  0.4795710000000  0.5135470000000  0.5830990000000 1.0
C      1  0.4798820000000  0.5341370000000  0.5626470000000 1.0
C      1  0.5504580000000  0.5162430000000  0.5028720000000 1.0
C      1  0.5644900000000  0.5101100000000  0.4547180000000 1.0
C      1  0.5311120000000  0.5293520000000  0.5638260000000 1.0
C      1  0.4485290000000  0.4616010000000  0.4766550000000 1.0
C      1  0.5481990000000  0.4888920000000  0.5446980000000 1.0
C      1  0.5366810000000  0.5464700000000  0.5235360000000 1.0
C      1  0.5517560000000  0.4728030000000  0.5153370000000 1.0
C      1  0.4933270000000  0.5204360000000  0.5184840000000 1.0
C      1  0.4589210000000  0.4967970000000  0.4513370000000 1.0
C      1  0.4684870000000  0.5226900000000  0.5363990000000 1.0
C      1  0.5028480000000  0.4848700000000  0.5719830000000 1.0
C      1  0.4454320000000  0.4816130000000  0.4978610000000 1.0
C      1  0.4257820000000  0.5253900000000  0.5109380000000 1.0
C      1  0.4923800000000  0.5863470000000  0.4981500000000 1.0
C      1  0.4980690000000  0.4333730000000  0.5441480000000 1.0
C      1  0.5189340000000  0.4788410000000  0.5477140000000 1.0
C      1  0.5247300000000  0.5409010000000  0.4477370000000 1.0
C      1  0.5075340000000  0.5441450000000  0.5574590000000 1.0
C      1  0.4862760000000  0.4706850000000  0.5098520000000 1.0
C      1  0.4916690000000  0.4694050000000  0.4781490000000 1.0
C      1  0.5291290000000  0.4312810000000  0.4956100000000 1.0
C      1  0.5084870000000  0.5445530000000  0.5288410000000 1.0
C      1  0.4731160000000  0.4877070000000  0.5699960000000 1.0
C      1  0.5701010000000  0.4758630000000  0.4896700000000 1.0
C      1  0.4581240000000  0.5405180000000  0.4546840000000 1.0
END
