TITL C-8694-7203-220 -4.38444402778282e-07 125000 -369.129945279076 0 0 60 (C1) n - 1
REM
REM in /home/bkarasulu/CARBON/AIRSS/Generating-Clusters/EDIP-Nigel-Params/Higher-Symm/Box-15A/Only-C60/SD-CG/HFTN-CG
REM
REM
REM
REM
REM
REM ./C.cell (414f73aa93bd7a1190c7fd0f31ff2f98)
REM
REM compiler GCC version 9.2.1 20190827 (Red Hat 9.2.1-1)
REM options -cpp -mtune=generic -march=x86-64 -g -O0 -fpre-include=/usr/include/finclude/math-vector-fortran.h
REM seed 900302207 1898946269 1776183040 486807334 297656423 -1603762124 -1059853067 1184118194 1124661553 -491821739 1132620266 -118124405 -299093414 -1836668534 412514970 -895586743 387480644 -352686289 478208138 -198212406 1150360294 -191656674 1672660575 1687500610 -2130438218 -1326580227 2138501291 -1646380205 175468013 1174514122 1129494868 -360266190 -871487244
REM
CELL 1.54180   50.00000   50.00000   50.00000   90.00000   90.00000   90.00000
LATT -1
SFAC C  
C      1  0.5159180000000  0.4532390000000  0.5515170000000 1.0
C      1  0.4631810000000  0.4715210000000  0.5395860000000 1.0
C      1  0.4617790000000  0.5266010000000  0.5370900000000 1.0
C      1  0.5145930000000  0.5440150000000  0.5471080000000 1.0
C      1  0.5462460000000  0.5000660000000  0.5491510000000 1.0
C      1  0.4837420000000  0.4531450000000  0.5499320000000 1.0
C      1  0.5358340000000  0.4719360000000  0.5405790000000 1.0
C      1  0.5374130000000  0.5253930000000  0.5378650000000 1.0
C      1  0.4869230000000  0.5447250000000  0.5377370000000 1.0
C      1  0.4531350000000  0.5001590000000  0.5463900000000 1.0
C      1  0.4875810000000  0.5167090000000  0.4766650000000 1.0
C      1  0.5318270000000  0.5241400000000  0.4493720000000 1.0
C      1  0.5386270000000  0.4762930000000  0.4432740000000 1.0
C      1  0.4887220000000  0.4604710000000  0.4508480000000 1.0
C      1  0.4630050000000  0.5021380000000  0.4380000000000 1.0
C      1  0.5128130000000  0.5163170000000  0.4679970000000 1.0
C      1  0.4712210000000  0.5236080000000  0.4546650000000 1.0
C      1  0.4646220000000  0.4765510000000  0.4494590000000 1.0
C      1  0.5129440000000  0.4662690000000  0.4384460000000 1.0
C      1  0.5441100000000  0.5027960000000  0.4354310000000 1.0
C      1  0.5474130000000  0.5448590000000  0.4636550000000 1.0
C      1  0.5542380000000  0.4700410000000  0.4669480000000 1.0
C      1  0.4892220000000  0.4382730000000  0.4686630000000 1.0
C      1  0.4241760000000  0.4909330000000  0.4708460000000 1.0
C      1  0.4674600000000  0.5679480000000  0.4692970000000 1.0
C      1  0.4523940000000  0.5445220000000  0.4641980000000 1.0
C      1  0.4432440000000  0.4711010000000  0.4676140000000 1.0
C      1  0.5133880000000  0.4253620000000  0.4716780000000 1.0
C      1  0.5732530000000  0.4895820000000  0.4720070000000 1.0
C      1  0.5304050000000  0.5665770000000  0.4700870000000 1.0
C      1  0.5530950000000  0.4491480000000  0.4870160000000 1.0
C      1  0.4695160000000  0.4353500000000  0.4891430000000 1.0
C      1  0.4207600000000  0.5113180000000  0.4893180000000 1.0
C      1  0.4845010000000  0.5799400000000  0.4879300000000 1.0
C      1  0.5624180000000  0.5351650000000  0.4872180000000 1.0
C      1  0.4456530000000  0.4508200000000  0.4875540000000 1.0
C      1  0.5335090000000  0.4284710000000  0.4902380000000 1.0
C      1  0.5773100000000  0.5105450000000  0.4896260000000 1.0
C      1  0.5131470000000  0.5756460000000  0.4901220000000 1.0
C      1  0.4359370000000  0.5359590000000  0.4874690000000 1.0
C      1  0.5321440000000  0.5689890000000  0.5393600000000 1.0
C      1  0.5752320000000  0.4914350000000  0.5395450000000 1.0
C      1  0.5157600000000  0.4241500000000  0.5404600000000 1.0
C      1  0.4343440000000  0.4622640000000  0.5343310000000 1.0
C      1  0.4437500000000  0.5517590000000  0.5330930000000 1.0
C      1  0.4692840000000  0.5699510000000  0.5351500000000 1.0
C      1  0.4240090000000  0.4915340000000  0.5385780000000 1.0
C      1  0.4850370000000  0.4244520000000  0.5384020000000 1.0
C      1  0.5643580000000  0.4627230000000  0.5346320000000 1.0
C      1  0.5561010000000  0.5496450000000  0.5337730000000 1.0
C      1  0.4750310000000  0.4208870000000  0.5122440000000 1.0
C      1  0.4138010000000  0.5032880000000  0.5150310000000 1.0
C      1  0.4727720000000  0.5859940000000  0.5124160000000 1.0
C      1  0.5666290000000  0.5532810000000  0.5080040000000 1.0
C      1  0.5695920000000  0.4525990000000  0.5090900000000 1.0
C      1  0.5289850000000  0.4192850000000  0.5160540000000 1.0
C      1  0.5842690000000  0.5034260000000  0.5156130000000 1.0
C      1  0.5239630000000  0.5810780000000  0.5151940000000 1.0
C      1  0.4312910000000  0.5544740000000  0.5079750000000 1.0
C      1  0.4283740000000  0.4511320000000  0.5093120000000 1.0
END
