TITL C-8695-8180-42 4.64733969562605e-08 125000 -364.346983852351 0 0 60 (C1) n - 1
REM
REM in /home/bkarasulu/CARBON/AIRSS/Generating-Clusters/EDIP-Nigel-Params/Higher-Symm/Box-15A/Only-C60/SD-CG/HFTN-CG
REM
REM
REM
REM
REM
REM ./C.cell (414f73aa93bd7a1190c7fd0f31ff2f98)
REM
REM compiler GCC version 9.2.1 20190827 (Red Hat 9.2.1-1)
REM options -cpp -mtune=generic -march=x86-64 -g -O0 -fpre-include=/usr/include/finclude/math-vector-fortran.h
REM seed -800216796 1194230353 726032108 1310024687 -1549840239 -1697330604 118394649 2132973524 -584146429 1204941011 1527601972 -781507925 176854625 -1565577162 1295064768 -1165806220 -1192275578 -417676726 1668996647 1335793636 1979221017 -1880001815 133293422 -1026643847 1006818963 -677101884 316219872 -1183734127 -1209912348 -1895469441 -1002648549 1982602227 -1356122924
REM
CELL 1.54180   50.00000   50.00000   50.00000   90.00000   90.00000   90.00000
LATT -1
SFAC C  
C      1  0.5590790000000  0.5349460000000  0.4655310000000 1.0
C      1  0.5593240000000  0.5352130000000  0.5346340000000 1.0
C      1  0.5539660000000  0.5111130000000  0.4834610000000 1.0
C      1  0.5541790000000  0.5112510000000  0.5168090000000 1.0
C      1  0.5355860000000  0.5531380000000  0.5351660000000 1.0
C      1  0.5353690000000  0.5528320000000  0.4650090000000 1.0
C      1  0.4854910000000  0.4244540000000  0.5141850000000 1.0
C      1  0.4854020000000  0.4244740000000  0.4854440000000 1.0
C      1  0.4368010000000  0.4758320000000  0.5294350000000 1.0
C      1  0.4361810000000  0.4755680000000  0.4699230000000 1.0
C      1  0.5758520000000  0.4892230000000  0.4843080000000 1.0
C      1  0.5759820000000  0.4892650000000  0.5157400000000 1.0
C      1  0.5307050000000  0.4984590000000  0.5313410000000 1.0
C      1  0.5303890000000  0.4981860000000  0.4691450000000 1.0
C      1  0.4454720000000  0.5236850000000  0.5255370000000 1.0
C      1  0.4454470000000  0.5234080000000  0.4746530000000 1.0
C      1  0.5586580000000  0.5228670000000  0.5605350000000 1.0
C      1  0.5581910000000  0.5225320000000  0.4396550000000 1.0
C      1  0.5190560000000  0.5472840000000  0.5574160000000 1.0
C      1  0.5188610000000  0.5468010000000  0.4428330000000 1.0
C      1  0.4664370000000  0.4985050000000  0.4399040000000 1.0
C      1  0.4667670000000  0.4986560000000  0.5597910000000 1.0
C      1  0.4813620000000  0.4929970000000  0.4851740000000 1.0
C      1  0.4818680000000  0.4941270000000  0.5142380000000 1.0
C      1  0.5372110000000  0.5053780000000  0.5591920000000 1.0
C      1  0.5366220000000  0.5051800000000  0.4412340000000 1.0
C      1  0.5185860000000  0.4495590000000  0.5422440000000 1.0
C      1  0.5186510000000  0.4495040000000  0.4576100000000 1.0
C      1  0.5598650000000  0.4626930000000  0.5156060000000 1.0
C      1  0.5598200000000  0.4625910000000  0.4846350000000 1.0
C      1  0.4614650000000  0.4298790000000  0.4727960000000 1.0
C      1  0.4616280000000  0.4299050000000  0.5269350000000 1.0
C      1  0.4572530000000  0.5469970000000  0.5148460000000 1.0
C      1  0.4572190000000  0.5467930000000  0.4852760000000 1.0
C      1  0.4809650000000  0.5564480000000  0.5298270000000 1.0
C      1  0.4808460000000  0.5562310000000  0.4702780000000 1.0
C      1  0.4565210000000  0.4974610000000  0.4679000000000 1.0
C      1  0.4569660000000  0.4978370000000  0.5317590000000 1.0
C      1  0.4450600000000  0.4498020000000  0.5332440000000 1.0
C      1  0.4446030000000  0.4495260000000  0.4664490000000 1.0
C      1  0.4793980000000  0.5225280000000  0.4361530000000 1.0
C      1  0.4796430000000  0.5226540000000  0.5640120000000 1.0
C      1  0.4959930000000  0.5346220000000  0.5435790000000 1.0
C      1  0.4957650000000  0.5342800000000  0.4566950000000 1.0
C      1  0.4807550000000  0.4762760000000  0.5677560000000 1.0
C      1  0.4807270000000  0.4762450000000  0.4320580000000 1.0
C      1  0.4149520000000  0.4801570000000  0.5131130000000 1.0
C      1  0.4144340000000  0.4799500000000  0.4863970000000 1.0
C      1  0.5208050000000  0.5683050000000  0.4855760000000 1.0
C      1  0.5209290000000  0.5684990000000  0.5145300000000 1.0
C      1  0.5049330000000  0.5125810000000  0.5203470000000 1.0
C      1  0.5044320000000  0.5119380000000  0.4802890000000 1.0
C      1  0.4962350000000  0.5794310000000  0.5233250000000 1.0
C      1  0.4961170000000  0.5792030000000  0.4767720000000 1.0
C      1  0.5090110000000  0.4270850000000  0.5288430000000 1.0
C      1  0.5088810000000  0.4269310000000  0.4706920000000 1.0
C      1  0.5326600000000  0.4688930000000  0.5257360000000 1.0
C      1  0.5325390000000  0.4686280000000  0.4745460000000 1.0
C      1  0.5009610000000  0.4604930000000  0.5605140000000 1.0
C      1  0.5011230000000  0.4607000000000  0.4393650000000 1.0
END
