TITL C-8696-5006-226 6.0916266367506e-07 125000 -367.900190229614 0 0 60 (C1) n - 1
REM
REM in /home/bkarasulu/CARBON/AIRSS/Generating-Clusters/EDIP-Nigel-Params/Higher-Symm/Box-15A/Only-C60/SD-CG/HFTN-CG
REM
REM
REM
REM
REM
REM ./C.cell (414f73aa93bd7a1190c7fd0f31ff2f98)
REM
REM compiler GCC version 9.2.1 20190827 (Red Hat 9.2.1-1)
REM options -cpp -mtune=generic -march=x86-64 -g -O0 -fpre-include=/usr/include/finclude/math-vector-fortran.h
REM seed 1173536751 406660465 1384497020 -392109693 -1901547648 -2071519673 -1051622711 887692059 -1142415870 -1249360607 -722021838 214947429 1853730570 -899414580 973178466 1805768388 -1610167469 -1657070619 -1632739353 101466684 -1299887246 -1227481841 745094681 328003119 -122500293 -464356566 1292082305 1788004042 -410115732 279779175 977949719 -110996683 -185612919
REM
CELL 1.54180   50.00000   50.00000   50.00000   90.00000   90.00000   90.00000
LATT -1
SFAC C  
C      1  0.4450190000000  0.4767330000000  0.5511210000000 1.0
C      1  0.4499780000000  0.4454950000000  0.5071860000000 1.0
C      1  0.4454130000000  0.4677380000000  0.4541430000000 1.0
C      1  0.4499400000000  0.5250180000000  0.4502800000000 1.0
C      1  0.4479290000000  0.5556080000000  0.4937920000000 1.0
C      1  0.4456460000000  0.5324090000000  0.5461910000000 1.0
C      1  0.4757960000000  0.4983200000000  0.5803920000000 1.0
C      1  0.4830560000000  0.4378700000000  0.5411530000000 1.0
C      1  0.4853570000000  0.4417080000000  0.4661940000000 1.0
C      1  0.4798150000000  0.5034000000000  0.4218500000000 1.0
C      1  0.4845530000000  0.5645610000000  0.4625530000000 1.0
C      1  0.4853020000000  0.5576460000000  0.5338650000000 1.0
C      1  0.5508730000000  0.5550950000000  0.5070510000000 1.0
C      1  0.5621020000000  0.5102410000000  0.5314370000000 1.0
C      1  0.5604840000000  0.4615710000000  0.5348170000000 1.0
C      1  0.5554560000000  0.4469010000000  0.4879940000000 1.0
C      1  0.5502870000000  0.4950910000000  0.4625060000000 1.0
C      1  0.5563670000000  0.5383070000000  0.4561260000000 1.0
C      1  0.4884010000000  0.5213900000000  0.5706180000000 1.0
C      1  0.4876480000000  0.4561350000000  0.5620050000000 1.0
C      1  0.4940500000000  0.4320260000000  0.4924630000000 1.0
C      1  0.4875170000000  0.4775870000000  0.4295210000000 1.0
C      1  0.4946100000000  0.5453750000000  0.4447000000000 1.0
C      1  0.4904970000000  0.5718070000000  0.5096460000000 1.0
C      1  0.5071840000000  0.4920320000000  0.5278790000000 1.0
C      1  0.5151370000000  0.4729800000000  0.5078700000000 1.0
C      1  0.5046760000000  0.4728470000000  0.4797510000000 1.0
C      1  0.5046190000000  0.5022360000000  0.4735600000000 1.0
C      1  0.5099960000000  0.5230980000000  0.4929180000000 1.0
C      1  0.5023180000000  0.5210100000000  0.5215990000000 1.0
C      1  0.5165030000000  0.4782130000000  0.4334510000000 1.0
C      1  0.5256180000000  0.5355210000000  0.4467060000000 1.0
C      1  0.5174480000000  0.5715660000000  0.4990710000000 1.0
C      1  0.5177060000000  0.5177380000000  0.5653790000000 1.0
C      1  0.5131810000000  0.4667740000000  0.5675060000000 1.0
C      1  0.5230180000000  0.4281140000000  0.4974650000000 1.0
C      1  0.5241370000000  0.4597530000000  0.4563060000000 1.0
C      1  0.5237470000000  0.5039680000000  0.4510270000000 1.0
C      1  0.5206620000000  0.5475290000000  0.4802890000000 1.0
C      1  0.5229030000000  0.5361370000000  0.5418740000000 1.0
C      1  0.5230770000000  0.4900210000000  0.5528890000000 1.0
C      1  0.5290510000000  0.4492500000000  0.5168190000000 1.0
C      1  0.4741790000000  0.5347330000000  0.5473540000000 1.0
C      1  0.4665330000000  0.4747510000000  0.5687010000000 1.0
C      1  0.4747230000000  0.4348370000000  0.5146030000000 1.0
C      1  0.4730790000000  0.4637590000000  0.4516110000000 1.0
C      1  0.4734320000000  0.5269840000000  0.4351890000000 1.0
C      1  0.4720640000000  0.5681190000000  0.4874600000000 1.0
C      1  0.5696740000000  0.5132940000000  0.4535220000000 1.0
C      1  0.5620160000000  0.5487380000000  0.4817480000000 1.0
C      1  0.5501100000000  0.5357720000000  0.5299950000000 1.0
C      1  0.5524290000000  0.4875180000000  0.5448470000000 1.0
C      1  0.5710830000000  0.4572950000000  0.5094950000000 1.0
C      1  0.5518000000000  0.4652100000000  0.4645000000000 1.0
C      1  0.4421520000000  0.5287210000000  0.4974140000000 1.0
C      1  0.4414200000000  0.5168000000000  0.5234760000000 1.0
C      1  0.4411410000000  0.4883730000000  0.5261870000000 1.0
C      1  0.4420090000000  0.4718480000000  0.5030270000000 1.0
C      1  0.4426880000000  0.4838910000000  0.4768400000000 1.0
C      1  0.4423910000000  0.5125360000000  0.4740650000000 1.0
END
