TITL C-8691-6797-121 0.00388857203926836 125000 -353.471116146443 0 0 60 (C1) n - 1
REM
REM in /home/bkarasulu/CARBON/AIRSS/Generating-Clusters/EDIP-Nigel-Params/Higher-Symm/Box-15A/Only-C60/SD-CG/HFTN-CG
REM
REM
REM
REM
REM
REM ./C.cell (414f73aa93bd7a1190c7fd0f31ff2f98)
REM
REM compiler GCC version 9.2.1 20190827 (Red Hat 9.2.1-1)
REM options -cpp -mtune=generic -march=x86-64 -g -O0 -fpre-include=/usr/include/finclude/math-vector-fortran.h
REM seed -1452550428 1031446585 -1471386098 1458214711 2047373173 -273257503 100205903 -1920434306 1489350846 -1115567332 -1524357347 -636608549 591726203 -1174407618 631508968 -529466706 1597324684 -315242496 -1209568775 2123756913 1080232562 1407360120 -1373230729 1626957537 -146317583 1496632527 1545565479 -149919949 -807314466 1667475929 -1317680803 1862468319 -1972568839
REM
CELL 1.54180   50.00000   50.00000   50.00000   90.00000   90.00000   90.00000
LATT -1
SFAC C  
C      1  0.5113510000000  0.5384900000000  0.4203180000000 1.0
C      1  0.4996580000000  0.5700970000000  0.4799650000000 1.0
C      1  0.5070800000000  0.5781020000000  0.5059630000000 1.0
C      1  0.4992440000000  0.5371730000000  0.5608220000000 1.0
C      1  0.5087530000000  0.5242000000000  0.5834130000000 1.0
C      1  0.4977230000000  0.4749360000000  0.5625050000000 1.0
C      1  0.4988840000000  0.4533050000000  0.5420740000000 1.0
C      1  0.4989350000000  0.4647710000000  0.5141730000000 1.0
C      1  0.5055700000000  0.4429150000000  0.4531280000000 1.0
C      1  0.5152620000000  0.4472720000000  0.4273610000000 1.0
C      1  0.5039500000000  0.5119170000000  0.4167910000000 1.0
C      1  0.5311180000000  0.5070470000000  0.5829370000000 1.0
C      1  0.5248470000000  0.4805140000000  0.5723850000000 1.0
C      1  0.5235480000000  0.4379570000000  0.5444740000000 1.0
C      1  0.5211020000000  0.4516430000000  0.4998790000000 1.0
C      1  0.5229120000000  0.4552830000000  0.4720410000000 1.0
C      1  0.5339010000000  0.4681410000000  0.4235590000000 1.0
C      1  0.5251800000000  0.4957890000000  0.4281990000000 1.0
C      1  0.5280760000000  0.5499970000000  0.4395260000000 1.0
C      1  0.5195450000000  0.5527360000000  0.4673980000000 1.0
C      1  0.5184910000000  0.5552960000000  0.5173430000000 1.0
C      1  0.5203310000000  0.5488950000000  0.5453900000000 1.0
C      1  0.5527010000000  0.5342490000000  0.4450010000000 1.0
C      1  0.5451990000000  0.5465380000000  0.4800950000000 1.0
C      1  0.5442260000000  0.5450480000000  0.5085170000000 1.0
C      1  0.5466570000000  0.5355230000000  0.5448280000000 1.0
C      1  0.5520510000000  0.5142960000000  0.5633870000000 1.0
C      1  0.5465310000000  0.4778930000000  0.5531080000000 1.0
C      1  0.5457520000000  0.4540650000000  0.5367770000000 1.0
C      1  0.5484920000000  0.4573750000000  0.5078340000000 1.0
C      1  0.5513930000000  0.4592720000000  0.4690300000000 1.0
C      1  0.5574190000000  0.4695700000000  0.4427520000000 1.0
C      1  0.5507330000000  0.5066510000000  0.4372460000000 1.0
C      1  0.4712180000000  0.5567380000000  0.4275650000000 1.0
C      1  0.4711120000000  0.5654950000000  0.4770650000000 1.0
C      1  0.4626620000000  0.5806370000000  0.5244390000000 1.0
C      1  0.4715130000000  0.5443690000000  0.5589810000000 1.0
C      1  0.4636830000000  0.5154930000000  0.5981960000000 1.0
C      1  0.4725810000000  0.4703160000000  0.5767430000000 1.0
C      1  0.4741670000000  0.4374310000000  0.5447560000000 1.0
C      1  0.4768660000000  0.4166990000000  0.5001620000000 1.0
C      1  0.4769280000000  0.4428450000000  0.4573120000000 1.0
C      1  0.4724080000000  0.4580850000000  0.4105900000000 1.0
C      1  0.4755850000000  0.5076560000000  0.4210580000000 1.0
C      1  0.4543280000000  0.5292190000000  0.5758730000000 1.0
C      1  0.4561650000000  0.4918950000000  0.5857460000000 1.0
C      1  0.4588180000000  0.4486370000000  0.5652040000000 1.0
C      1  0.4623050000000  0.4287250000000  0.5202430000000 1.0
C      1  0.4651270000000  0.4337770000000  0.4819790000000 1.0
C      1  0.4610610000000  0.4492130000000  0.4343930000000 1.0
C      1  0.4618000000000  0.4830770000000  0.4160780000000 1.0
C      1  0.4601160000000  0.5315190000000  0.4236940000000 1.0
C      1  0.4591110000000  0.5570750000000  0.4524870000000 1.0
C      1  0.4545680000000  0.5706610000000  0.4998430000000 1.0
C      1  0.4603680000000  0.5551490000000  0.5348940000000 1.0
C      1  0.4047880000000  0.5084930000000  0.5272680000000 1.0
C      1  0.4774330000000  0.4936900000000  0.5003450000000 1.0
C      1  0.4535730000000  0.5006840000000  0.5112380000000 1.0
C      1  0.4284780000000  0.5039760000000  0.5187660000000 1.0
C      1  0.5014710000000  0.4938080000000  0.5138960000000 1.0
END
