TITL C-8693-7204-69 1.07336998355942e-05 125000 -355.266643329598 0 0 60 (C1) n - 1
REM
REM in /home/bkarasulu/CARBON/AIRSS/Generating-Clusters/EDIP-Nigel-Params/Higher-Symm/Box-15A/Only-C60/SD-CG/HFTN-CG
REM
REM
REM
REM
REM
REM ./C.cell (414f73aa93bd7a1190c7fd0f31ff2f98)
REM
REM compiler GCC version 9.2.1 20190827 (Red Hat 9.2.1-1)
REM options -cpp -mtune=generic -march=x86-64 -g -O0 -fpre-include=/usr/include/finclude/math-vector-fortran.h
REM seed 1454686070 217469892 -1662866096 -1370262689 575854288 1577066917 -1336171343 -856888879 -563301596 583272286 580882643 -1573252662 -1835876559 1809326200 -750156690 2024850671 -1481813699 1361213082 -1887071978 -1745530926 273778106 529156244 1100334768 -624280857 -2037104658 -1983738361 -1145609923 -1413430697 -2056213315 -2063567846 -576661599 1769602815 145540453
REM
CELL 1.54180   50.00000   50.00000   50.00000   90.00000   90.00000   90.00000
LATT -1
SFAC C  
C      1  0.4366810000000  0.4644650000000  0.5501330000000 1.0
C      1  0.4405440000000  0.4612300000000  0.4390350000000 1.0
C      1  0.4438210000000  0.5599520000000  0.4951130000000 1.0
C      1  0.5048170000000  0.4978530000000  0.4504030000000 1.0
C      1  0.5127840000000  0.5662530000000  0.5227080000000 1.0
C      1  0.5085970000000  0.4414290000000  0.5396480000000 1.0
C      1  0.5200120000000  0.4175940000000  0.5464650000000 1.0
C      1  0.5210540000000  0.4983470000000  0.4263130000000 1.0
C      1  0.5240430000000  0.5900110000000  0.5300090000000 1.0
C      1  0.5072420000000  0.4435590000000  0.5086790000000 1.0
C      1  0.5003700000000  0.5260810000000  0.4609350000000 1.0
C      1  0.5169400000000  0.5454760000000  0.5437990000000 1.0
C      1  0.4768070000000  0.4911120000000  0.4426790000000 1.0
C      1  0.4828280000000  0.5678610000000  0.5230000000000 1.0
C      1  0.4787400000000  0.4399220000000  0.5460610000000 1.0
C      1  0.5236540000000  0.5565900000000  0.4959720000000 1.0
C      1  0.5245340000000  0.4633490000000  0.5528840000000 1.0
C      1  0.5171710000000  0.4797840000000  0.4716250000000 1.0
C      1  0.5610020000000  0.4972560000000  0.4530940000000 1.0
C      1  0.5696830000000  0.5470330000000  0.5099100000000 1.0
C      1  0.5689340000000  0.4505760000000  0.5324490000000 1.0
C      1  0.4989890000000  0.4322790000000  0.4622850000000 1.0
C      1  0.4968220000000  0.5732620000000  0.4566430000000 1.0
C      1  0.4940980000000  0.4961010000000  0.5772540000000 1.0
C      1  0.5520410000000  0.5560710000000  0.4905330000000 1.0
C      1  0.5519220000000  0.4697700000000  0.5453810000000 1.0
C      1  0.5467310000000  0.4818500000000  0.4742240000000 1.0
C      1  0.4764870000000  0.5350870000000  0.4474240000000 1.0
C      1  0.4919360000000  0.5418140000000  0.5576670000000 1.0
C      1  0.4834530000000  0.4280410000000  0.5036480000000 1.0
C      1  0.5153060000000  0.4898010000000  0.5595080000000 1.0
C      1  0.5168020000000  0.4494070000000  0.4801000000000 1.0
C      1  0.5161040000000  0.5513820000000  0.4659220000000 1.0
C      1  0.5442340000000  0.5109390000000  0.4339850000000 1.0
C      1  0.5413050000000  0.5303170000000  0.5475020000000 1.0
C      1  0.5557460000000  0.4334650000000  0.5115990000000 1.0
C      1  0.5793210000000  0.4493740000000  0.5038540000000 1.0
C      1  0.5710410000000  0.5239640000000  0.4591530000000 1.0
C      1  0.5643140000000  0.5383750000000  0.5345740000000 1.0
C      1  0.4786400000000  0.5616450000000  0.4381800000000 1.0
C      1  0.4879310000000  0.5230040000000  0.5776400000000 1.0
C      1  0.4812460000000  0.4171690000000  0.4780360000000 1.0
C      1  0.4824840000000  0.5838060000000  0.4780030000000 1.0
C      1  0.4736900000000  0.4776470000000  0.5770440000000 1.0
C      1  0.4860420000000  0.4447200000000  0.4413150000000 1.0
C      1  0.4680590000000  0.5728230000000  0.4990270000000 1.0
C      1  0.4629510000000  0.4610740000000  0.5577940000000 1.0
C      1  0.4678740000000  0.4649250000000  0.4365840000000 1.0
C      1  0.5534090000000  0.5461350000000  0.4633250000000 1.0
C      1  0.5402310000000  0.5042000000000  0.5585390000000 1.0
C      1  0.5508100000000  0.4516030000000  0.4780850000000 1.0
C      1  0.4211800000000  0.4798460000000  0.5349470000000 1.0
C      1  0.4226610000000  0.4760400000000  0.4524230000000 1.0
C      1  0.4298180000000  0.5374680000000  0.4915510000000 1.0
C      1  0.4184820000000  0.4963700000000  0.4692100000000 1.0
C      1  0.4208450000000  0.5113500000000  0.4922410000000 1.0
C      1  0.4178990000000  0.4985220000000  0.5163610000000 1.0
C      1  0.4663050000000  0.4247040000000  0.5256710000000 1.0
C      1  0.4616100000000  0.5139700000000  0.4362260000000 1.0
C      1  0.4709230000000  0.5559480000000  0.5456240000000 1.0
END
