TITL C-8691-6797-215 4.66431219898781e-06 125000 -359.539788921574 0 0 60 (C1) n - 1
REM
REM in /home/bkarasulu/CARBON/AIRSS/Generating-Clusters/EDIP-Nigel-Params/Higher-Symm/Box-15A/Only-C60/SD-CG/HFTN-CG
REM
REM
REM
REM
REM
REM ./C.cell (414f73aa93bd7a1190c7fd0f31ff2f98)
REM
REM compiler GCC version 9.2.1 20190827 (Red Hat 9.2.1-1)
REM options -cpp -mtune=generic -march=x86-64 -g -O0 -fpre-include=/usr/include/finclude/math-vector-fortran.h
REM seed -1836892203 -1026418530 -145056418 2112693553 -888853887 1733180113 -1004328453 -2118319631 1626776740 -2075895974 1898147255 -2125381463 26922079 2134635630 -1062697349 -108453451 1073273288 260405699 1912611457 305073631 423618349 1452791548 1835056634 -608791969 -214261172 -1686392257 848884121 1444515167 1051743343 374364505 71076557 -1623768375 -1105673099
REM
CELL 1.54180   50.00000   50.00000   50.00000   90.00000   90.00000   90.00000
LATT -1
SFAC C  
C      1  0.4659240000000  0.4717670000000  0.5564250000000 1.0
C      1  0.4658720000000  0.4404880000000  0.5125630000000 1.0
C      1  0.4688670000000  0.4516040000000  0.4606540000000 1.0
C      1  0.4692140000000  0.5019120000000  0.4377410000000 1.0
C      1  0.4746400000000  0.5549160000000  0.4642300000000 1.0
C      1  0.4621300000000  0.5566050000000  0.5178820000000 1.0
C      1  0.4710110000000  0.5233250000000  0.5628770000000 1.0
C      1  0.5142370000000  0.4463600000000  0.5108590000000 1.0
C      1  0.5085960000000  0.4543960000000  0.4620240000000 1.0
C      1  0.5082860000000  0.5020190000000  0.4421900000000 1.0
C      1  0.5125750000000  0.5461280000000  0.4692030000000 1.0
C      1  0.5104520000000  0.5557930000000  0.5188430000000 1.0
C      1  0.5104840000000  0.5229150000000  0.5593840000000 1.0
C      1  0.5143830000000  0.4740140000000  0.5523700000000 1.0
C      1  0.5762160000000  0.5158070000000  0.4716730000000 1.0
C      1  0.5741020000000  0.5311530000000  0.4960800000000 1.0
C      1  0.5900540000000  0.5201980000000  0.5169610000000 1.0
C      1  0.5836640000000  0.4985120000000  0.5341060000000 1.0
C      1  0.5875370000000  0.4739960000000  0.5203820000000 1.0
C      1  0.5800270000000  0.4712080000000  0.4931760000000 1.0
C      1  0.5907880000000  0.4920580000000  0.4772720000000 1.0
C      1  0.5290430000000  0.4984570000000  0.5613630000000 1.0
C      1  0.5303420000000  0.4611690000000  0.5310130000000 1.0
C      1  0.5280090000000  0.4465480000000  0.4843810000000 1.0
C      1  0.5221230000000  0.4750040000000  0.4444850000000 1.0
C      1  0.5263340000000  0.5247060000000  0.4519010000000 1.0
C      1  0.5279700000000  0.5530470000000  0.4946190000000 1.0
C      1  0.5246600000000  0.5443780000000  0.5432600000000 1.0
C      1  0.4478910000000  0.5495610000000  0.4638110000000 1.0
C      1  0.4362330000000  0.5627180000000  0.5143760000000 1.0
C      1  0.4454790000000  0.5203830000000  0.5536470000000 1.0
C      1  0.4389300000000  0.4702990000000  0.5550580000000 1.0
C      1  0.4388240000000  0.4404660000000  0.5111010000000 1.0
C      1  0.4419360000000  0.4570700000000  0.4622220000000 1.0
C      1  0.4417840000000  0.5025940000000  0.4395250000000 1.0
C      1  0.5479010000000  0.5083150000000  0.4652310000000 1.0
C      1  0.5451630000000  0.5303470000000  0.5039350000000 1.0
C      1  0.5486840000000  0.5316010000000  0.5328670000000 1.0
C      1  0.5536410000000  0.5033190000000  0.5421040000000 1.0
C      1  0.5457540000000  0.4833700000000  0.5180680000000 1.0
C      1  0.5511490000000  0.4665610000000  0.4829610000000 1.0
C      1  0.5478300000000  0.4804510000000  0.4567760000000 1.0
C      1  0.4230890000000  0.5392770000000  0.5056810000000 1.0
C      1  0.4300550000000  0.5107890000000  0.5315430000000 1.0
C      1  0.4258570000000  0.4814750000000  0.5328420000000 1.0
C      1  0.4310020000000  0.4673510000000  0.5074480000000 1.0
C      1  0.4310910000000  0.4768450000000  0.4790280000000 1.0
C      1  0.4301260000000  0.5033820000000  0.4649800000000 1.0
C      1  0.4295790000000  0.5318110000000  0.4763280000000 1.0
C      1  0.4852730000000  0.5004070000000  0.4618760000000 1.0
C      1  0.4867490000000  0.5344860000000  0.4799430000000 1.0
C      1  0.4853540000000  0.5407780000000  0.5129510000000 1.0
C      1  0.4879230000000  0.5146200000000  0.5421020000000 1.0
C      1  0.4877980000000  0.4814260000000  0.5405510000000 1.0
C      1  0.4871630000000  0.4592080000000  0.5087720000000 1.0
C      1  0.4861040000000  0.4689120000000  0.4753850000000 1.0
C      1  0.4461440000000  0.5086750000000  0.5049060000000 1.0
C      1  0.4732990000000  0.5001370000000  0.5039270000000 1.0
C      1  0.5303150000000  0.5019200000000  0.4992370000000 1.0
C      1  0.5012190000000  0.5004750000000  0.5029740000000 1.0
END
