TITL C-8699-7882-314 -1.77477161470539e-06 125000 -355.180608489515 0 0 60 (C1) n - 1
REM
REM in /home/bkarasulu/CARBON/AIRSS/Generating-Clusters/EDIP-Nigel-Params/Higher-Symm/Box-15A/Only-C60/SD-CG/HFTN-CG
REM
REM
REM
REM
REM
REM ./C.cell (414f73aa93bd7a1190c7fd0f31ff2f98)
REM
REM compiler GCC version 9.2.1 20190827 (Red Hat 9.2.1-1)
REM options -cpp -mtune=generic -march=x86-64 -g -O0 -fpre-include=/usr/include/finclude/math-vector-fortran.h
REM seed -1989803027 -85145930 1271052150 -228987412 -1022314380 -1510837709 -1393729676 1925815766 1082062722 -27655751 945585955 -1944529067 -881462895 -1169736623 -1246802179 1518924501 1512070527 -1082284864 1115444066 -1737508477 -163792672 1326994477 1988695848 -392573387 -32803736 -1579853366 1281429979 -1968607744 -1295961457 1579452692 1877622017 485478063 2163160
REM
CELL 1.54180   50.00000   50.00000   50.00000   90.00000   90.00000   90.00000
LATT -1
SFAC C  
C      1  0.4846840000000  0.5085940000000  0.4429020000000 1.0
C      1  0.4864560000000  0.4488030000000  0.4744100000000 1.0
C      1  0.4845990000000  0.4594500000000  0.5410360000000 1.0
C      1  0.4861750000000  0.5262470000000  0.5507100000000 1.0
C      1  0.4862470000000  0.5563670000000  0.4906830000000 1.0
C      1  0.5135990000000  0.5085710000000  0.4435100000000 1.0
C      1  0.5153710000000  0.4485020000000  0.4741660000000 1.0
C      1  0.5135160000000  0.4598930000000  0.5407590000000 1.0
C      1  0.5150920000000  0.5266410000000  0.5512830000000 1.0
C      1  0.5151660000000  0.5569770000000  0.4905410000000 1.0
C      1  0.5429620000000  0.4295060000000  0.5199160000000 1.0
C      1  0.5436880000000  0.4966640000000  0.5736050000000 1.0
C      1  0.5438300000000  0.5690870000000  0.5258370000000 1.0
C      1  0.5428960000000  0.5454940000000  0.4425310000000 1.0
C      1  0.5439870000000  0.4595980000000  0.4384580000000 1.0
C      1  0.4560950000000  0.4288930000000  0.5194080000000 1.0
C      1  0.4568260000000  0.4969830000000  0.5732090000000 1.0
C      1  0.4569640000000  0.5685740000000  0.5255790000000 1.0
C      1  0.4560260000000  0.5459370000000  0.4424260000000 1.0
C      1  0.4571110000000  0.4592430000000  0.4390270000000 1.0
C      1  0.4399480000000  0.5220750000000  0.5105350000000 1.0
C      1  0.4399810000000  0.5168520000000  0.4821340000000 1.0
C      1  0.4399760000000  0.4882260000000  0.4783250000000 1.0
C      1  0.4399790000000  0.4757650000000  0.5043810000000 1.0
C      1  0.4399820000000  0.4966810000000  0.5242920000000 1.0
C      1  0.5598470000000  0.5222330000000  0.5106800000000 1.0
C      1  0.5598800000000  0.5170140000000  0.4822780000000 1.0
C      1  0.5598720000000  0.4883910000000  0.4784650000000 1.0
C      1  0.5598740000000  0.4759120000000  0.5045010000000 1.0
C      1  0.5598800000000  0.4968310000000  0.5244060000000 1.0
C      1  0.5195290000000  0.4487130000000  0.4452780000000 1.0
C      1  0.5182840000000  0.4324840000000  0.5319450000000 1.0
C      1  0.5192610000000  0.5095300000000  0.5745540000000 1.0
C      1  0.5193350000000  0.5738540000000  0.5139740000000 1.0
C      1  0.5182540000000  0.5359370000000  0.4345240000000 1.0
C      1  0.4817660000000  0.4486850000000  0.4456110000000 1.0
C      1  0.4805230000000  0.4320310000000  0.5319250000000 1.0
C      1  0.4815020000000  0.5093590000000  0.5740410000000 1.0
C      1  0.4815750000000  0.5733000000000  0.5139880000000 1.0
C      1  0.4804920000000  0.5361240000000  0.4341640000000 1.0
C      1  0.5585590000000  0.5358930000000  0.4620430000000 1.0
C      1  0.5591660000000  0.4751350000000  0.4541520000000 1.0
C      1  0.5586220000000  0.4487440000000  0.5097780000000 1.0
C      1  0.5589720000000  0.4932670000000  0.5518600000000 1.0
C      1  0.5590660000000  0.5472890000000  0.5224820000000 1.0
C      1  0.4407530000000  0.5358670000000  0.4620050000000 1.0
C      1  0.4413630000000  0.4748030000000  0.4541280000000 1.0
C      1  0.4408210000000  0.4485500000000  0.5094840000000 1.0
C      1  0.4411720000000  0.4933130000000  0.5517680000000 1.0
C      1  0.4412630000000  0.5471160000000  0.5223020000000 1.0
C      1  0.4810270000000  0.4812120000000  0.5196310000000 1.0
C      1  0.4809650000000  0.5128580000000  0.5237670000000 1.0
C      1  0.4809620000000  0.5266060000000  0.4950000000000 1.0
C      1  0.4810220000000  0.5034930000000  0.4729930000000 1.0
C      1  0.4809640000000  0.4754270000000  0.4882520000000 1.0
C      1  0.5188930000000  0.4813770000000  0.5197520000000 1.0
C      1  0.5188360000000  0.5130370000000  0.5239820000000 1.0
C      1  0.5188350000000  0.5268090000000  0.4951280000000 1.0
C      1  0.5188890000000  0.5036260000000  0.4731570000000 1.0
C      1  0.5188250000000  0.4755580000000  0.4883390000000 1.0
END
