TITL C-8692-4986-243 2.64269893058767e-06 125000 -348.204092700487 0 0 60 (C1) n - 1
REM
REM in /home/bkarasulu/CARBON/AIRSS/Generating-Clusters/EDIP-Nigel-Params/Higher-Symm/Box-15A/Only-C60/SD-CG/HFTN-CG
REM
REM
REM
REM
REM
REM ./C.cell (414f73aa93bd7a1190c7fd0f31ff2f98)
REM
REM compiler GCC version 9.2.1 20190827 (Red Hat 9.2.1-1)
REM options -cpp -mtune=generic -march=x86-64 -g -O0 -fpre-include=/usr/include/finclude/math-vector-fortran.h
REM seed 796114870 -1525365593 -1469434359 -2016791922 947528191 -637036541 142330169 -825255523 -570755518 1636540269 -672592863 702100867 -1198409587 -1656214575 -553930241 -481508948 349474462 1890881170 1923490599 1868925363 1235926337 -947284972 1598717336 958006347 -1134365648 -452237002 -171528057 -584614465 114090727 -662894123 1689887417 1651308056 1438293318
REM
CELL 1.54180   50.00000   50.00000   50.00000   90.00000   90.00000   90.00000
LATT -1
SFAC C  
C      1  0.5157890000000  0.5105190000000  0.4642800000000 1.0
C      1  0.5103440000000  0.4847620000000  0.5331950000000 1.0
C      1  0.4904310000000  0.4937480000000  0.4673470000000 1.0
C      1  0.4853970000000  0.5018230000000  0.5384310000000 1.0
C      1  0.5084330000000  0.4644300000000  0.5085810000000 1.0
C      1  0.5123420000000  0.5391020000000  0.4859870000000 1.0
C      1  0.4790880000000  0.4575160000000  0.5010200000000 1.0
C      1  0.4856650000000  0.5395780000000  0.5016190000000 1.0
C      1  0.5412870000000  0.4843070000000  0.5012850000000 1.0
C      1  0.5396300000000  0.5317930000000  0.4981370000000 1.0
C      1  0.4613680000000  0.5230490000000  0.4989240000000 1.0
C      1  0.4575490000000  0.4783360000000  0.5010700000000 1.0
C      1  0.5423790000000  0.5065730000000  0.4814080000000 1.0
C      1  0.5362780000000  0.4987260000000  0.5274750000000 1.0
C      1  0.4599860000000  0.5012470000000  0.5227740000000 1.0
C      1  0.4632110000000  0.4997820000000  0.4779480000000 1.0
C      1  0.4168680000000  0.4602280000000  0.5242790000000 1.0
C      1  0.4173890000000  0.5375080000000  0.4774380000000 1.0
C      1  0.5760250000000  0.5394110000000  0.5222590000000 1.0
C      1  0.5777080000000  0.4593910000000  0.4777740000000 1.0
C      1  0.4215780000000  0.5183370000000  0.4590620000000 1.0
C      1  0.4150790000000  0.4875570000000  0.5288610000000 1.0
C      1  0.5738480000000  0.5191810000000  0.5397100000000 1.0
C      1  0.5847100000000  0.4857150000000  0.4724770000000 1.0
C      1  0.5050700000000  0.5748910000000  0.5253470000000 1.0
C      1  0.4977330000000  0.4244210000000  0.4731950000000 1.0
C      1  0.5038200000000  0.4196640000000  0.5277020000000 1.0
C      1  0.5007130000000  0.5806550000000  0.4695290000000 1.0
C      1  0.5037540000000  0.5240260000000  0.5770150000000 1.0
C      1  0.4946110000000  0.4712940000000  0.4240960000000 1.0
C      1  0.4965140000000  0.5266870000000  0.4227790000000 1.0
C      1  0.5038610000000  0.4685650000000  0.5796770000000 1.0
C      1  0.4788180000000  0.5677840000000  0.4536210000000 1.0
C      1  0.4867690000000  0.4298210000000  0.5487730000000 1.0
C      1  0.5161020000000  0.4349710000000  0.4539540000000 1.0
C      1  0.5227840000000  0.5565650000000  0.5402240000000 1.0
C      1  0.4835080000000  0.4501600000000  0.5680690000000 1.0
C      1  0.4796710000000  0.5467410000000  0.4348310000000 1.0
C      1  0.5176160000000  0.4553530000000  0.4345380000000 1.0
C      1  0.5243240000000  0.5399660000000  0.5637330000000 1.0
C      1  0.4371830000000  0.5380500000000  0.4956440000000 1.0
C      1  0.4299010000000  0.4675070000000  0.5008720000000 1.0
C      1  0.5667010000000  0.4693450000000  0.5012180000000 1.0
C      1  0.5613340000000  0.5490940000000  0.5018660000000 1.0
C      1  0.4359630000000  0.5029920000000  0.5383590000000 1.0
C      1  0.4421800000000  0.5012250000000  0.4584820000000 1.0
C      1  0.5665330000000  0.5054760000000  0.4658240000000 1.0
C      1  0.5571620000000  0.4991110000000  0.5460990000000 1.0
C      1  0.4784020000000  0.4458490000000  0.4741040000000 1.0
C      1  0.4858650000000  0.5518280000000  0.5281020000000 1.0
C      1  0.5144260000000  0.5546070000000  0.4593370000000 1.0
C      1  0.5219510000000  0.4421510000000  0.5260470000000 1.0
C      1  0.4875500000000  0.4676540000000  0.4542830000000 1.0
C      1  0.4896610000000  0.5286430000000  0.5501170000000 1.0
C      1  0.5165860000000  0.4611000000000  0.5522950000000 1.0
C      1  0.5194950000000  0.5292120000000  0.4400640000000 1.0
C      1  0.4930290000000  0.4988630000000  0.4175350000000 1.0
C      1  0.5038390000000  0.4965400000000  0.5836950000000 1.0
C      1  0.4997460000000  0.4143570000000  0.4998730000000 1.0
C      1  0.5044450000000  0.5822130000000  0.4977580000000 1.0
END
