TITL C-8693-7204-70 3.6305993323106e-07 125000 -373.32320120407 0 0 60 (C5) n - 1
REM
REM in /home/bkarasulu/CARBON/AIRSS/Generating-Clusters/EDIP-Nigel-Params/Higher-Symm/Box-15A/Only-C60/SD-CG/HFTN-CG
REM
REM
REM
REM
REM
REM ./C.cell (414f73aa93bd7a1190c7fd0f31ff2f98)
REM
REM compiler GCC version 9.2.1 20190827 (Red Hat 9.2.1-1)
REM options -cpp -mtune=generic -march=x86-64 -g -O0 -fpre-include=/usr/include/finclude/math-vector-fortran.h
REM seed 1949778066 432022241 858932857 87994840 -2100897214 -488815439 -508287784 978006245 450903621 -23444351 1151623766 493691392 -1099127645 -2018789841 301965355 -628332798 -571870296 -912064955 -2136366227 81243080 1986142079 1203920785 912926449 483991500 -350345892 -292678137 -962011703 1641478375 998932585 -1226665487 273363922 1423041438 -1970739587
REM
CELL 1.54180   50.00000   50.00000   50.00000   90.00000   90.00000   90.00000
LATT -1
SFAC C  
C      1  0.5216650000000  0.5579200000000  0.5379130000000 1.0
C      1  0.5216620000000  0.4818400000000  0.5668010000000 1.0
C      1  0.5216590000000  0.4308550000000  0.5033720000000 1.0
C      1  0.5216600000000  0.4754250000000  0.4352820000000 1.0
C      1  0.5216640000000  0.5539550000000  0.4566300000000 1.0
C      1  0.5558070000000  0.5241120000000  0.5443050000000 1.0
C      1  0.5558040000000  0.4653120000000  0.5366240000000 1.0
C      1  0.5558030000000  0.4544470000000  0.4783290000000 1.0
C      1  0.5558050000000  0.5065310000000  0.4499810000000 1.0
C      1  0.5558070000000  0.5495860000000  0.4907560000000 1.0
C      1  0.5628160000000  0.4782950000000  0.4896570000000 1.0
C      1  0.5628170000000  0.5031270000000  0.4761630000000 1.0
C      1  0.5628180000000  0.5236340000000  0.4956100000000 1.0
C      1  0.5628180000000  0.5114760000000  0.5211230000000 1.0
C      1  0.5628160000000  0.4834550000000  0.5174430000000 1.0
C      1  0.4843970000000  0.4533320000000  0.4550930000000 1.0
C      1  0.4844000000000  0.5282890000000  0.4417390000000 1.0
C      1  0.4844020000000  0.5641520000000  0.5089000000000 1.0
C      1  0.4844000000000  0.5113600000000  0.5637620000000 1.0
C      1  0.4843970000000  0.4428700000000  0.5305070000000 1.0
C      1  0.5143210000000  0.4522950000000  0.4542120000000 1.0
C      1  0.5143240000000  0.5288050000000  0.4404810000000 1.0
C      1  0.5143270000000  0.5655070000000  0.5090030000000 1.0
C      1  0.5143250000000  0.5116800000000  0.5650830000000 1.0
C      1  0.5143220000000  0.4417110000000  0.5312210000000 1.0
C      1  0.4992820000000  0.4691840000000  0.5789280000000 1.0
C      1  0.4992790000000  0.4154120000000  0.4950820000000 1.0
C      1  0.4992810000000  0.4785380000000  0.4180320000000 1.0
C      1  0.4992850000000  0.5713240000000  0.4542590000000 1.0
C      1  0.4992860000000  0.5655430000000  0.5536980000000 1.0
C      1  0.4442740000000  0.5218500000000  0.5359610000000 1.0
C      1  0.4442720000000  0.4725530000000  0.5318920000000 1.0
C      1  0.4442710000000  0.4611900000000  0.4837500000000 1.0
C      1  0.4442720000000  0.5034640000000  0.4580660000000 1.0
C      1  0.4442740000000  0.5409540000000  0.4903350000000 1.0
C      1  0.4338410000000  0.4611740000000  0.5091200000000 1.0
C      1  0.4338420000000  0.4793320000000  0.4658910000000 1.0
C      1  0.4338440000000  0.5260550000000  0.4698010000000 1.0
C      1  0.4338450000000  0.5367750000000  0.5154460000000 1.0
C      1  0.4338430000000  0.4966770000000  0.5397470000000 1.0
C      1  0.5268440000000  0.4690430000000  0.5391710000000 1.0
C      1  0.5268430000000  0.4531790000000  0.4826630000000 1.0
C      1  0.5268450000000  0.5020180000000  0.4501140000000 1.0
C      1  0.5268470000000  0.5480670000000  0.4865050000000 1.0
C      1  0.5268470000000  0.5276870000000  0.5415450000000 1.0
C      1  0.4732810000000  0.5018780000000  0.4525120000000 1.0
C      1  0.4732830000000  0.5457460000000  0.4871110000000 1.0
C      1  0.4732830000000  0.5263960000000  0.5395230000000 1.0
C      1  0.4732810000000  0.4705690000000  0.5373160000000 1.0
C      1  0.4732800000000  0.4554170000000  0.4835400000000 1.0
C      1  0.4777170000000  0.4818470000000  0.5651660000000 1.0
C      1  0.4777140000000  0.4324150000000  0.5028730000000 1.0
C      1  0.4777150000000  0.4763840000000  0.4366100000000 1.0
C      1  0.4777180000000  0.5529910000000  0.4579500000000 1.0
C      1  0.4777200000000  0.5563680000000  0.5374030000000 1.0
C      1  0.5057500000000  0.4840180000000  0.5201670000000 1.0
C      1  0.5057500000000  0.4758810000000  0.4910330000000 1.0
C      1  0.5057500000000  0.5010750000000  0.4742900000000 1.0
C      1  0.5057520000000  0.5247830000000  0.4930780000000 1.0
C      1  0.5057520000000  0.5142420000000  0.5214310000000 1.0
END
