TITL C-8696-5006-178 -2.12052379330011e-07 125000 -352.690511407433 0 0 60 (C2) n - 1
REM
REM in /home/bkarasulu/CARBON/AIRSS/Generating-Clusters/EDIP-Nigel-Params/Higher-Symm/Box-15A/Only-C60/SD-CG/HFTN-CG
REM
REM
REM
REM
REM
REM ./C.cell (414f73aa93bd7a1190c7fd0f31ff2f98)
REM
REM compiler GCC version 9.2.1 20190827 (Red Hat 9.2.1-1)
REM options -cpp -mtune=generic -march=x86-64 -g -O0 -fpre-include=/usr/include/finclude/math-vector-fortran.h
REM seed 1733887300 -388012210 -1298036155 1393972066 -1294303816 -113122887 -191144608 -1887503291 -608232503 877242671 -1834361893 55833404 1651064859 -1191767840 -806259004 -1774255171 178906245 1026427027 934068798 1758061178 2124840005 -1426881811 197146263 -347817944 8544465 -1738667152 -1284236653 1785540855 189710122 703203922 -1303706038 -844458614 1064778108
REM
CELL 1.54180   50.00000   50.00000   50.00000   90.00000   90.00000   90.00000
LATT -1
SFAC C  
C      1  0.5151820000000  0.4816870000000  0.4876780000000 1.0
C      1  0.5151830000000  0.5183170000000  0.5123150000000 1.0
C      1  0.4841490000000  0.4814780000000  0.4879430000000 1.0
C      1  0.4841500000000  0.5185180000000  0.5120630000000 1.0
C      1  0.5152650000000  0.4798010000000  0.5194740000000 1.0
C      1  0.5152520000000  0.5202030000000  0.4805200000000 1.0
C      1  0.4839270000000  0.4798340000000  0.5192250000000 1.0
C      1  0.4839140000000  0.5201620000000  0.4807820000000 1.0
C      1  0.4642900000000  0.4846790000000  0.5640820000000 1.0
C      1  0.4642600000000  0.5153120000000  0.4359320000000 1.0
C      1  0.5322680000000  0.4860470000000  0.5598450000000 1.0
C      1  0.5322400000000  0.5139620000000  0.4401420000000 1.0
C      1  0.4673420000000  0.4863760000000  0.4387440000000 1.0
C      1  0.4673630000000  0.5136150000000  0.5612690000000 1.0
C      1  0.5356100000000  0.4852610000000  0.4360230000000 1.0
C      1  0.5356320000000  0.5147480000000  0.5639620000000 1.0
C      1  0.4844530000000  0.4315420000000  0.4837700000000 1.0
C      1  0.4844420000000  0.5684540000000  0.5162360000000 1.0
C      1  0.5157020000000  0.4317530000000  0.4834560000000 1.0
C      1  0.5156910000000  0.5682520000000  0.5165380000000 1.0
C      1  0.4846770000000  0.4298040000000  0.5147000000000 1.0
C      1  0.4846520000000  0.5701920000000  0.4853060000000 1.0
C      1  0.5160710000000  0.4297660000000  0.5143930000000 1.0
C      1  0.5160470000000  0.5702380000000  0.4856000000000 1.0
C      1  0.5333520000000  0.4549720000000  0.5237870000000 1.0
C      1  0.5333300000000  0.5450360000000  0.4762000000000 1.0
C      1  0.4671380000000  0.4550430000000  0.5243760000000 1.0
C      1  0.4671160000000  0.5449490000000  0.4756380000000 1.0
C      1  0.5313620000000  0.4583490000000  0.4776600000000 1.0
C      1  0.5313600000000  0.5416600000000  0.5223280000000 1.0
C      1  0.4682440000000  0.4578810000000  0.4781440000000 1.0
C      1  0.4682420000000  0.5421110000000  0.5218690000000 1.0
C      1  0.4873930000000  0.4732770000000  0.4245400000000 1.0
C      1  0.4874170000000  0.5267200000000  0.5754650000000 1.0
C      1  0.5141560000000  0.4720970000000  0.4239520000000 1.0
C      1  0.5141790000000  0.5279070000000  0.5760420000000 1.0
C      1  0.4858010000000  0.4712450000000  0.5758830000000 1.0
C      1  0.4857630000000  0.5287520000000  0.4241230000000 1.0
C      1  0.5125790000000  0.4726290000000  0.5743510000000 1.0
C      1  0.5125410000000  0.5273740000000  0.4256440000000 1.0
C      1  0.4510030000000  0.5292870000000  0.5427520000000 1.0
C      1  0.4509930000000  0.4707000000000  0.4572680000000 1.0
C      1  0.5501910000000  0.5303390000000  0.5434090000000 1.0
C      1  0.5501810000000  0.4696740000000  0.4565710000000 1.0
C      1  0.4485350000000  0.5305370000000  0.4560220000000 1.0
C      1  0.4485610000000  0.4694500000000  0.5439990000000 1.0
C      1  0.5509430000000  0.5296920000000  0.4564000000000 1.0
C      1  0.5509680000000  0.4703220000000  0.5435800000000 1.0
C      1  0.4318450000000  0.5142520000000  0.4737180000000 1.0
C      1  0.4318590000000  0.4857300000000  0.5263100000000 1.0
C      1  0.5680010000000  0.5139100000000  0.4739820000000 1.0
C      1  0.5680150000000  0.4861080000000  0.5259900000000 1.0
C      1  0.4323620000000  0.5141260000000  0.5262890000000 1.0
C      1  0.4323550000000  0.4858560000000  0.4737390000000 1.0
C      1  0.5683090000000  0.5145310000000  0.5267340000000 1.0
C      1  0.5683020000000  0.4854860000000  0.4732380000000 1.0
C      1  0.5536480000000  0.5387400000000  0.4998730000000 1.0
C      1  0.5536580000000  0.4612750000000  0.5001050000000 1.0
C      1  0.4462610000000  0.5390610000000  0.4995630000000 1.0
C      1  0.4462710000000  0.4609250000000  0.5004590000000 1.0
END
