TITL C-8695-8180-162 2.74932542065809e-07 125000 -359.759534214765 0 0 60 (C1) n - 1
REM
REM in /home/bkarasulu/CARBON/AIRSS/Generating-Clusters/EDIP-Nigel-Params/Higher-Symm/Box-15A/Only-C60/SD-CG/HFTN-CG
REM
REM
REM
REM
REM
REM ./C.cell (414f73aa93bd7a1190c7fd0f31ff2f98)
REM
REM compiler GCC version 9.2.1 20190827 (Red Hat 9.2.1-1)
REM options -cpp -mtune=generic -march=x86-64 -g -O0 -fpre-include=/usr/include/finclude/math-vector-fortran.h
REM seed -888474885 219268377 -865275749 -1056098764 -708284808 400815003 2141433895 -1615198205 -850369162 -1980002101 -1666980360 -2098080859 -1097964921 -1806405873 753357130 -1159645885 1452778142 778546381 -885676199 1006794564 -549454835 -2101094084 -1663716342 1166948931 1881915126 -1304685596 221410005 895495912 -1818678537 974505365 140128006 -1969475874 -42738381
REM
CELL 1.54180   50.00000   50.00000   50.00000   90.00000   90.00000   90.00000
LATT -1
SFAC C  
C      1  0.4490000000000  0.4436130000000  0.4796780000000 1.0
C      1  0.4556210000000  0.4444290000000  0.5364010000000 1.0
C      1  0.5301850000000  0.4401880000000  0.5414420000000 1.0
C      1  0.5520720000000  0.4492110000000  0.4877420000000 1.0
C      1  0.5107640000000  0.4417870000000  0.4505060000000 1.0
C      1  0.4462410000000  0.5569420000000  0.4781020000000 1.0
C      1  0.4539040000000  0.5569330000000  0.5351250000000 1.0
C      1  0.5342620000000  0.5574460000000  0.5449040000000 1.0
C      1  0.5555550000000  0.5587390000000  0.4891060000000 1.0
C      1  0.5156480000000  0.5584860000000  0.4456680000000 1.0
C      1  0.5044740000000  0.5988470000000  0.4742950000000 1.0
C      1  0.4775000000000  0.5969340000000  0.4866820000000 1.0
C      1  0.4817960000000  0.5964670000000  0.5181850000000 1.0
C      1  0.5113190000000  0.5974980000000  0.5224440000000 1.0
C      1  0.5224110000000  0.6064740000000  0.4963670000000 1.0
C      1  0.5009380000000  0.3965170000000  0.4763350000000 1.0
C      1  0.4752270000000  0.4028500000000  0.4896200000000 1.0
C      1  0.4818690000000  0.4039970000000  0.5206170000000 1.0
C      1  0.5112720000000  0.3965980000000  0.5198000000000 1.0
C      1  0.5156930000000  0.3816730000000  0.4955300000000 1.0
C      1  0.5030000000000  0.4851280000000  0.4740640000000 1.0
C      1  0.4749760000000  0.4847610000000  0.4881760000000 1.0
C      1  0.4798310000000  0.4847680000000  0.5199200000000 1.0
C      1  0.5111730000000  0.4817280000000  0.5230270000000 1.0
C      1  0.5255800000000  0.4883500000000  0.4953970000000 1.0
C      1  0.5025110000000  0.5238920000000  0.4743890000000 1.0
C      1  0.4740530000000  0.5171150000000  0.4876900000000 1.0
C      1  0.4794990000000  0.5169630000000  0.5203540000000 1.0
C      1  0.5113970000000  0.5201550000000  0.5237570000000 1.0
C      1  0.5255860000000  0.5190650000000  0.4955730000000 1.0
C      1  0.5394820000000  0.4845170000000  0.5612220000000 1.0
C      1  0.5757120000000  0.4894930000000  0.4947630000000 1.0
C      1  0.5170030000000  0.4853280000000  0.4281800000000 1.0
C      1  0.4306850000000  0.4862000000000  0.4676700000000 1.0
C      1  0.4440300000000  0.4874510000000  0.5538020000000 1.0
C      1  0.5394990000000  0.5114120000000  0.5616360000000 1.0
C      1  0.5752760000000  0.5160760000000  0.4949720000000 1.0
C      1  0.5168760000000  0.5121730000000  0.4290930000000 1.0
C      1  0.4291340000000  0.5128310000000  0.4678000000000 1.0
C      1  0.4434400000000  0.5140690000000  0.5541220000000 1.0
C      1  0.4602990000000  0.4715310000000  0.5384310000000 1.0
C      1  0.5248810000000  0.4673510000000  0.5450860000000 1.0
C      1  0.5521450000000  0.4761970000000  0.4898070000000 1.0
C      1  0.5079330000000  0.4695970000000  0.4490950000000 1.0
C      1  0.4517640000000  0.4706720000000  0.4760750000000 1.0
C      1  0.4596560000000  0.5300540000000  0.5387240000000 1.0
C      1  0.5261130000000  0.5308700000000  0.5470650000000 1.0
C      1  0.5527940000000  0.5314100000000  0.4915110000000 1.0
C      1  0.5078830000000  0.5318550000000  0.4464300000000 1.0
C      1  0.4491640000000  0.5294330000000  0.4767720000000 1.0
C      1  0.4740860000000  0.4345690000000  0.4900840000000 1.0
C      1  0.4762050000000  0.4339350000000  0.5210190000000 1.0
C      1  0.5292390000000  0.4212330000000  0.5203630000000 1.0
C      1  0.5325410000000  0.4306130000000  0.4928900000000 1.0
C      1  0.5092230000000  0.4264710000000  0.4747870000000 1.0
C      1  0.4716360000000  0.5657810000000  0.4882910000000 1.0
C      1  0.4744570000000  0.5668240000000  0.5189570000000 1.0
C      1  0.5187400000000  0.5680070000000  0.5238770000000 1.0
C      1  0.5291830000000  0.5685660000000  0.4946540000000 1.0
C      1  0.5075640000000  0.5679310000000  0.4719270000000 1.0
END
