TITL C-8692-4986-96 -1.0831526526602e-06 125000 -365.15978333473 0 0 60 (Cs) n - 1
REM
REM in /home/bkarasulu/CARBON/AIRSS/Generating-Clusters/EDIP-Nigel-Params/Higher-Symm/Box-15A/Only-C60/SD-CG/HFTN-CG
REM
REM
REM
REM
REM
REM ./C.cell (414f73aa93bd7a1190c7fd0f31ff2f98)
REM
REM compiler GCC version 9.2.1 20190827 (Red Hat 9.2.1-1)
REM options -cpp -mtune=generic -march=x86-64 -g -O0 -fpre-include=/usr/include/finclude/math-vector-fortran.h
REM seed 2029261900 -1045198757 -51049932 984073889 -89009264 -122897452 1923564255 -1279428978 -485039777 1931365157 -872273415 -456488414 -677085364 -1292886662 1462368455 -762427635 -1550753303 -902734713 -1036563005 1608475821 608229626 -978472504 -524169795 191891829 868714739 -463051954 -1899896620 -373793658 -599732664 -771780308 -1328073953 -1757659540 -218847776
REM
CELL 1.54180   50.00000   50.00000   50.00000   90.00000   90.00000   90.00000
LATT -1
SFAC C  
C      1  0.4316710000000  0.5311390000000  0.5321040000000 1.0
C      1  0.5219320000000  0.5136520000000  0.4451370000000 1.0
C      1  0.5219780000000  0.4442410000000  0.5145130000000 1.0
C      1  0.5579760000000  0.4803720000000  0.5187160000000 1.0
C      1  0.4432200000000  0.4667460000000  0.4676710000000 1.0
C      1  0.5579510000000  0.5178600000000  0.4812460000000 1.0
C      1  0.4841460000000  0.4776140000000  0.4433320000000 1.0
C      1  0.5241870000000  0.4731740000000  0.5564160000000 1.0
C      1  0.4622490000000  0.5373240000000  0.5713470000000 1.0
C      1  0.4622270000000  0.5703990000000  0.5382890000000 1.0
C      1  0.5241320000000  0.5555420000000  0.4740900000000 1.0
C      1  0.4841690000000  0.4424290000000  0.4784990000000 1.0
C      1  0.4442570000000  0.5218830000000  0.4861920000000 1.0
C      1  0.5155350000000  0.5207140000000  0.5580750000000 1.0
C      1  0.5306280000000  0.4310570000000  0.4689640000000 1.0
C      1  0.5704220000000  0.4600780000000  0.4609140000000 1.0
C      1  0.4442810000000  0.4852390000000  0.5228160000000 1.0
C      1  0.5582150000000  0.5275640000000  0.5284430000000 1.0
C      1  0.4775580000000  0.4800350000000  0.5618440000000 1.0
C      1  0.5306030000000  0.4681150000000  0.4319240000000 1.0
C      1  0.4638270000000  0.5323460000000  0.4431560000000 1.0
C      1  0.4775040000000  0.5609350000000  0.4809850000000 1.0
C      1  0.5155110000000  0.5571710000000  0.5216360000000 1.0
C      1  0.4638880000000  0.4422110000000  0.5332440000000 1.0
C      1  0.4835170000000  0.5481870000000  0.4547770000000 1.0
C      1  0.5534790000000  0.4469600000000  0.4791640000000 1.0
C      1  0.4559280000000  0.4941290000000  0.5478320000000 1.0
C      1  0.5181200000000  0.4430850000000  0.4439480000000 1.0
C      1  0.4835800000000  0.4538370000000  0.5490780000000 1.0
C      1  0.5020700000000  0.5427990000000  0.5437230000000 1.0
C      1  0.4558920000000  0.5469010000000  0.4950860000000 1.0
C      1  0.5438070000000  0.5496270000000  0.5155910000000 1.0
C      1  0.4512760000000  0.4580520000000  0.5142460000000 1.0
C      1  0.5438310000000  0.5146910000000  0.5505090000000 1.0
C      1  0.4512400000000  0.5133310000000  0.4589960000000 1.0
C      1  0.5534580000000  0.4783220000000  0.4478180000000 1.0
C      1  0.4776410000000  0.5537520000000  0.5546990000000 1.0
C      1  0.5457180000000  0.4575510000000  0.5049710000000 1.0
C      1  0.4575020000000  0.4857530000000  0.4531330000000 1.0
C      1  0.5103310000000  0.4553210000000  0.5386580000000 1.0
C      1  0.4901500000000  0.4499780000000  0.4508630000000 1.0
C      1  0.5102760000000  0.5377830000000  0.4562370000000 1.0
C      1  0.4460460000000  0.5549120000000  0.5210300000000 1.0
C      1  0.5480050000000  0.5451970000000  0.4870200000000 1.0
C      1  0.4575240000000  0.4522080000000  0.4866610000000 1.0
C      1  0.5456870000000  0.5041190000000  0.4584260000000 1.0
C      1  0.4460690000000  0.5200620000000  0.5558620000000 1.0
C      1  0.5480440000000  0.4861250000000  0.5460620000000 1.0
C      1  0.4037830000000  0.5030320000000  0.5040020000000 1.0
C      1  0.5967360000000  0.5071690000000  0.5080120000000 1.0
C      1  0.5085350000000  0.4922320000000  0.5969660000000 1.0
C      1  0.5040890000000  0.4029650000000  0.4978280000000 1.0
C      1  0.5084650000000  0.5960720000000  0.4931790000000 1.0
C      1  0.5040270000000  0.4969750000000  0.4038650000000 1.0
C      1  0.5089990000000  0.4903120000000  0.4298370000000 1.0
C      1  0.4296920000000  0.5090610000000  0.5100160000000 1.0
C      1  0.5052230000000  0.4929180000000  0.5699130000000 1.0
C      1  0.5051730000000  0.5690170000000  0.4938530000000 1.0
C      1  0.5090400000000  0.4289440000000  0.4911740000000 1.0
C      1  0.5694650000000  0.5071750000000  0.5080360000000 1.0
END
