TITL C-8695-8180-226 1.52297119665465e-06 125000 -361.231806006829 0 0 60 (D3h) n - 1
REM
REM in /home/bkarasulu/CARBON/AIRSS/Generating-Clusters/EDIP-Nigel-Params/Higher-Symm/Box-15A/Only-C60/SD-CG/HFTN-CG
REM
REM
REM
REM
REM
REM ./C.cell (414f73aa93bd7a1190c7fd0f31ff2f98)
REM
REM compiler GCC version 9.2.1 20190827 (Red Hat 9.2.1-1)
REM options -cpp -mtune=generic -march=x86-64 -g -O0 -fpre-include=/usr/include/finclude/math-vector-fortran.h
REM seed -1146162001 155940707 -2045148910 -1276928965 940730129 767007230 5969322 -1121802703 -1269831272 -1591683664 -71531533 -801700556 -1303767590 511312262 -1310007248 927629887 400639297 -296166553 -1210036960 1223246431 196055355 1431641906 573437919 1993315363 1894510721 -1127571898 114899937 1059935899 -1059855613 1294109664 270514424 382541829 -575975910
REM
CELL 1.54180   50.00000   50.00000   50.00000   90.00000   90.00000   90.00000
LATT -1
SFAC C  
C      1  0.5544320000000  0.5470680000000  0.4618890000000 1.0
C      1  0.5135460000000  0.4293270000000  0.4618890000000 1.0
C      1  0.4320220000000  0.5236060000000  0.4618890000000 1.0
C      1  0.5544320000000  0.5470680000000  0.5381110000000 1.0
C      1  0.5135460000000  0.4293270000000  0.5381110000000 1.0
C      1  0.4320220000000  0.5236060000000  0.5381110000000 1.0
C      1  0.4455680000000  0.5470680000000  0.4618890000000 1.0
C      1  0.4864540000000  0.4293270000000  0.4618890000000 1.0
C      1  0.5679780000000  0.5236060000000  0.4618890000000 1.0
C      1  0.4455680000000  0.5470680000000  0.5381110000000 1.0
C      1  0.4864540000000  0.4293270000000  0.5381110000000 1.0
C      1  0.5679780000000  0.5236060000000  0.5381110000000 1.0
C      1  0.4417310000000  0.4821960000000  0.5617280000000 1.0
C      1  0.5137160000000  0.5593640000000  0.5617280000000 1.0
C      1  0.5445530000000  0.4584390000000  0.5617280000000 1.0
C      1  0.4417310000000  0.4821960000000  0.4382720000000 1.0
C      1  0.5137160000000  0.5593640000000  0.4382720000000 1.0
C      1  0.5445530000000  0.4584390000000  0.4382720000000 1.0
C      1  0.5582690000000  0.4821960000000  0.5617280000000 1.0
C      1  0.4862840000000  0.5593640000000  0.5617280000000 1.0
C      1  0.4554470000000  0.4584390000000  0.5617280000000 1.0
C      1  0.5582690000000  0.4821960000000  0.4382720000000 1.0
C      1  0.4862840000000  0.5593640000000  0.4382720000000 1.0
C      1  0.4554470000000  0.4584390000000  0.4382720000000 1.0
C      1  0.4717880000000  0.4999260000000  0.4691990000000 1.0
C      1  0.5140420000000  0.5244690000000  0.4691990000000 1.0
C      1  0.5141700000000  0.4756050000000  0.4691990000000 1.0
C      1  0.4717880000000  0.4999260000000  0.5308010000000 1.0
C      1  0.5140420000000  0.5244690000000  0.5308010000000 1.0
C      1  0.5141700000000  0.4756050000000  0.5308010000000 1.0
C      1  0.5282120000000  0.4999260000000  0.4691990000000 1.0
C      1  0.4859580000000  0.5244690000000  0.4691990000000 1.0
C      1  0.4858300000000  0.4756050000000  0.4691990000000 1.0
C      1  0.5282120000000  0.4999260000000  0.5308010000000 1.0
C      1  0.4859580000000  0.5244690000000  0.5308010000000 1.0
C      1  0.4858300000000  0.4756050000000  0.5308010000000 1.0
C      1  0.4688660000000  0.4522270000000  0.4634030000000 1.0
C      1  0.4741950000000  0.5508490000000  0.4634030000000 1.0
C      1  0.5569390000000  0.4969230000000  0.4634030000000 1.0
C      1  0.4688660000000  0.4522270000000  0.5365970000000 1.0
C      1  0.4741950000000  0.5508490000000  0.5365970000000 1.0
C      1  0.5569390000000  0.4969230000000  0.5365970000000 1.0
C      1  0.5311340000000  0.4522270000000  0.4634030000000 1.0
C      1  0.5258050000000  0.5508490000000  0.4634030000000 1.0
C      1  0.4430610000000  0.4969230000000  0.4634030000000 1.0
C      1  0.5311340000000  0.4522270000000  0.5365970000000 1.0
C      1  0.5258050000000  0.5508490000000  0.5365970000000 1.0
C      1  0.4430610000000  0.4969230000000  0.5365970000000 1.0
C      1  0.5538100000000  0.4509080000000  0.5156560000000 1.0
C      1  0.4305800000000  0.4779450000000  0.5156560000000 1.0
C      1  0.5156100000000  0.5711470000000  0.5156560000000 1.0
C      1  0.5538100000000  0.4509080000000  0.4843440000000 1.0
C      1  0.4305800000000  0.4779450000000  0.4843440000000 1.0
C      1  0.5156100000000  0.5711470000000  0.4843440000000 1.0
C      1  0.4461900000000  0.4509080000000  0.5156560000000 1.0
C      1  0.5694200000000  0.4779450000000  0.5156560000000 1.0
C      1  0.4843900000000  0.5711470000000  0.5156560000000 1.0
C      1  0.4461900000000  0.4509080000000  0.4843440000000 1.0
C      1  0.5694200000000  0.4779450000000  0.4843440000000 1.0
C      1  0.4843900000000  0.5711470000000  0.4843440000000 1.0
END
