TITL C-8694-7203-242 -3.10280462757196e-07 125000 -360.584592417951 0 0 60 (C5) n - 1
REM
REM in /home/bkarasulu/CARBON/AIRSS/Generating-Clusters/EDIP-Nigel-Params/Higher-Symm/Box-15A/Only-C60/SD-CG/HFTN-CG
REM
REM
REM
REM
REM
REM ./C.cell (414f73aa93bd7a1190c7fd0f31ff2f98)
REM
REM compiler GCC version 9.2.1 20190827 (Red Hat 9.2.1-1)
REM options -cpp -mtune=generic -march=x86-64 -g -O0 -fpre-include=/usr/include/finclude/math-vector-fortran.h
REM seed 1934421128 295206768 -202774911 -1626332965 -1347002497 214916190 -1687736680 1105574060 210913897 -776252408 1345635217 -1269371504 -119560767 -1160087604 -734815595 1355491332 641349727 -268354286 -822911222 -753355799 1435410528 -585254406 -507946194 -1159917607 -707252942 -765725886 2045570425 1415468336 1253505121 -1051600712 305576134 -1408255957 1855811591
REM
CELL 1.54180   50.00000   50.00000   50.00000   90.00000   90.00000   90.00000
LATT -1
SFAC C  
C      1  0.4752130000000  0.5154450000000  0.5603770000000 1.0
C      1  0.4344740000000  0.5133110000000  0.4947640000000 1.0
C      1  0.4843190000000  0.5112540000000  0.4357680000000 1.0
C      1  0.5558640000000  0.5121170000000  0.4649190000000 1.0
C      1  0.5502360000000  0.5147080000000  0.5419320000000 1.0
C      1  0.5445940000000  0.4985820000000  0.5152050000000 1.0
C      1  0.4993710000000  0.4997240000000  0.5471310000000 1.0
C      1  0.4550130000000  0.4986840000000  0.5140100000000 1.0
C      1  0.4728220000000  0.4969000000000  0.4616130000000 1.0
C      1  0.5281850000000  0.4968360000000  0.4623520000000 1.0
C      1  0.5784330000000  0.4962070000000  0.4745080000000 1.0
C      1  0.5485850000000  0.4993460000000  0.5667460000000 1.0
C      1  0.4515880000000  0.4995040000000  0.5668730000000 1.0
C      1  0.4214880000000  0.4964630000000  0.4747140000000 1.0
C      1  0.4998830000000  0.4944250000000  0.4176300000000 1.0
C      1  0.5740130000000  0.4693320000000  0.4842670000000 1.0
C      1  0.5387700000000  0.4721350000000  0.5662300000000 1.0
C      1  0.4498820000000  0.4720020000000  0.5580540000000 1.0
C      1  0.4301900000000  0.4691170000000  0.4710380000000 1.0
C      1  0.5069070000000  0.4674670000000  0.4254360000000 1.0
C      1  0.4797480000000  0.5701320000000  0.5139570000000 1.0
C      1  0.4783170000000  0.5691090000000  0.4833460000000 1.0
C      1  0.5070040000000  0.5687000000000  0.4725280000000 1.0
C      1  0.5261640000000  0.5694720000000  0.4964540000000 1.0
C      1  0.5093190000000  0.5703570000000  0.5220580000000 1.0
C      1  0.4624050000000  0.4328580000000  0.4864100000000 1.0
C      1  0.5033660000000  0.4319650000000  0.4617110000000 1.0
C      1  0.5395290000000  0.4329560000000  0.4930140000000 1.0
C      1  0.5209180000000  0.4344620000000  0.5370600000000 1.0
C      1  0.4732530000000  0.4344010000000  0.5329780000000 1.0
C      1  0.4965980000000  0.4479080000000  0.5405660000000 1.0
C      1  0.4619910000000  0.4469590000000  0.5106180000000 1.0
C      1  0.4797930000000  0.4455180000000  0.4684690000000 1.0
C      1  0.5254030000000  0.4455760000000  0.4723690000000 1.0
C      1  0.5357900000000  0.4470530000000  0.5169270000000 1.0
C      1  0.5243820000000  0.4739330000000  0.5111200000000 1.0
C      1  0.4977660000000  0.4745160000000  0.5272620000000 1.0
C      1  0.4741800000000  0.4738730000000  0.5069500000000 1.0
C      1  0.4862180000000  0.4728920000000  0.4782550000000 1.0
C      1  0.5172450000000  0.4729290000000  0.4808320000000 1.0
C      1  0.5446510000000  0.5457970000000  0.4964210000000 1.0
C      1  0.5157910000000  0.5473110000000  0.5402030000000 1.0
C      1  0.4652090000000  0.5469250000000  0.5262980000000 1.0
C      1  0.4628080000000  0.5451730000000  0.4739230000000 1.0
C      1  0.5119050000000  0.5444760000000  0.4554570000000 1.0
C      1  0.5718140000000  0.4893890000000  0.5047630000000 1.0
C      1  0.5179910000000  0.4916610000000  0.5699950000000 1.0
C      1  0.4392810000000  0.4907460000000  0.5389890000000 1.0
C      1  0.4444600000000  0.4879100000000  0.4545950000000 1.0
C      1  0.5263690000000  0.4870700000000  0.4334420000000 1.0
C      1  0.5270590000000  0.5220710000000  0.5015770000000 1.0
C      1  0.5061840000000  0.5229120000000  0.5256640000000 1.0
C      1  0.4768110000000  0.5225430000000  0.5132630000000 1.0
C      1  0.4795330000000  0.5214740000000  0.4815130000000 1.0
C      1  0.5105880000000  0.5211830000000  0.4742900000000 1.0
C      1  0.4922380000000  0.5387560000000  0.4359120000000 1.0
C      1  0.5573290000000  0.5398560000000  0.4718130000000 1.0
C      1  0.5432830000000  0.5423240000000  0.5447760000000 1.0
C      1  0.4695120000000  0.5427490000000  0.5539680000000 1.0
C      1  0.4379640000000  0.5405440000000  0.4866870000000 1.0
END
