TITL C-8699-7882-57 -1.45146019772283e-05 125000 -373.531062097128 0 0 60 (Td) n - 1
REM
REM in /home/bkarasulu/CARBON/AIRSS/Generating-Clusters/EDIP-Nigel-Params/Higher-Symm/Box-15A/Only-C60/SD-CG/HFTN-CG
REM
REM
REM
REM
REM
REM ./C.cell (414f73aa93bd7a1190c7fd0f31ff2f98)
REM
REM compiler GCC version 9.2.1 20190827 (Red Hat 9.2.1-1)
REM options -cpp -mtune=generic -march=x86-64 -g -O0 -fpre-include=/usr/include/finclude/math-vector-fortran.h
REM seed 1421987928 1805808988 552464438 1767009958 1657387875 -146026487 1843742320 -63527204 -1430104347 -1722021222 1382353459 -1529092696 -697894582 1218729234 -265948340 515946847 -853553927 -347865652 -1845755191 -302605635 1028330838 1055807118 2084972881 1258157278 1292280021 184760061 149723499 -344351636 594321593 1861916080 -502472666 2064499531 -596213707
REM
CELL 1.54180   50.00000   50.00000   50.00000   90.00000   90.00000   90.00000
LATT -1
SFAC C  
C      1  0.4655460000000  0.5546480000000  0.4855730000000 1.0
C      1  0.4856390000000  0.4655970000000  0.5545960000000 1.0
C      1  0.5545760000000  0.4856300000000  0.4656230000000 1.0
C      1  0.5343800000000  0.5545670000000  0.5143630000000 1.0
C      1  0.4656230000000  0.4454240000000  0.5143700000000 1.0
C      1  0.5344030000000  0.4454040000000  0.4856390000000 1.0
C      1  0.5143630000000  0.4656200000000  0.4454330000000 1.0
C      1  0.4855730000000  0.5344540000000  0.4453520000000 1.0
C      1  0.5143700000000  0.5343770000000  0.5545760000000 1.0
C      1  0.4454330000000  0.4856370000000  0.5343800000000 1.0
C      1  0.5545960000000  0.5143610000000  0.5344030000000 1.0
C      1  0.4453520000000  0.5144270000000  0.4655460000000 1.0
C      1  0.4855730000000  0.5546480000000  0.4655460000000 1.0
C      1  0.5545960000000  0.4655970000000  0.4856390000000 1.0
C      1  0.4656230000000  0.4856300000000  0.5545760000000 1.0
C      1  0.5143630000000  0.5545670000000  0.5343800000000 1.0
C      1  0.5143700000000  0.4454240000000  0.4656230000000 1.0
C      1  0.4856390000000  0.4454040000000  0.5344030000000 1.0
C      1  0.4454330000000  0.4656200000000  0.5143630000000 1.0
C      1  0.4453520000000  0.5344540000000  0.4855730000000 1.0
C      1  0.5545760000000  0.5343770000000  0.5143700000000 1.0
C      1  0.5343800000000  0.4856370000000  0.4454330000000 1.0
C      1  0.5344030000000  0.5143610000000  0.5545960000000 1.0
C      1  0.4655460000000  0.5144270000000  0.4453520000000 1.0
C      1  0.5035790000000  0.5764620000000  0.4692740000000 1.0
C      1  0.4692960000000  0.5036310000000  0.5763890000000 1.0
C      1  0.5764070000000  0.4692850000000  0.5036400000000 1.0
C      1  0.4962820000000  0.5762800000000  0.5307270000000 1.0
C      1  0.5036400000000  0.4235930000000  0.5307150000000 1.0
C      1  0.4963690000000  0.4236110000000  0.4692960000000 1.0
C      1  0.5307270000000  0.5037180000000  0.4237200000000 1.0
C      1  0.4692740000000  0.4964210000000  0.4235380000000 1.0
C      1  0.5307150000000  0.4963600000000  0.5764070000000 1.0
C      1  0.4237200000000  0.4692730000000  0.4962820000000 1.0
C      1  0.5763890000000  0.5307040000000  0.4963690000000 1.0
C      1  0.4235380000000  0.5307260000000  0.5035790000000 1.0
C      1  0.4692740000000  0.5764620000000  0.5035790000000 1.0
C      1  0.5763890000000  0.5036310000000  0.4692960000000 1.0
C      1  0.5036400000000  0.4692850000000  0.5764070000000 1.0
C      1  0.5307270000000  0.5762800000000  0.4962820000000 1.0
C      1  0.5307150000000  0.4235930000000  0.5036400000000 1.0
C      1  0.4692960000000  0.4236110000000  0.4963690000000 1.0
C      1  0.4237200000000  0.5037180000000  0.5307270000000 1.0
C      1  0.4235380000000  0.4964210000000  0.4692740000000 1.0
C      1  0.5764070000000  0.4963600000000  0.5307150000000 1.0
C      1  0.4962820000000  0.4692730000000  0.4237200000000 1.0
C      1  0.4963690000000  0.5307040000000  0.5763890000000 1.0
C      1  0.5035790000000  0.5307260000000  0.4235380000000 1.0
C      1  0.4075580000000  0.5100890000000  0.4899110000000 1.0
C      1  0.4898440000000  0.4076290000000  0.5101590000000 1.0
C      1  0.5101590000000  0.5101560000000  0.5923710000000 1.0
C      1  0.4899100000000  0.5100890000000  0.4075580000000 1.0
C      1  0.5923710000000  0.5101560000000  0.5101590000000 1.0
C      1  0.4078400000000  0.4897740000000  0.5102260000000 1.0
C      1  0.5923710000000  0.4898410000000  0.4898440000000 1.0
C      1  0.5101590000000  0.4076290000000  0.4898440000000 1.0
C      1  0.5102260000000  0.5921600000000  0.5102260000000 1.0
C      1  0.5102260000000  0.4897740000000  0.4078400000000 1.0
C      1  0.4898440000000  0.4898410000000  0.5923710000000 1.0
C      1  0.4899110000000  0.5924420000000  0.4899110000000 1.0
END
