TITL C-8691-6797-314 -3.19517648534542e-07 125000 -376.548814484138 0 0 60 (C1) n - 1
REM
REM in /home/bkarasulu/CARBON/AIRSS/Generating-Clusters/EDIP-Nigel-Params/Higher-Symm/Box-15A/Only-C60/SD-CG/HFTN-CG
REM
REM
REM
REM
REM
REM ./C.cell (414f73aa93bd7a1190c7fd0f31ff2f98)
REM
REM compiler GCC version 9.2.1 20190827 (Red Hat 9.2.1-1)
REM options -cpp -mtune=generic -march=x86-64 -g -O0 -fpre-include=/usr/include/finclude/math-vector-fortran.h
REM seed 696508531 -1481838624 -391136096 -1049092249 1421469226 -966911616 1506820849 1102884012 1976617417 1561584852 1418410562 -1557631230 481275194 771632332 971135234 600177931 -2062256999 1569098259 -1042610608 1989157349 -2138233477 691596741 1695033756 669826487 -1013697831 211009056 -1578368384 1114618682 189630892 -250094384 -1402945648 -395847932 -1032108415
REM
CELL 1.54180   50.00000   50.00000   50.00000   90.00000   90.00000   90.00000
LATT -1
SFAC C  
C      1  0.5075500000000  0.4765610000000  0.5552390000000 1.0
C      1  0.4800810000000  0.4865790000000  0.5553950000000 1.0
C      1  0.4806140000000  0.5159660000000  0.5570690000000 1.0
C      1  0.5092840000000  0.5249710000000  0.5591250000000 1.0
C      1  0.5262780000000  0.4996760000000  0.5588240000000 1.0
C      1  0.5542210000000  0.5418150000000  0.5189040000000 1.0
C      1  0.5571380000000  0.4588850000000  0.5190530000000 1.0
C      1  0.4803680000000  0.4339890000000  0.5190080000000 1.0
C      1  0.4310990000000  0.4983440000000  0.5192610000000 1.0
C      1  0.4769770000000  0.5645890000000  0.5186610000000 1.0
C      1  0.5182820000000  0.5492600000000  0.5439770000000 1.0
C      1  0.5529210000000  0.4989580000000  0.5452470000000 1.0
C      1  0.5140790000000  0.4505390000000  0.5429750000000 1.0
C      1  0.4580510000000  0.4720650000000  0.5427410000000 1.0
C      1  0.4599250000000  0.5320610000000  0.5434550000000 1.0
C      1  0.5118550000000  0.4520860000000  0.4527750000000 1.0
C      1  0.4593760000000  0.4742770000000  0.4539570000000 1.0
C      1  0.4618110000000  0.5312750000000  0.4533950000000 1.0
C      1  0.5187140000000  0.5463950000000  0.4529160000000 1.0
C      1  0.5486110000000  0.4956760000000  0.4540010000000 1.0
C      1  0.5446710000000  0.4732240000000  0.4734990000000 1.0
C      1  0.4903040000000  0.4491360000000  0.4732870000000 1.0
C      1  0.4493660000000  0.4940970000000  0.4740780000000 1.0
C      1  0.4729070000000  0.5531350000000  0.4692130000000 1.0
C      1  0.5425050000000  0.5417330000000  0.4691800000000 1.0
C      1  0.5461940000000  0.5534540000000  0.5433380000000 1.0
C      1  0.5636360000000  0.4729560000000  0.5426800000000 1.0
C      1  0.4939100000000  0.4309200000000  0.5434560000000 1.0
C      1  0.4326750000000  0.4842670000000  0.5435940000000 1.0
C      1  0.4641540000000  0.5599550000000  0.5433790000000 1.0
C      1  0.5390410000000  0.4482820000000  0.4601070000000 1.0
C      1  0.4642690000000  0.4472170000000  0.4609980000000 1.0
C      1  0.4382660000000  0.5176420000000  0.4612530000000 1.0
C      1  0.4980060000000  0.5634880000000  0.4616240000000 1.0
C      1  0.5593270000000  0.5203690000000  0.4623370000000 1.0
C      1  0.5436510000000  0.5556890000000  0.4949060000000 1.0
C      1  0.5657780000000  0.4732050000000  0.4947520000000 1.0
C      1  0.4965650000000  0.4292200000000  0.4948630000000 1.0
C      1  0.4321980000000  0.4814650000000  0.4951460000000 1.0
C      1  0.4600340000000  0.5588940000000  0.4950230000000 1.0
C      1  0.5277650000000  0.4529340000000  0.5161010000000 1.0
C      1  0.4649850000000  0.4595640000000  0.5159830000000 1.0
C      1  0.4506940000000  0.5209480000000  0.5164290000000 1.0
C      1  0.5045730000000  0.5523960000000  0.5165720000000 1.0
C      1  0.5512100000000  0.5117040000000  0.5176600000000 1.0
C      1  0.4831970000000  0.4786990000000  0.4981270000000 1.0
C      1  0.4756350000000  0.5095780000000  0.4991900000000 1.0
C      1  0.5019200000000  0.5239570000000  0.5043170000000 1.0
C      1  0.5236300000000  0.5046990000000  0.5063860000000 1.0
C      1  0.5152200000000  0.4768960000000  0.4990170000000 1.0
C      1  0.5208930000000  0.5711950000000  0.5006660000000 1.0
C      1  0.5725890000000  0.4997810000000  0.5015720000000 1.0
C      1  0.5239880000000  0.4276130000000  0.5015900000000 1.0
C      1  0.4396630000000  0.4548900000000  0.5017340000000 1.0
C      1  0.4375940000000  0.5429540000000  0.5017350000000 1.0
C      1  0.5097340000000  0.5234190000000  0.4369460000000 1.0
C      1  0.5256800000000  0.4982470000000  0.4357500000000 1.0
C      1  0.5065160000000  0.4752220000000  0.4350320000000 1.0
C      1  0.4788260000000  0.4866740000000  0.4356450000000 1.0
C      1  0.4809970000000  0.5163170000000  0.4368590000000 1.0
END
