TITL C-8699-7882-169 -2.61337022789821e-07 125000 -361.751501390882 0 0 60 (C1) n - 1
REM
REM in /home/bkarasulu/CARBON/AIRSS/Generating-Clusters/EDIP-Nigel-Params/Higher-Symm/Box-15A/Only-C60/SD-CG/HFTN-CG
REM
REM
REM
REM
REM
REM ./C.cell (414f73aa93bd7a1190c7fd0f31ff2f98)
REM
REM compiler GCC version 9.2.1 20190827 (Red Hat 9.2.1-1)
REM options -cpp -mtune=generic -march=x86-64 -g -O0 -fpre-include=/usr/include/finclude/math-vector-fortran.h
REM seed 27146713 -881167782 1619755790 -1504947679 -199826593 719425636 1181770580 -1380361556 -1499433512 882258120 594254347 -13450734 -1678900493 -1284839661 295630427 1731169818 -1056719136 213073846 -1180287995 1377019268 -123361495 -1682933714 -1626118165 428117343 877891222 -1690524093 -196004687 1796670318 2111160435 969763142 -1266691782 2116329081 438534289
REM
CELL 1.54180   50.00000   50.00000   50.00000   90.00000   90.00000   90.00000
LATT -1
SFAC C  
C      1  0.4641060000000  0.5453180000000  0.4375050000000 1.0
C      1  0.4670970000000  0.4538710000000  0.5629560000000 1.0
C      1  0.4674780000000  0.5447270000000  0.5655900000000 1.0
C      1  0.4677930000000  0.4516010000000  0.4376760000000 1.0
C      1  0.5204680000000  0.5602660000000  0.4811490000000 1.0
C      1  0.5194840000000  0.4425020000000  0.5164280000000 1.0
C      1  0.5201740000000  0.5585490000000  0.5174620000000 1.0
C      1  0.5197330000000  0.4422040000000  0.4846080000000 1.0
C      1  0.5696690000000  0.4732810000000  0.5157780000000 1.0
C      1  0.5708250000000  0.5272930000000  0.4844280000000 1.0
C      1  0.5692430000000  0.4743610000000  0.4888810000000 1.0
C      1  0.5694670000000  0.5265360000000  0.5114140000000 1.0
C      1  0.4959420000000  0.4874330000000  0.5287010000000 1.0
C      1  0.4963900000000  0.5182090000000  0.4703920000000 1.0
C      1  0.4959710000000  0.4877110000000  0.4717930000000 1.0
C      1  0.4957470000000  0.5153300000000  0.5204990000000 1.0
C      1  0.5118760000000  0.5336070000000  0.4358860000000 1.0
C      1  0.5141480000000  0.4618950000000  0.5648210000000 1.0
C      1  0.5134520000000  0.5269140000000  0.5639320000000 1.0
C      1  0.5199400000000  0.4675490000000  0.4359590000000 1.0
C      1  0.4696890000000  0.5290240000000  0.4815740000000 1.0
C      1  0.4703350000000  0.4751840000000  0.5166740000000 1.0
C      1  0.4697720000000  0.5272230000000  0.5132840000000 1.0
C      1  0.4701330000000  0.4772710000000  0.4845700000000 1.0
C      1  0.5444870000000  0.5137920000000  0.4409570000000 1.0
C      1  0.5425880000000  0.4867560000000  0.5578630000000 1.0
C      1  0.5411720000000  0.5181680000000  0.5562080000000 1.0
C      1  0.5446690000000  0.4826020000000  0.4432940000000 1.0
C      1  0.4956770000000  0.5657530000000  0.5321370000000 1.0
C      1  0.4951880000000  0.4320770000000  0.4712610000000 1.0
C      1  0.4947160000000  0.5675300000000  0.4688740000000 1.0
C      1  0.4942050000000  0.4327040000000  0.5293740000000 1.0
C      1  0.4475720000000  0.4858870000000  0.5323650000000 1.0
C      1  0.4472520000000  0.5159400000000  0.4661380000000 1.0
C      1  0.4474810000000  0.4862570000000  0.4677330000000 1.0
C      1  0.4482030000000  0.5155190000000  0.5318570000000 1.0
C      1  0.5466050000000  0.4848060000000  0.4745050000000 1.0
C      1  0.5459230000000  0.5167560000000  0.5249980000000 1.0
C      1  0.5458540000000  0.4850450000000  0.5271100000000 1.0
C      1  0.5470600000000  0.5166210000000  0.4718960000000 1.0
C      1  0.4715930000000  0.5669430000000  0.4868300000000 1.0
C      1  0.4707340000000  0.4447400000000  0.5147730000000 1.0
C      1  0.4713360000000  0.5578710000000  0.5151150000000 1.0
C      1  0.4711890000000  0.4394580000000  0.4858190000000 1.0
C      1  0.5216670000000  0.5299550000000  0.4828450000000 1.0
C      1  0.5202000000000  0.4737020000000  0.5160610000000 1.0
C      1  0.5207540000000  0.5286790000000  0.5126360000000 1.0
C      1  0.5204260000000  0.4742290000000  0.4851400000000 1.0
C      1  0.4906190000000  0.5528440000000  0.4434520000000 1.0
C      1  0.4927340000000  0.4418280000000  0.5582360000000 1.0
C      1  0.4942560000000  0.5499970000000  0.5580780000000 1.0
C      1  0.4933980000000  0.4408360000000  0.4434200000000 1.0
C      1  0.4488550000000  0.4702210000000  0.4445130000000 1.0
C      1  0.4475170000000  0.5287820000000  0.5565820000000 1.0
C      1  0.4474730000000  0.4719800000000  0.5568300000000 1.0
C      1  0.4435110000000  0.5280140000000  0.4410830000000 1.0
C      1  0.4981230000000  0.4855740000000  0.5597480000000 1.0
C      1  0.4995380000000  0.5093830000000  0.4293240000000 1.0
C      1  0.4969320000000  0.4843640000000  0.4419230000000 1.0
C      1  0.5015600000000  0.5065310000000  0.5790620000000 1.0
END
