TITL C-8694-7203-259 -6.74445057687166e-07 125000 -364.570204837637 0 0 60 (C3i) n - 1
REM
REM in /home/bkarasulu/CARBON/AIRSS/Generating-Clusters/EDIP-Nigel-Params/Higher-Symm/Box-15A/Only-C60/SD-CG/HFTN-CG
REM
REM
REM
REM
REM
REM ./C.cell (414f73aa93bd7a1190c7fd0f31ff2f98)
REM
REM compiler GCC version 9.2.1 20190827 (Red Hat 9.2.1-1)
REM options -cpp -mtune=generic -march=x86-64 -g -O0 -fpre-include=/usr/include/finclude/math-vector-fortran.h
REM seed -689832188 1777748454 1274006514 1643141268 -786739787 -203265707 -1797470657 -918936664 90876417 -336653075 1539479578 1384576107 -1821350267 1090152607 241992243 -1439299077 1097683326 1699578585 1944750591 -1941319725 -237258395 -486575387 1443170574 549556119 988417732 379544824 -285465758 -274510678 -993576293 -1627992122 1989470183 1409509084 -338383129
REM
CELL 1.54180   50.00000   50.00000   50.00000   90.00000   90.00000   90.00000
LATT -1
SFAC C  
C      1  0.4587300000000  0.4825830000000  0.5143600000000 1.0
C      1  0.5417960000000  0.5032400000000  0.5213390000000 1.0
C      1  0.4586290000000  0.5205920000000  0.5087870000000 1.0
C      1  0.5412700000000  0.5174170000000  0.4856400000000 1.0
C      1  0.4582040000000  0.4967600000000  0.4786610000000 1.0
C      1  0.5413710000000  0.4794080000000  0.4912130000000 1.0
C      1  0.4560580000000  0.4401440000000  0.4852490000000 1.0
C      1  0.5444130000000  0.4567800000000  0.5434830000000 1.0
C      1  0.4571060000000  0.5165680000000  0.5601410000000 1.0
C      1  0.5439420000000  0.5598560000000  0.5147510000000 1.0
C      1  0.4555870000000  0.5432200000000  0.4565170000000 1.0
C      1  0.5428940000000  0.4834320000000  0.4398590000000 1.0
C      1  0.4712050000000  0.5667080000000  0.5002740000000 1.0
C      1  0.5279000000000  0.5332520000000  0.4417330000000 1.0
C      1  0.4704210000000  0.4664990000000  0.4427120000000 1.0
C      1  0.5287950000000  0.4332920000000  0.4997260000000 1.0
C      1  0.4721000000000  0.4667480000000  0.5582670000000 1.0
C      1  0.5295790000000  0.5335010000000  0.5572880000000 1.0
C      1  0.5161130000000  0.4741570000000  0.4332710000000 1.0
C      1  0.4828140000000  0.4294850000000  0.4893930000000 1.0
C      1  0.5178960000000  0.4553540000000  0.5553780000000 1.0
C      1  0.4838870000000  0.5258430000000  0.5667290000000 1.0
C      1  0.5171860000000  0.5705150000000  0.5106070000000 1.0
C      1  0.4821040000000  0.5446460000000  0.4446220000000 1.0
C      1  0.4510300000000  0.4821300000000  0.5443020000000 1.0
C      1  0.5501390000000  0.5288500000000  0.5365220000000 1.0
C      1  0.4502710000000  0.5466430000000  0.4943830000000 1.0
C      1  0.5489700000000  0.5178700000000  0.4556980000000 1.0
C      1  0.4498610000000  0.4711500000000  0.4634780000000 1.0
C      1  0.5497290000000  0.4533570000000  0.5056170000000 1.0
C      1  0.5025270000000  0.5375950000000  0.5446300000000 1.0
C      1  0.4979230000000  0.5574750000000  0.4898030000000 1.0
C      1  0.5010900000000  0.5198830000000  0.4450900000000 1.0
C      1  0.4974730000000  0.4624050000000  0.4553700000000 1.0
C      1  0.5020770000000  0.4425250000000  0.5101970000000 1.0
C      1  0.4989100000000  0.4801170000000  0.5549100000000 1.0
C      1  0.5269690000000  0.4259400000000  0.4726520000000 1.0
C      1  0.4734460000000  0.4396060000000  0.5510650000000 1.0
C      1  0.5284420000000  0.5137090000000  0.5772220000000 1.0
C      1  0.4730310000000  0.5740600000000  0.5273480000000 1.0
C      1  0.5265540000000  0.5603940000000  0.4489350000000 1.0
C      1  0.4715580000000  0.4862910000000  0.4227780000000 1.0
C      1  0.5007640000000  0.4331950000000  0.4653390000000 1.0
C      1  0.4993900000000  0.4365930000000  0.5405450000000 1.0
C      1  0.5023230000000  0.5033990000000  0.5751520000000 1.0
C      1  0.4992360000000  0.5668050000000  0.5346610000000 1.0
C      1  0.5006100000000  0.5634070000000  0.4594550000000 1.0
C      1  0.4976770000000  0.4966010000000  0.4248480000000 1.0
C      1  0.5002970000000  0.4719660000000  0.5054490000000 1.0
C      1  0.5001940000000  0.4907050000000  0.5270040000000 1.0
C      1  0.5005060000000  0.5187390000000  0.5215470000000 1.0
C      1  0.4997030000000  0.5280340000000  0.4945510000000 1.0
C      1  0.4998060000000  0.5092950000000  0.4729960000000 1.0
C      1  0.4994940000000  0.4812610000000  0.4784530000000 1.0
C      1  0.5555770000000  0.4813970000000  0.4652880000000 1.0
C      1  0.4439490000000  0.4612950000000  0.4999990000000 1.0
C      1  0.5565510000000  0.4799860000000  0.5322680000000 1.0
C      1  0.4444230000000  0.5186030000000  0.5347120000000 1.0
C      1  0.5560510000000  0.5387050000000  0.5000010000000 1.0
C      1  0.4434490000000  0.5200140000000  0.4677320000000 1.0
END
