TITL C-8696-5006-104 -2.02170478037175e-05 125000 -367.166615919223 0 0 60 (Ci) n - 1
REM
REM in /home/bkarasulu/CARBON/AIRSS/Generating-Clusters/EDIP-Nigel-Params/Higher-Symm/Box-15A/Only-C60/SD-CG/HFTN-CG
REM
REM
REM
REM
REM
REM ./C.cell (414f73aa93bd7a1190c7fd0f31ff2f98)
REM
REM compiler GCC version 9.2.1 20190827 (Red Hat 9.2.1-1)
REM options -cpp -mtune=generic -march=x86-64 -g -O0 -fpre-include=/usr/include/finclude/math-vector-fortran.h
REM seed -1323371320 113288523 -1367657677 959518973 1495671561 812071607 -689812279 -774523875 -133467165 2101264237 -1754534050 801037289 822825584 -2011760413 -1222154735 -8543617 -2053583015 -299661302 -328211925 -379601893 2082442137 -366148752 469310422 -1590317221 413526665 1363160000 -798101403 655416802 466410318 1519462769 1078688917 1737133833 817514707
REM
CELL 1.54180   50.00000   50.00000   50.00000   90.00000   90.00000   90.00000
LATT -1
SFAC C  
C      1  0.4483950000000  0.4647080000000  0.5057480000000 1.0
C      1  0.5516050000000  0.5352920000000  0.4942520000000 1.0
C      1  0.5255390000000  0.4906270000000  0.4843450000000 1.0
C      1  0.4744610000000  0.5093730000000  0.5156550000000 1.0
C      1  0.5002160000000  0.4251410000000  0.4829710000000 1.0
C      1  0.4997840000000  0.5748590000000  0.5170290000000 1.0
C      1  0.4919640000000  0.4527900000000  0.5326290000000 1.0
C      1  0.5080360000000  0.5472100000000  0.4673710000000 1.0
C      1  0.4369410000000  0.4883590000000  0.5188000000000 1.0
C      1  0.5630590000000  0.5116410000000  0.4812000000000 1.0
C      1  0.5350760000000  0.4970630000000  0.5588590000000 1.0
C      1  0.4649240000000  0.5029370000000  0.4411410000000 1.0
C      1  0.5429470000000  0.5476970000000  0.5405840000000 1.0
C      1  0.4570530000000  0.4523030000000  0.4594160000000 1.0
C      1  0.4670000000000  0.5378150000000  0.5084460000000 1.0
C      1  0.5330000000000  0.4621850000000  0.4915540000000 1.0
C      1  0.5038610000000  0.5301920000000  0.4432610000000 1.0
C      1  0.4961390000000  0.4698080000000  0.5567390000000 1.0
C      1  0.4742250000000  0.4966620000000  0.4890840000000 1.0
C      1  0.5257750000000  0.5033380000000  0.5109160000000 1.0
C      1  0.5645100000000  0.4648260000000  0.5042790000000 1.0
C      1  0.4354900000000  0.5351740000000  0.4957210000000 1.0
C      1  0.4653980000000  0.5456610000000  0.5461750000000 1.0
C      1  0.5346020000000  0.4543390000000  0.4538250000000 1.0
C      1  0.5022120000000  0.5070680000000  0.5260340000000 1.0
C      1  0.4977880000000  0.4929320000000  0.4739660000000 1.0
C      1  0.5777740000000  0.4937140000000  0.5002970000000 1.0
C      1  0.4222260000000  0.5062860000000  0.4997030000000 1.0
C      1  0.5407450000000  0.4559560000000  0.5341230000000 1.0
C      1  0.4592550000000  0.5440440000000  0.4658770000000 1.0
C      1  0.5620370000000  0.5380990000000  0.5215280000000 1.0
C      1  0.4379630000000  0.4619010000000  0.4784720000000 1.0
C      1  0.5171970000000  0.5434380000000  0.5520020000000 1.0
C      1  0.4828030000000  0.4565620000000  0.4479980000000 1.0
C      1  0.5106870000000  0.5139670000000  0.5536820000000 1.0
C      1  0.4893130000000  0.4860330000000  0.4463180000000 1.0
C      1  0.4827300000000  0.5600110000000  0.4742240000000 1.0
C      1  0.5172700000000  0.4399890000000  0.5257760000000 1.0
C      1  0.5584540000000  0.4498770000000  0.4748410000000 1.0
C      1  0.4415460000000  0.5501230000000  0.5251590000000 1.0
C      1  0.4940660000000  0.5556260000000  0.5384450000000 1.0
C      1  0.5059340000000  0.4443740000000  0.4615550000000 1.0
C      1  0.4635730000000  0.5172240000000  0.5585370000000 1.0
C      1  0.5364270000000  0.4827760000000  0.4414630000000 1.0
C      1  0.4270010000000  0.4899720000000  0.4736020000000 1.0
C      1  0.5729990000000  0.5100280000000  0.5263980000000 1.0
C      1  0.5313940000000  0.5544690000000  0.4845290000000 1.0
C      1  0.4686060000000  0.4455310000000  0.5154710000000 1.0
C      1  0.5124810000000  0.4959150000000  0.4308160000000 1.0
C      1  0.4875190000000  0.5040850000000  0.5691840000000 1.0
C      1  0.4749620000000  0.4271250000000  0.4950310000000 1.0
C      1  0.5250380000000  0.5728750000000  0.5049690000000 1.0
C      1  0.4740030000000  0.5313310000000  0.4407340000000 1.0
C      1  0.5259970000000  0.4686690000000  0.5592660000000 1.0
C      1  0.4490100000000  0.4981600000000  0.5428400000000 1.0
C      1  0.5509900000000  0.5018400000000  0.4571600000000 1.0
C      1  0.4810120000000  0.5771780000000  0.4964590000000 1.0
C      1  0.5189880000000  0.4228220000000  0.5035410000000 1.0
C      1  0.5464010000000  0.4944030000000  0.5304700000000 1.0
C      1  0.4535990000000  0.5055970000000  0.4695300000000 1.0
END
