TITL C-8695-8180-275 -1.13730829112774e-06 125000 -348.511923424933 0 0 60 (S4) n - 1
REM
REM in /home/bkarasulu/CARBON/AIRSS/Generating-Clusters/EDIP-Nigel-Params/Higher-Symm/Box-15A/Only-C60/SD-CG/HFTN-CG
REM
REM
REM
REM
REM
REM ./C.cell (414f73aa93bd7a1190c7fd0f31ff2f98)
REM
REM compiler GCC version 9.2.1 20190827 (Red Hat 9.2.1-1)
REM options -cpp -mtune=generic -march=x86-64 -g -O0 -fpre-include=/usr/include/finclude/math-vector-fortran.h
REM seed -1439103945 2113228029 2029537818 -1477440231 -1938833428 1298954245 -773903238 1699350648 1925308392 1647548679 -2044518634 -216322788 -1280350613 -1007761099 -1558822138 -26897539 -541426699 1411669979 -1169116560 945618596 -1617474888 -1783040822 1140737960 -1189511560 -1268076417 57086035 -2025317225 -70284117 1088298159 1766408745 -130282731 6025437 -348728933
REM
CELL 1.54180   50.00000   50.00000   50.00000   90.00000   90.00000   90.00000
LATT -1
SFAC C  
C      1  0.5506000000000  0.4709060000000  0.4949350000000 1.0
C      1  0.5037150000000  0.4721440000000  0.5470080000000 1.0
C      1  0.4494000000000  0.4709070000000  0.5050650000000 1.0
C      1  0.4962840000000  0.4721430000000  0.4529920000000 1.0
C      1  0.5470080000000  0.5317000000000  0.4962840000000 1.0
C      1  0.5050650000000  0.5329380000000  0.5506000000000 1.0
C      1  0.4529920000000  0.5317010000000  0.5037150000000 1.0
C      1  0.4949350000000  0.5329370000000  0.4494000000000 1.0
C      1  0.4768510000000  0.4335810000000  0.5429740000000 1.0
C      1  0.4554440000000  0.4315260000000  0.4786990000000 1.0
C      1  0.5231480000000  0.4335800000000  0.4570270000000 1.0
C      1  0.5445560000000  0.4315260000000  0.5213020000000 1.0
C      1  0.4786990000000  0.5723190000000  0.5445550000000 1.0
C      1  0.4570270000000  0.5702640000000  0.4768510000000 1.0
C      1  0.5213020000000  0.5723180000000  0.4554440000000 1.0
C      1  0.5429740000000  0.5702640000000  0.5231480000000 1.0
C      1  0.5194360000000  0.4252670000000  0.5103900000000 1.0
C      1  0.4893800000000  0.4249950000000  0.5193120000000 1.0
C      1  0.4805630000000  0.4252670000000  0.4896110000000 1.0
C      1  0.5106190000000  0.4249940000000  0.4806890000000 1.0
C      1  0.5193120000000  0.5788500000000  0.5106190000000 1.0
C      1  0.4896110000000  0.5785780000000  0.5194360000000 1.0
C      1  0.4806890000000  0.5788500000000  0.4893800000000 1.0
C      1  0.5103900000000  0.5785770000000  0.4805630000000 1.0
C      1  0.5667860000000  0.5152840000000  0.4851260000000 1.0
C      1  0.5151980000000  0.5153600000000  0.5698920000000 1.0
C      1  0.4332140000000  0.5152850000000  0.5148740000000 1.0
C      1  0.4848020000000  0.5153590000000  0.4301080000000 1.0
C      1  0.5698920000000  0.4884850000000  0.4848030000000 1.0
C      1  0.5148740000000  0.4885610000000  0.5667860000000 1.0
C      1  0.4301080000000  0.4884850000000  0.5151980000000 1.0
C      1  0.4851260000000  0.4885600000000  0.4332140000000 1.0
C      1  0.5116500000000  0.5189410000000  0.4739310000000 1.0
C      1  0.5253150000000  0.5157160000000  0.5152830000000 1.0
C      1  0.4883500000000  0.5189420000000  0.5260680000000 1.0
C      1  0.4746850000000  0.5157160000000  0.4847160000000 1.0
C      1  0.5152830000000  0.4881280000000  0.4746850000000 1.0
C      1  0.5260680000000  0.4849030000000  0.5116500000000 1.0
C      1  0.4847160000000  0.4881290000000  0.5253150000000 1.0
C      1  0.4739310000000  0.4849030000000  0.4883500000000 1.0
C      1  0.4608870000000  0.4815040000000  0.5461740000000 1.0
C      1  0.4535790000000  0.4777840000000  0.4619790000000 1.0
C      1  0.5391130000000  0.4815030000000  0.4538260000000 1.0
C      1  0.5464200000000  0.4777840000000  0.5380210000000 1.0
C      1  0.4619790000000  0.5260610000000  0.5464200000000 1.0
C      1  0.4538260000000  0.5223410000000  0.4608870000000 1.0
C      1  0.5380210000000  0.5260600000000  0.4535790000000 1.0
C      1  0.5461740000000  0.5223410000000  0.5391120000000 1.0
C      1  0.4420650000000  0.4560200000000  0.4798560000000 1.0
C      1  0.5214580000000  0.4580030000000  0.4435560000000 1.0
C      1  0.5579350000000  0.4560190000000  0.5201440000000 1.0
C      1  0.4785410000000  0.4580040000000  0.5564440000000 1.0
C      1  0.4435560000000  0.5458410000000  0.4785410000000 1.0
C      1  0.5201440000000  0.5478250000000  0.4420650000000 1.0
C      1  0.5564440000000  0.5458410000000  0.5214580000000 1.0
C      1  0.4798560000000  0.5478260000000  0.5579350000000 1.0
C      1  0.4374320000000  0.5000040000000  0.4551750000000 1.0
C      1  0.5448250000000  0.5038400000000  0.4374320000000 1.0
C      1  0.4551750000000  0.5038410000000  0.5625680000000 1.0
C      1  0.5625680000000  0.5000040000000  0.5448250000000 1.0
END
