TITL C-8691-6797-147 8.73878686326774e-07 125000 -379.815485916399 0 0 60 (C1) n - 1
REM
REM in /home/bkarasulu/CARBON/AIRSS/Generating-Clusters/EDIP-Nigel-Params/Higher-Symm/Box-15A/Only-C60/SD-CG/HFTN-CG
REM
REM
REM
REM
REM
REM ./C.cell (414f73aa93bd7a1190c7fd0f31ff2f98)
REM
REM compiler GCC version 9.2.1 20190827 (Red Hat 9.2.1-1)
REM options -cpp -mtune=generic -march=x86-64 -g -O0 -fpre-include=/usr/include/finclude/math-vector-fortran.h
REM seed 2047082668 -1220001246 -1032546079 -560348616 -1386686714 -740849051 -1019001419 1130732378 1039235848 -59903706 -756230679 1351433754 -1643630948 -1797547108 -2036306116 1215134725 -37635321 -1797274641 1085958851 -195864201 1752162917 -1222057168 1695792677 1895126082 -1556293062 -1817897612 315156292 1132105306 1122287530 -1896685578 -735526086 488193657 -1095686522
REM
CELL 1.54180   50.00000   50.00000   50.00000   90.00000   90.00000   90.00000
LATT -1
SFAC C  
C      1  0.5138340000000  0.4488890000000  0.4767450000000 1.0
C      1  0.5132200000000  0.5457130000000  0.4667000000000 1.0
C      1  0.5130150000000  0.5057520000000  0.5560140000000 1.0
C      1  0.5332740000000  0.4625960000000  0.5475620000000 1.0
C      1  0.5335580000000  0.4779320000000  0.4432410000000 1.0
C      1  0.5332300000000  0.5582300000000  0.5087730000000 1.0
C      1  0.5047530000000  0.4539060000000  0.5561870000000 1.0
C      1  0.5046710000000  0.4743560000000  0.4317960000000 1.0
C      1  0.5051230000000  0.5709320000000  0.5117300000000 1.0
C      1  0.5030710000000  0.5264090000000  0.5133630000000 1.0
C      1  0.5033670000000  0.4752970000000  0.5155770000000 1.0
C      1  0.5028180000000  0.4992090000000  0.4705350000000 1.0
C      1  0.5493300000000  0.5199620000000  0.4781000000000 1.0
C      1  0.5507520000000  0.5074710000000  0.5309550000000 1.0
C      1  0.5486220000000  0.4734010000000  0.4921360000000 1.0
C      1  0.4973340000000  0.5701810000000  0.4600750000000 1.0
C      1  0.4967720000000  0.4995680000000  0.5802780000000 1.0
C      1  0.4977920000000  0.4306510000000  0.4592580000000 1.0
C      1  0.5205900000000  0.4340670000000  0.5032670000000 1.0
C      1  0.5193400000000  0.5301810000000  0.4403030000000 1.0
C      1  0.5195200000000  0.5355510000000  0.5564960000000 1.0
C      1  0.5393350000000  0.5479880000000  0.4815440000000 1.0
C      1  0.5388740000000  0.4911310000000  0.5527110000000 1.0
C      1  0.5397330000000  0.4604120000000  0.4664120000000 1.0
C      1  0.4594670000000  0.4748170000000  0.5634710000000 1.0
C      1  0.4597450000000  0.4570530000000  0.4464410000000 1.0
C      1  0.4598280000000  0.5679250000000  0.4899560000000 1.0
C      1  0.4880720000000  0.5502260000000  0.5263050000000 1.0
C      1  0.4880780000000  0.4522470000000  0.5302850000000 1.0
C      1  0.4873910000000  0.4976220000000  0.4431290000000 1.0
C      1  0.5763370000000  0.5116670000000  0.4832390000000 1.0
C      1  0.5764370000000  0.5002530000000  0.5203810000000 1.0
C      1  0.5753910000000  0.4852270000000  0.4954190000000 1.0
C      1  0.5330740000000  0.4604000000000  0.5161120000000 1.0
C      1  0.5316140000000  0.5058480000000  0.4568870000000 1.0
C      1  0.5369310000000  0.5353580000000  0.5306620000000 1.0
C      1  0.4597390000000  0.5529820000000  0.5165000000000 1.0
C      1  0.4596910000000  0.4592520000000  0.5372960000000 1.0
C      1  0.4592500000000  0.4875480000000  0.4459020000000 1.0
C      1  0.4532720000000  0.5256030000000  0.5103150000000 1.0
C      1  0.4538120000000  0.4783650000000  0.5167510000000 1.0
C      1  0.4534140000000  0.4960670000000  0.4727160000000 1.0
C      1  0.4947810000000  0.5246000000000  0.4838790000000 1.0
C      1  0.4955890000000  0.5021380000000  0.5289970000000 1.0
C      1  0.4954290000000  0.4739970000000  0.4868340000000 1.0
C      1  0.4910540000000  0.5451970000000  0.5570310000000 1.0
C      1  0.4918510000000  0.4282050000000  0.5101800000000 1.0
C      1  0.4904930000000  0.5273340000000  0.4322830000000 1.0
C      1  0.4640480000000  0.4731180000000  0.4888470000000 1.0
C      1  0.4634820000000  0.5230760000000  0.4822340000000 1.0
C      1  0.4639700000000  0.5039370000000  0.5285930000000 1.0
C      1  0.4553200000000  0.5049490000000  0.5573770000000 1.0
C      1  0.4558470000000  0.4473210000000  0.4755990000000 1.0
C      1  0.4552970000000  0.5477120000000  0.4668590000000 1.0
C      1  0.4876100000000  0.4485430000000  0.4373880000000 1.0
C      1  0.4877490000000  0.5797920000000  0.4868690000000 1.0
C      1  0.4871600000000  0.4714820000000  0.5756800000000 1.0
C      1  0.4753710000000  0.5533240000000  0.4446950000000 1.0
C      1  0.4751870000000  0.5214160000000  0.5733910000000 1.0
C      1  0.4762880000000  0.4256130000000  0.4817400000000 1.0
END
