TITL C-8692-4986-191 3.80009153764374e-08 125000 -370.090675804386 0 0 60 (C1) n - 1
REM
REM in /home/bkarasulu/CARBON/AIRSS/Generating-Clusters/EDIP-Nigel-Params/Higher-Symm/Box-15A/Only-C60/SD-CG/HFTN-CG
REM
REM
REM
REM
REM
REM ./C.cell (414f73aa93bd7a1190c7fd0f31ff2f98)
REM
REM compiler GCC version 9.2.1 20190827 (Red Hat 9.2.1-1)
REM options -cpp -mtune=generic -march=x86-64 -g -O0 -fpre-include=/usr/include/finclude/math-vector-fortran.h
REM seed 106270541 -438958213 -506339490 -512961203 -345201563 -962294059 -114239104 -1075347861 -25508147 1926778821 1606284356 1242555197 736203326 768793834 -1366145860 -1235870899 -1251942683 -1427648411 1837334265 629238430 1761119465 1392232123 -1201572548 -48372943 1633303544 714218535 -1386266013 164667169 -143591453 1264103830 976579948 1421319858 -303394177
REM
CELL 1.54180   50.00000   50.00000   50.00000   90.00000   90.00000   90.00000
LATT -1
SFAC C  
C      1  0.5194090000000  0.5260650000000  0.5454040000000 1.0
C      1  0.5187390000000  0.4729920000000  0.5450740000000 1.0
C      1  0.4670760000000  0.5571200000000  0.5478840000000 1.0
C      1  0.4656730000000  0.4429460000000  0.5473640000000 1.0
C      1  0.5187750000000  0.5270080000000  0.4675850000000 1.0
C      1  0.5203310000000  0.4721660000000  0.4664750000000 1.0
C      1  0.4826390000000  0.5150130000000  0.4279580000000 1.0
C      1  0.4824350000000  0.4853910000000  0.4277950000000 1.0
C      1  0.4909530000000  0.5564850000000  0.5052660000000 1.0
C      1  0.4901380000000  0.4431380000000  0.5045950000000 1.0
C      1  0.4867570000000  0.5258970000000  0.5053740000000 1.0
C      1  0.4867330000000  0.4738740000000  0.5047730000000 1.0
C      1  0.4594070000000  0.5570590000000  0.4844290000000 1.0
C      1  0.4584670000000  0.4433510000000  0.4839320000000 1.0
C      1  0.5615460000000  0.5423050000000  0.4815800000000 1.0
C      1  0.5675180000000  0.4695360000000  0.4805850000000 1.0
C      1  0.5049720000000  0.5143330000000  0.5697040000000 1.0
C      1  0.5047630000000  0.4849350000000  0.5695450000000 1.0
C      1  0.4724320000000  0.5251260000000  0.4544390000000 1.0
C      1  0.4725430000000  0.4753310000000  0.4543220000000 1.0
C      1  0.5080350000000  0.5137570000000  0.5210890000000 1.0
C      1  0.5079300000000  0.4856300000000  0.5208840000000 1.0
C      1  0.4616420000000  0.4843500000000  0.5235500000000 1.0
C      1  0.4617920000000  0.5158740000000  0.5237400000000 1.0
C      1  0.4712520000000  0.4458290000000  0.4574970000000 1.0
C      1  0.4717930000000  0.5546820000000  0.4577550000000 1.0
C      1  0.4612030000000  0.5302360000000  0.5506440000000 1.0
C      1  0.4607090000000  0.4699440000000  0.5503770000000 1.0
C      1  0.4931090000000  0.4846890000000  0.4753830000000 1.0
C      1  0.4924020000000  0.5153180000000  0.4758820000000 1.0
C      1  0.5468150000000  0.4842590000000  0.5426220000000 1.0
C      1  0.5477050000000  0.5146090000000  0.5443270000000 1.0
C      1  0.4459850000000  0.5153600000000  0.4632070000000 1.0
C      1  0.4462870000000  0.4854700000000  0.4633500000000 1.0
C      1  0.4357890000000  0.5192210000000  0.5098960000000 1.0
C      1  0.4355430000000  0.4813500000000  0.5097610000000 1.0
C      1  0.5168300000000  0.5566180000000  0.5407440000000 1.0
C      1  0.5154870000000  0.4424610000000  0.5403160000000 1.0
C      1  0.5270920000000  0.4373280000000  0.5140770000000 1.0
C      1  0.5285070000000  0.5606840000000  0.5144920000000 1.0
C      1  0.4890100000000  0.5670120000000  0.5337590000000 1.0
C      1  0.4873830000000  0.4326470000000  0.5332290000000 1.0
C      1  0.4776250000000  0.5209070000000  0.5713210000000 1.0
C      1  0.4773540000000  0.4786630000000  0.5711380000000 1.0
C      1  0.5152280000000  0.5443810000000  0.4437340000000 1.0
C      1  0.5146790000000  0.4549750000000  0.4428200000000 1.0
C      1  0.5060480000000  0.4714720000000  0.4211050000000 1.0
C      1  0.5065550000000  0.5285750000000  0.4215390000000 1.0
C      1  0.4391910000000  0.5343600000000  0.4854860000000 1.0
C      1  0.4387770000000  0.4664260000000  0.4852000000000 1.0
C      1  0.5748210000000  0.5120890000000  0.5018080000000 1.0
C      1  0.5800230000000  0.4830280000000  0.5036460000000 1.0
C      1  0.5556550000000  0.5514720000000  0.5091340000000 1.0
C      1  0.5530440000000  0.4476580000000  0.5082080000000 1.0
C      1  0.5461200000000  0.5162090000000  0.4754860000000 1.0
C      1  0.5469590000000  0.4858340000000  0.4675730000000 1.0
C      1  0.4960350000000  0.4348720000000  0.4504390000000 1.0
C      1  0.4968680000000  0.5650440000000  0.4506390000000 1.0
C      1  0.5651820000000  0.4685860000000  0.5248100000000 1.0
C      1  0.5662340000000  0.5280520000000  0.5252530000000 1.0
END
