TITL C-8698-8182-116 -7.49048418881798e-07 125000 -370.693581930705 0 0 60 (C2h) n - 1
REM
REM in /home/bkarasulu/CARBON/AIRSS/Generating-Clusters/EDIP-Nigel-Params/Higher-Symm/Box-15A/Only-C60/SD-CG/HFTN-CG
REM
REM
REM
REM
REM
REM ./C.cell (414f73aa93bd7a1190c7fd0f31ff2f98)
REM
REM compiler GCC version 9.2.1 20190827 (Red Hat 9.2.1-1)
REM options -cpp -mtune=generic -march=x86-64 -g -O0 -fpre-include=/usr/include/finclude/math-vector-fortran.h
REM seed 1669979229 -183552593 1178239266 725322238 2141456669 748836293 -641728507 -1314242747 499834959 553226288 1978251447 1302479725 2096347830 194732189 1374063135 -1943844275 -1118212098 828270589 -558271322 -820678414 -1373929977 651332680 929994839 1842557004 212640373 -1663412672 -1065191 662403024 -1570959403 -934444274 513812711 923790909 530978402
REM
CELL 1.54180   50.00000   50.00000   50.00000   90.00000   90.00000   90.00000
LATT -1
SFAC C  
C      1  0.4552850000000  0.4444070000000  0.5139740000000 1.0
C      1  0.5447070000000  0.4443980000000  0.4860370000000 1.0
C      1  0.4552930000000  0.5556020000000  0.5139630000000 1.0
C      1  0.5447150000000  0.5555930000000  0.4860260000000 1.0
C      1  0.4650510000000  0.5145760000000  0.5362250000000 1.0
C      1  0.5349510000000  0.5145640000000  0.4637720000000 1.0
C      1  0.4650490000000  0.4854360000000  0.5362280000000 1.0
C      1  0.5349490000000  0.4854240000000  0.4637750000000 1.0
C      1  0.4632410000000  0.4557630000000  0.4481460000000 1.0
C      1  0.5367520000000  0.4557680000000  0.5518620000000 1.0
C      1  0.4632480000000  0.5442320000000  0.4481380000000 1.0
C      1  0.5367590000000  0.5442370000000  0.5518540000000 1.0
C      1  0.4228040000000  0.5258500000000  0.4727300000000 1.0
C      1  0.5771990000000  0.5258450000000  0.5272650000000 1.0
C      1  0.4228010000000  0.4741550000000  0.4727350000000 1.0
C      1  0.5771960000000  0.4741500000000  0.5272700000000 1.0
C      1  0.5489970000000  0.4742890000000  0.4885930000000 1.0
C      1  0.4510000000000  0.4742980000000  0.5114120000000 1.0
C      1  0.5490000000000  0.5257020000000  0.4885880000000 1.0
C      1  0.4510030000000  0.5257110000000  0.5114070000000 1.0
C      1  0.4497240000000  0.4778380000000  0.4634330000000 1.0
C      1  0.5502720000000  0.4778380000000  0.5365710000000 1.0
C      1  0.4497280000000  0.5221620000000  0.4634290000000 1.0
C      1  0.5502760000000  0.5221620000000  0.5365670000000 1.0
C      1  0.4909990000000  0.5132770000000  0.4226290000000 1.0
C      1  0.5090030000000  0.5132910000000  0.5773690000000 1.0
C      1  0.4909970000000  0.4867090000000  0.4226310000000 1.0
C      1  0.5090010000000  0.4867230000000  0.5773710000000 1.0
C      1  0.5090260000000  0.4645970000000  0.5606020000000 1.0
C      1  0.4909690000000  0.4645860000000  0.4394050000000 1.0
C      1  0.5090310000000  0.5354140000000  0.5605950000000 1.0
C      1  0.4909740000000  0.5354030000000  0.4393980000000 1.0
C      1  0.4670890000000  0.5154450000000  0.4869890000000 1.0
C      1  0.5329130000000  0.5154430000000  0.5130080000000 1.0
C      1  0.4670870000000  0.4845570000000  0.4869920000000 1.0
C      1  0.5329110000000  0.4845550000000  0.5130110000000 1.0
C      1  0.5104210000000  0.4658830000000  0.4631730000000 1.0
C      1  0.4895740000000  0.4658920000000  0.5368330000000 1.0
C      1  0.5104260000000  0.5341080000000  0.4631670000000 1.0
C      1  0.4895790000000  0.5341170000000  0.5368270000000 1.0
C      1  0.5234420000000  0.5599400000000  0.4678840000000 1.0
C      1  0.4765660000000  0.5599490000000  0.5321040000000 1.0
C      1  0.5234340000000  0.4400510000000  0.4678960000000 1.0
C      1  0.4765580000000  0.4400600000000  0.5321160000000 1.0
C      1  0.4626190000000  0.5670620000000  0.4647290000000 1.0
C      1  0.5373900000000  0.5670640000000  0.5352580000000 1.0
C      1  0.4626100000000  0.4329360000000  0.4647420000000 1.0
C      1  0.5373810000000  0.4329380000000  0.5352710000000 1.0
C      1  0.4241320000000  0.5151300000000  0.4993740000000 1.0
C      1  0.5758700000000  0.5151200000000  0.5006230000000 1.0
C      1  0.4241300000000  0.4848800000000  0.4993770000000 1.0
C      1  0.5758680000000  0.4848700000000  0.5006260000000 1.0
C      1  0.5440840000000  0.4296290000000  0.5094700000000 1.0
C      1  0.4559060000000  0.4296330000000  0.4905440000000 1.0
C      1  0.5440940000000  0.5703670000000  0.5094560000000 1.0
C      1  0.4559160000000  0.5703710000000  0.4905300000000 1.0
C      1  0.5061350000000  0.5278770000000  0.5128310000000 1.0
C      1  0.4938680000000  0.5278760000000  0.4871640000000 1.0
C      1  0.5061320000000  0.4721240000000  0.5128360000000 1.0
C      1  0.4938650000000  0.4721230000000  0.4871690000000 1.0
END
