TITL C-8697-8172-240 -4.34858780458038e-07 125000 -371.12147554599 0 0 60 (C1) n - 1
REM
REM in /home/bkarasulu/CARBON/AIRSS/Generating-Clusters/EDIP-Nigel-Params/Higher-Symm/Box-15A/Only-C60/SD-CG/HFTN-CG
REM
REM
REM
REM
REM
REM ./C.cell (414f73aa93bd7a1190c7fd0f31ff2f98)
REM
REM compiler GCC version 9.2.1 20190827 (Red Hat 9.2.1-1)
REM options -cpp -mtune=generic -march=x86-64 -g -O0 -fpre-include=/usr/include/finclude/math-vector-fortran.h
REM seed 1618215818 874936443 1056455136 -580914883 113496642 1714850767 52050076 -947347917 -755506777 -940454878 -1409171141 897436196 1035569615 706266055 -426986413 -1836766395 2140471286 -72727915 1635959844 -450952781 1966482779 1720390547 1922564286 2099957463 -319357409 -1931398405 -1381694118 -124020781 2010946050 -349784845 22694522 -959427502 1237917111
REM
CELL 1.54180   50.00000   50.00000   50.00000   90.00000   90.00000   90.00000
LATT -1
SFAC C  
C      1  0.5407060000000  0.4448540000000  0.4875130000000 1.0
C      1  0.4713070000000  0.4444040000000  0.4709340000000 1.0
C      1  0.4916800000000  0.4423500000000  0.5393870000000 1.0
C      1  0.4483750000000  0.5316940000000  0.5624330000000 1.0
C      1  0.5652820000000  0.5403690000000  0.5138950000000 1.0
C      1  0.4798270000000  0.5382730000000  0.4336440000000 1.0
C      1  0.4931660000000  0.5006880000000  0.5165220000000 1.0
C      1  0.5204060000000  0.5019730000000  0.4990990000000 1.0
C      1  0.4932970000000  0.5000540000000  0.4852050000000 1.0
C      1  0.5466500000000  0.4678820000000  0.5611020000000 1.0
C      1  0.5309740000000  0.4659640000000  0.4275040000000 1.0
C      1  0.4243980000000  0.4653060000000  0.5084230000000 1.0
C      1  0.4309830000000  0.4897920000000  0.4957300000000 1.0
C      1  0.5296660000000  0.4903010000000  0.5637260000000 1.0
C      1  0.5414520000000  0.4894360000000  0.4393450000000 1.0
C      1  0.4271230000000  0.5099060000000  0.5400430000000 1.0
C      1  0.5647570000000  0.5160700000000  0.5419600000000 1.0
C      1  0.5037510000000  0.5137040000000  0.4172520000000 1.0
C      1  0.4695460000000  0.4346830000000  0.4970370000000 1.0
C      1  0.5159170000000  0.4350000000000  0.5276100000000 1.0
C      1  0.5189550000000  0.4355600000000  0.4725370000000 1.0
C      1  0.5378590000000  0.4479520000000  0.5161360000000 1.0
C      1  0.4974660000000  0.4474800000000  0.4591590000000 1.0
C      1  0.4682460000000  0.4456190000000  0.5226720000000 1.0
C      1  0.4465600000000  0.5381290000000  0.5010260000000 1.0
C      1  0.5187430000000  0.5391010000000  0.5460690000000 1.0
C      1  0.5335420000000  0.5385790000000  0.4489820000000 1.0
C      1  0.4702460000000  0.5097300000000  0.4375550000000 1.0
C      1  0.4586390000000  0.5030170000000  0.5625660000000 1.0
C      1  0.5716870000000  0.5113950000000  0.5036840000000 1.0
C      1  0.5033480000000  0.5632020000000  0.4699780000000 1.0
C      1  0.4765600000000  0.5593290000000  0.5312060000000 1.0
C      1  0.5169890000000  0.5577940000000  0.4969060000000 1.0
C      1  0.4344690000000  0.5138200000000  0.5118450000000 1.0
C      1  0.5364030000000  0.5148850000000  0.5487970000000 1.0
C      1  0.5282150000000  0.5148330000000  0.4333450000000 1.0
C      1  0.5503620000000  0.5339430000000  0.4715450000000 1.0
C      1  0.4611700000000  0.5335680000000  0.4766700000000 1.0
C      1  0.4957160000000  0.5301510000000  0.5614260000000 1.0
C      1  0.5523740000000  0.4675140000000  0.5332840000000 1.0
C      1  0.5041550000000  0.4658580000000  0.4369990000000 1.0
C      1  0.4448820000000  0.4630530000000  0.5280670000000 1.0
C      1  0.4867780000000  0.5035070000000  0.5500320000000 1.0
C      1  0.5486500000000  0.5067880000000  0.4844050000000 1.0
C      1  0.4677150000000  0.5061310000000  0.4677060000000 1.0
C      1  0.4507760000000  0.4610510000000  0.4624640000000 1.0
C      1  0.4937490000000  0.4569730000000  0.5628090000000 1.0
C      1  0.5591910000000  0.4604960000000  0.4741020000000 1.0
C      1  0.4881390000000  0.4876060000000  0.4241580000000 1.0
C      1  0.4392550000000  0.4825520000000  0.5497370000000 1.0
C      1  0.5715540000000  0.4895790000000  0.5267090000000 1.0
C      1  0.5043690000000  0.5528240000000  0.5233240000000 1.0
C      1  0.5213220000000  0.5641940000000  0.4477140000000 1.0
C      1  0.4531320000000  0.5611150000000  0.5155320000000 1.0
C      1  0.5469450000000  0.5530260000000  0.4938010000000 1.0
C      1  0.4769240000000  0.5522850000000  0.4598810000000 1.0
C      1  0.4723370000000  0.5480630000000  0.5579380000000 1.0
C      1  0.4459080000000  0.4868740000000  0.4716390000000 1.0
C      1  0.5018720000000  0.4834930000000  0.5648530000000 1.0
C      1  0.5555370000000  0.4862260000000  0.4643770000000 1.0
END
