TITL C-8695-8180-176 -5.49475398263721e-06 125000 -366.25240721376 0 0 60 (T23) n - 1
REM
REM in /home/bkarasulu/CARBON/AIRSS/Generating-Clusters/EDIP-Nigel-Params/Higher-Symm/Box-15A/Only-C60/SD-CG/HFTN-CG
REM
REM
REM
REM
REM
REM ./C.cell (414f73aa93bd7a1190c7fd0f31ff2f98)
REM
REM compiler GCC version 9.2.1 20190827 (Red Hat 9.2.1-1)
REM options -cpp -mtune=generic -march=x86-64 -g -O0 -fpre-include=/usr/include/finclude/math-vector-fortran.h
REM seed -1334056404 403759223 457406899 483312768 1794240423 -822450734 -1893818310 781232983 -655619363 -1369087887 1176647547 1301703938 -1598670734 -1503067084 349958451 1230641044 1397901897 -816382947 -1209989419 -795222211 1180156291 1280521531 -188608610 747313469 832286154 2019259595 515817140 -1950154394 1384871468 -147499145 -799022309 567406629 1778944879
REM
CELL 1.54180   50.00000   50.00000   50.00000   90.00000   90.00000   90.00000
LATT -1
SFAC C  
C      1  0.5735350000000  0.4638900000000  0.4929470000000 1.0
C      1  0.4929540000000  0.5735400000000  0.4638990000000 1.0
C      1  0.4638940000000  0.4929470000000  0.5735370000000 1.0
C      1  0.4264630000000  0.4638930000000  0.5070460000000 1.0
C      1  0.5735380000000  0.5361060000000  0.5070470000000 1.0
C      1  0.4264640000000  0.5361110000000  0.4929590000000 1.0
C      1  0.5070500000000  0.5735330000000  0.5361150000000 1.0
C      1  0.4929530000000  0.4264600000000  0.5361020000000 1.0
C      1  0.5070430000000  0.4264670000000  0.4638840000000 1.0
C      1  0.5361060000000  0.4929590000000  0.4264610000000 1.0
C      1  0.4638890000000  0.5070550000000  0.4264650000000 1.0
C      1  0.5361110000000  0.5070390000000  0.5735360000000 1.0
C      1  0.4948180000000  0.4698290000000  0.5754030000000 1.0
C      1  0.4698380000000  0.5754070000000  0.4948240000000 1.0
C      1  0.5754050000000  0.4948170000000  0.4698330000000 1.0
C      1  0.5051800000000  0.4698430000000  0.4245910000000 1.0
C      1  0.5051870000000  0.5301570000000  0.5754090000000 1.0
C      1  0.4948150000000  0.5301710000000  0.4245970000000 1.0
C      1  0.5301660000000  0.5754050000000  0.5051900000000 1.0
C      1  0.5301620000000  0.4245940000000  0.4948080000000 1.0
C      1  0.4698340000000  0.4245940000000  0.5051780000000 1.0
C      1  0.4245950000000  0.4948160000000  0.5301660000000 1.0
C      1  0.4245930000000  0.5051890000000  0.4698390000000 1.0
C      1  0.5754070000000  0.5051790000000  0.5301620000000 1.0
C      1  0.4476310000000  0.4658770000000  0.4880600000000 1.0
C      1  0.4880580000000  0.4476360000000  0.4658700000000 1.0
C      1  0.4658730000000  0.4880670000000  0.4476330000000 1.0
C      1  0.5523670000000  0.4658720000000  0.5119340000000 1.0
C      1  0.4476340000000  0.5341250000000  0.5119440000000 1.0
C      1  0.5523680000000  0.5341250000000  0.4880630000000 1.0
C      1  0.5119390000000  0.4476290000000  0.5341200000000 1.0
C      1  0.4880640000000  0.5523640000000  0.5341300000000 1.0
C      1  0.5119390000000  0.5523700000000  0.4658790000000 1.0
C      1  0.5341270000000  0.4880550000000  0.5523650000000 1.0
C      1  0.4658770000000  0.5119350000000  0.5523700000000 1.0
C      1  0.5341240000000  0.5119430000000  0.4476330000000 1.0
C      1  0.4859420000000  0.4677360000000  0.4454880000000 1.0
C      1  0.4677290000000  0.4454920000000  0.4859400000000 1.0
C      1  0.4454890000000  0.4859490000000  0.4677310000000 1.0
C      1  0.5140570000000  0.4677250000000  0.5545060000000 1.0
C      1  0.5140550000000  0.5322740000000  0.4454930000000 1.0
C      1  0.4859470000000  0.5322650000000  0.5545130000000 1.0
C      1  0.5322680000000  0.4454880000000  0.5140490000000 1.0
C      1  0.5322700000000  0.5545100000000  0.4859480000000 1.0
C      1  0.4677330000000  0.5545090000000  0.5140620000000 1.0
C      1  0.5545110000000  0.4859400000000  0.5322660000000 1.0
C      1  0.5545090000000  0.5140570000000  0.4677300000000 1.0
C      1  0.4454920000000  0.5140540000000  0.5322730000000 1.0
C      1  0.4675690000000  0.4654360000000  0.5732860000000 1.0
C      1  0.5345620000000  0.5732840000000  0.5324380000000 1.0
C      1  0.5324360000000  0.5345510000000  0.5732910000000 1.0
C      1  0.5732910000000  0.5324270000000  0.5345590000000 1.0
C      1  0.4654430000000  0.5732920000000  0.4675750000000 1.0
C      1  0.5345550000000  0.4267140000000  0.4675590000000 1.0
C      1  0.4654410000000  0.4267090000000  0.5324270000000 1.0
C      1  0.4675660000000  0.5345660000000  0.4267160000000 1.0
C      1  0.5324290000000  0.4654480000000  0.4267070000000 1.0
C      1  0.4267110000000  0.5324380000000  0.4654470000000 1.0
C      1  0.5732860000000  0.4675680000000  0.4654360000000 1.0
C      1  0.4267120000000  0.4675660000000  0.5345580000000 1.0
END
