TITL C-8701-7969-174 2.41055398975646e-05 125000 -372.655501588831 0 0 60 (C2) n - 1
REM
REM in /home/bkarasulu/CARBON/AIRSS/Generating-Clusters/EDIP-Nigel-Params/Higher-Symm/Box-15A/Only-C60/SD-CG/HFTN-CG
REM
REM
REM
REM
REM
REM ./C.cell (414f73aa93bd7a1190c7fd0f31ff2f98)
REM
REM compiler GCC version 9.2.1 20190827 (Red Hat 9.2.1-1)
REM options -cpp -mtune=generic -march=x86-64 -g -O0 -fpre-include=/usr/include/finclude/math-vector-fortran.h
REM seed -1515554759 -78150861 2078502919 -1506445885 413632944 1088492507 -1477565709 -1653096818 346168312 -870958547 -1848724746 42912476 -2095158708 1932299104 -785882791 861536104 1798712081 79990360 -777155381 1291470719 -1745707888 281814541 -259775253 -1213728051 -2124998301 1499121814 791286573 -2139780419 12613058 14961895 -2058131406 -146669727 -274039997
REM
CELL 1.54180   50.00000   50.00000   50.00000   90.00000   90.00000   90.00000
LATT -1
SFAC C  
C      1  0.5194180000000  0.4742280000000  0.5046070000000 1.0
C      1  0.5182100000000  0.4977700000000  0.5238390000000 1.0
C      1  0.5183590000000  0.5227730000000  0.5072760000000 1.0
C      1  0.5188750000000  0.5145770000000  0.4781890000000 1.0
C      1  0.5221810000000  0.4852720000000  0.4774660000000 1.0
C      1  0.4820910000000  0.4765830000000  0.4940180000000 1.0
C      1  0.4813650000000  0.5007860000000  0.4763210000000 1.0
C      1  0.4806580000000  0.5252120000000  0.4941050000000 1.0
C      1  0.4778080000000  0.5156740000000  0.5218750000000 1.0
C      1  0.4810430000000  0.4864350000000  0.5227830000000 1.0
C      1  0.5458970000000  0.4756320000000  0.4632800000000 1.0
C      1  0.5443050000000  0.4580220000000  0.5114230000000 1.0
C      1  0.5416720000000  0.4985320000000  0.5429990000000 1.0
C      1  0.5411320000000  0.5411640000000  0.5140800000000 1.0
C      1  0.5431120000000  0.5270510000000  0.4647040000000 1.0
C      1  0.4564910000000  0.4740290000000  0.5358900000000 1.0
C      1  0.4588310000000  0.4585090000000  0.4869140000000 1.0
C      1  0.4583800000000  0.5004230000000  0.4569620000000 1.0
C      1  0.4560810000000  0.5418020000000  0.4873530000000 1.0
C      1  0.4540920000000  0.5252600000000  0.5360990000000 1.0
C      1  0.4539800000000  0.5543830000000  0.5334610000000 1.0
C      1  0.4577290000000  0.5482450000000  0.4590290000000 1.0
C      1  0.4601700000000  0.4755230000000  0.4420560000000 1.0
C      1  0.4586980000000  0.4364020000000  0.5057120000000 1.0
C      1  0.4547530000000  0.4848640000000  0.5628370000000 1.0
C      1  0.5410510000000  0.5558220000000  0.4685090000000 1.0
C      1  0.5395720000000  0.5464790000000  0.5426240000000 1.0
C      1  0.5423600000000  0.4732380000000  0.5572060000000 1.0
C      1  0.5461680000000  0.4365360000000  0.4918920000000 1.0
C      1  0.5455210000000  0.4882080000000  0.4368830000000 1.0
C      1  0.5678120000000  0.5163140000000  0.4796070000000 1.0
C      1  0.5695670000000  0.4863160000000  0.4794800000000 1.0
C      1  0.5682510000000  0.4769100000000  0.5078990000000 1.0
C      1  0.5665310000000  0.5009060000000  0.5254400000000 1.0
C      1  0.5663870000000  0.5251880000000  0.5080750000000 1.0
C      1  0.4304370000000  0.5134000000000  0.5207170000000 1.0
C      1  0.4322130000000  0.4835070000000  0.5196630000000 1.0
C      1  0.4337470000000  0.4754070000000  0.4910540000000 1.0
C      1  0.4333170000000  0.5001160000000  0.4743060000000 1.0
C      1  0.4317180000000  0.5237130000000  0.4925230000000 1.0
C      1  0.4627930000000  0.4446900000000  0.5322620000000 1.0
C      1  0.4592820000000  0.5127420000000  0.5632950000000 1.0
C      1  0.4598190000000  0.5639100000000  0.5074860000000 1.0
C      1  0.4633300000000  0.5262700000000  0.4423570000000 1.0
C      1  0.4650450000000  0.4527990000000  0.4579290000000 1.0
C      1  0.5412050000000  0.4457040000000  0.4656390000000 1.0
C      1  0.5392470000000  0.5157800000000  0.4370260000000 1.0
C      1  0.5356150000000  0.5637470000000  0.4949640000000 1.0
C      1  0.5352310000000  0.5236350000000  0.5584800000000 1.0
C      1  0.5384270000000  0.4511490000000  0.5402660000000 1.0
C      1  0.5140960000000  0.4383240000000  0.5439000000000 1.0
C      1  0.5108170000000  0.5228650000000  0.5717430000000 1.0
C      1  0.5109460000000  0.5758350000000  0.4993030000000 1.0
C      1  0.5142260000000  0.5224640000000  0.4268500000000 1.0
C      1  0.5163140000000  0.4382000000000  0.4555100000000 1.0
C      1  0.4896130000000  0.4404790000000  0.4537810000000 1.0
C      1  0.4878520000000  0.5267820000000  0.4292440000000 1.0
C      1  0.4846180000000  0.5761670000000  0.5044740000000 1.0
C      1  0.4841760000000  0.5200310000000  0.5735730000000 1.0
C      1  0.4873630000000  0.4372170000000  0.5427610000000 1.0
END
