TITL C-8703-8361-125 -0.0012727806724038 125000 -357.679135131554 0 0 60 (C2) n - 1
REM
REM in /home/bkarasulu/CARBON/AIRSS/Generating-Clusters/EDIP-Nigel-Params/Higher-Symm/Box-15A/Only-C60/SD-CG/HFTN-CG
REM
REM
REM
REM
REM
REM ./C.cell (414f73aa93bd7a1190c7fd0f31ff2f98)
REM
REM compiler GCC version 9.2.1 20190827 (Red Hat 9.2.1-1)
REM options -cpp -mtune=generic -march=x86-64 -g -O0 -fpre-include=/usr/include/finclude/math-vector-fortran.h
REM seed -1295690579 -1760032674 1860331036 124417537 -1856571946 -1996223062 1689039562 1498309723 -1946404991 225322290 1924484662 -1918181401 -77953241 319033882 -680064215 1297384620 27146944 1722165779 -1503709788 -2146856218 -1258386076 -424848160 -13168984 348211934 1699581941 -803399675 -577110793 -1124308415 -1817724246 147439281 1406587971 1399623959 1351974091
REM
CELL 1.54180   50.00000   50.00000   50.00000   90.00000   90.00000   90.00000
LATT -1
SFAC C  
C      1  0.4610730000000  0.5190450000000  0.5428220000000 1.0
C      1  0.4570320000000  0.5190210000000  0.4609620000000 1.0
C      1  0.5389270000000  0.5190450000000  0.4571780000000 1.0
C      1  0.5429680000000  0.5190210000000  0.5390380000000 1.0
C      1  0.5362770000000  0.5560570000000  0.5143080000000 1.0
C      1  0.4855870000000  0.5560300000000  0.5363910000000 1.0
C      1  0.4637240000000  0.5560570000000  0.4856910000000 1.0
C      1  0.5144130000000  0.5560300000000  0.4636090000000 1.0
C      1  0.4975320000000  0.4957020000000  0.5696790000000 1.0
C      1  0.4302820000000  0.4956920000000  0.4975670000000 1.0
C      1  0.5024680000000  0.4957020000000  0.4303210000000 1.0
C      1  0.5697180000000  0.4956920000000  0.5024330000000 1.0
C      1  0.4610630000000  0.4420360000000  0.4850830000000 1.0
C      1  0.5148060000000  0.4421730000000  0.4614000000000 1.0
C      1  0.5389370000000  0.4420360000000  0.5149170000000 1.0
C      1  0.4851940000000  0.4421730000000  0.5386000000000 1.0
C      1  0.5624570000000  0.4876630000000  0.5297550000000 1.0
C      1  0.4702490000000  0.4876670000000  0.5623160000000 1.0
C      1  0.4375430000000  0.4876630000000  0.4702450000000 1.0
C      1  0.5297500000000  0.4876670000000  0.4376840000000 1.0
C      1  0.5540710000000  0.4605300000000  0.4704230000000 1.0
C      1  0.5295840000000  0.4606050000000  0.5540020000000 1.0
C      1  0.4459290000000  0.4605300000000  0.5295780000000 1.0
C      1  0.4704160000000  0.4606050000000  0.4459980000000 1.0
C      1  0.4481250000000  0.4603910000000  0.4654140000000 1.0
C      1  0.5344680000000  0.4604160000000  0.4483400000000 1.0
C      1  0.5518750000000  0.4603910000000  0.5345870000000 1.0
C      1  0.4655320000000  0.4604160000000  0.5516600000000 1.0
C      1  0.5148650000000  0.5532310000000  0.5348700000000 1.0
C      1  0.4649310000000  0.5534790000000  0.5150320000000 1.0
C      1  0.4851350000000  0.5532310000000  0.4651300000000 1.0
C      1  0.5350690000000  0.5534790000000  0.4849680000000 1.0
C      1  0.4848850000000  0.5142820000000  0.5211760000000 1.0
C      1  0.4784320000000  0.5141460000000  0.4850530000000 1.0
C      1  0.5151150000000  0.5142820000000  0.4788240000000 1.0
C      1  0.5215680000000  0.5141460000000  0.5149470000000 1.0
C      1  0.4840770000000  0.4863470000000  0.4512270000000 1.0
C      1  0.5488230000000  0.4862560000000  0.4840390000000 1.0
C      1  0.5159230000000  0.4863480000000  0.5487730000000 1.0
C      1  0.4511770000000  0.4862560000000  0.5159620000000 1.0
C      1  0.4940410000000  0.4830760000000  0.5267150000000 1.0
C      1  0.4731250000000  0.4828700000000  0.4940050000000 1.0
C      1  0.5059590000000  0.4830760000000  0.4732850000000 1.0
C      1  0.5268750000000  0.4828700000000  0.5059950000000 1.0
C      1  0.4571700000000  0.4388150000000  0.5133370000000 1.0
C      1  0.4866040000000  0.4388740000000  0.4572800000000 1.0
C      1  0.5428300000000  0.4388150000000  0.4866630000000 1.0
C      1  0.5133950000000  0.4388740000000  0.5427200000000 1.0
C      1  0.5236790000000  0.5394750000000  0.4404840000000 1.0
C      1  0.5593060000000  0.5394490000000  0.5235820000000 1.0
C      1  0.4763210000000  0.5394750000000  0.5595160000000 1.0
C      1  0.4406940000000  0.5394490000000  0.4764170000000 1.0
C      1  0.4418310000000  0.5373380000000  0.5250200000000 1.0
C      1  0.4750700000000  0.5372960000000  0.4419990000000 1.0
C      1  0.5581690000000  0.5373380000000  0.4749800000000 1.0
C      1  0.5249300000000  0.5372960000000  0.5580010000000 1.0
C      1  0.4996490000000  0.5260130000000  0.4275710000000 1.0
C      1  0.5723860000000  0.5260240000000  0.4996460000000 1.0
C      1  0.5003510000000  0.5260140000000  0.5724290000000 1.0
C      1  0.4276140000000  0.5260240000000  0.5003540000000 1.0
END
