TITL C-8705-8172-44 -4.96095252604747e-07 125000 -369.079171216663 0 0 60 (C1) n - 1
REM
REM in /home/bkarasulu/CARBON/AIRSS/Generating-Clusters/EDIP-Nigel-Params/Higher-Symm/Box-15A/Only-C60/SD-CG/HFTN-CG
REM
REM
REM
REM
REM
REM ./C.cell (414f73aa93bd7a1190c7fd0f31ff2f98)
REM
REM compiler GCC version 9.2.1 20190827 (Red Hat 9.2.1-1)
REM options -cpp -mtune=generic -march=x86-64 -g -O0 -fpre-include=/usr/include/finclude/math-vector-fortran.h
REM seed -1376283142 -1290238624 -1045018732 -1861347000 600561559 -428971239 -825012617 -951993170 -116080032 -1046289462 -429809624 -1971832414 959162904 2016873554 -1427920679 -696504515 1869470339 -1912053277 2006080131 1259310104 -204741738 -1266782045 -2016240068 -481839208 1931275814 -1071776546 257111300 1311811036 -1363907440 65314438 -1402510026 1085069135 -287669087
REM
CELL 1.54180   50.00000   50.00000   50.00000   90.00000   90.00000   90.00000
LATT -1
SFAC C  
C      1  0.5201810000000  0.4708740000000  0.4344720000000 1.0
C      1  0.5682440000000  0.5175950000000  0.5104110000000 1.0
C      1  0.4462260000000  0.4481650000000  0.4739570000000 1.0
C      1  0.4990230000000  0.5005190000000  0.5284220000000 1.0
C      1  0.4807280000000  0.5490250000000  0.5413960000000 1.0
C      1  0.5412660000000  0.4773970000000  0.5454800000000 1.0
C      1  0.4813250000000  0.5158290000000  0.4407750000000 1.0
C      1  0.5331510000000  0.5456890000000  0.4926120000000 1.0
C      1  0.5388380000000  0.5526750000000  0.4640800000000 1.0
C      1  0.4898580000000  0.4428220000000  0.4943900000000 1.0
C      1  0.4766590000000  0.4839810000000  0.4477200000000 1.0
C      1  0.4483290000000  0.4690460000000  0.5159550000000 1.0
C      1  0.5084030000000  0.4506160000000  0.4723900000000 1.0
C      1  0.5099240000000  0.5585620000000  0.4387620000000 1.0
C      1  0.5282040000000  0.4908840000000  0.4549110000000 1.0
C      1  0.4573400000000  0.4967400000000  0.5559360000000 1.0
C      1  0.4771510000000  0.4875000000000  0.4783140000000 1.0
C      1  0.4705260000000  0.4497960000000  0.5561690000000 1.0
C      1  0.4528540000000  0.4690420000000  0.5455370000000 1.0
C      1  0.4949070000000  0.4551160000000  0.5438090000000 1.0
C      1  0.5067990000000  0.5549360000000  0.5297540000000 1.0
C      1  0.5082970000000  0.4939460000000  0.4809620000000 1.0
C      1  0.4553360000000  0.5102520000000  0.4812950000000 1.0
C      1  0.5853240000000  0.5168660000000  0.4894160000000 1.0
C      1  0.4513730000000  0.5443590000000  0.4997400000000 1.0
C      1  0.4653940000000  0.4602900000000  0.4921160000000 1.0
C      1  0.4605470000000  0.5348790000000  0.5251500000000 1.0
C      1  0.5064680000000  0.4898410000000  0.5755000000000 1.0
C      1  0.5372360000000  0.4416420000000  0.4749690000000 1.0
C      1  0.5064590000000  0.5307860000000  0.4437570000000 1.0
C      1  0.4299150000000  0.4939940000000  0.4787950000000 1.0
C      1  0.5290170000000  0.5100850000000  0.5765620000000 1.0
C      1  0.5397070000000  0.4696190000000  0.5160220000000 1.0
C      1  0.5446410000000  0.5053240000000  0.5525980000000 1.0
C      1  0.5306660000000  0.5163050000000  0.4403680000000 1.0
C      1  0.4208810000000  0.5064210000000  0.5250730000000 1.0
C      1  0.4886060000000  0.5330860000000  0.5649790000000 1.0
C      1  0.5694620000000  0.5101740000000  0.4668840000000 1.0
C      1  0.4256640000000  0.4854740000000  0.5070230000000 1.0
C      1  0.5400940000000  0.5228260000000  0.5114460000000 1.0
C      1  0.5169810000000  0.4666860000000  0.5599740000000 1.0
C      1  0.4599070000000  0.5285960000000  0.4569990000000 1.0
C      1  0.4358470000000  0.4707100000000  0.4605690000000 1.0
C      1  0.5551640000000  0.4848490000000  0.4645980000000 1.0
C      1  0.5545010000000  0.5304410000000  0.4504800000000 1.0
C      1  0.4424250000000  0.5171690000000  0.5398630000000 1.0
C      1  0.4971510000000  0.4606800000000  0.4461290000000 1.0
C      1  0.5207410000000  0.4966450000000  0.5087570000000 1.0
C      1  0.5108140000000  0.5778870000000  0.4590020000000 1.0
C      1  0.5312310000000  0.4393890000000  0.5185280000000 1.0
C      1  0.4503660000000  0.4769380000000  0.4376050000000 1.0
C      1  0.4874180000000  0.5041320000000  0.5558020000000 1.0
C      1  0.5023190000000  0.4384190000000  0.5212870000000 1.0
C      1  0.5175780000000  0.5366560000000  0.5713860000000 1.0
C      1  0.5563020000000  0.4628010000000  0.4823230000000 1.0
C      1  0.5292810000000  0.5403400000000  0.5439700000000 1.0
C      1  0.4644650000000  0.5519660000000  0.4750680000000 1.0
C      1  0.5086300000000  0.5564050000000  0.5011400000000 1.0
C      1  0.5390070000000  0.4230790000000  0.4963550000000 1.0
C      1  0.4948450000000  0.5732370000000  0.4822600000000 1.0
END
