TITL C-8703-8361-45 -3.48477392751161e-05 125000 -356.534685328492 0 0 60 (C1) n - 1
REM
REM in /home/bkarasulu/CARBON/AIRSS/Generating-Clusters/EDIP-Nigel-Params/Higher-Symm/Box-15A/Only-C60/SD-CG/HFTN-CG
REM
REM
REM
REM
REM
REM ./C.cell (414f73aa93bd7a1190c7fd0f31ff2f98)
REM
REM compiler GCC version 9.2.1 20190827 (Red Hat 9.2.1-1)
REM options -cpp -mtune=generic -march=x86-64 -g -O0 -fpre-include=/usr/include/finclude/math-vector-fortran.h
REM seed 145908925 1676453441 -990714738 -48204248 -926038396 -1397985861 1806705554 -1729058142 1399709702 1575086279 -508429705 -395501525 -1955710594 -282576156 -785813491 -386237701 -724494758 2002842160 -2043321632 -1277296277 -124067197 -103610363 -412071601 1080582950 -437320900 -1982157112 -1742404861 -1373102251 -487590452 -783959585 -1426168594 1928472151 -2070287800
REM
CELL 1.54180   50.00000   50.00000   50.00000   90.00000   90.00000   90.00000
LATT -1
SFAC C  
C      1  0.5366830000000  0.5615180000000  0.4794680000000 1.0
C      1  0.4432210000000  0.5380760000000  0.5206170000000 1.0
C      1  0.4613110000000  0.4376880000000  0.4787760000000 1.0
C      1  0.5586670000000  0.4598060000000  0.5195450000000 1.0
C      1  0.4834710000000  0.4850990000000  0.4283940000000 1.0
C      1  0.5039310000000  0.4749340000000  0.5681780000000 1.0
C      1  0.5176580000000  0.5131120000000  0.4273570000000 1.0
C      1  0.4889150000000  0.5216540000000  0.5722700000000 1.0
C      1  0.4343360000000  0.5165900000000  0.5024990000000 1.0
C      1  0.4817790000000  0.4243770000000  0.4959450000000 1.0
C      1  0.5664710000000  0.4824540000000  0.5014430000000 1.0
C      1  0.5180610000000  0.5773070000000  0.4978390000000 1.0
C      1  0.5449660000000  0.5205310000000  0.4937490000000 1.0
C      1  0.4830920000000  0.5522480000000  0.5083040000000 1.0
C      1  0.4580180000000  0.4779620000000  0.4960800000000 1.0
C      1  0.5192750000000  0.4460110000000  0.5052770000000 1.0
C      1  0.4619080000000  0.4748170000000  0.4461050000000 1.0
C      1  0.5198400000000  0.4568900000000  0.5536470000000 1.0
C      1  0.5376300000000  0.5246870000000  0.4450690000000 1.0
C      1  0.4726690000000  0.5430610000000  0.5587790000000 1.0
C      1  0.5112500000000  0.4775220000000  0.4388550000000 1.0
C      1  0.5149820000000  0.5245840000000  0.5590100000000 1.0
C      1  0.4891470000000  0.5149280000000  0.4356730000000 1.0
C      1  0.4832820000000  0.4936440000000  0.5617230000000 1.0
C      1  0.4785230000000  0.4311920000000  0.5255870000000 1.0
C      1  0.5580750000000  0.4797010000000  0.4727150000000 1.0
C      1  0.5239910000000  0.5727210000000  0.5262110000000 1.0
C      1  0.4428390000000  0.5189870000000  0.4736140000000 1.0
C      1  0.5664740000000  0.5485950000000  0.5181250000000 1.0
C      1  0.4527120000000  0.5689550000000  0.4829520000000 1.0
C      1  0.4327300000000  0.4509330000000  0.5185110000000 1.0
C      1  0.5487270000000  0.4292850000000  0.4791440000000 1.0
C      1  0.4865880000000  0.5340910000000  0.4827480000000 1.0
C      1  0.4816090000000  0.4740720000000  0.5163350000000 1.0
C      1  0.5135480000000  0.4695850000000  0.4882730000000 1.0
C      1  0.5232270000000  0.5272900000000  0.5130590000000 1.0
C      1  0.4464530000000  0.5643240000000  0.5103230000000 1.0
C      1  0.4367320000000  0.4459290000000  0.4907750000000 1.0
C      1  0.5562160000000  0.4339180000000  0.5067350000000 1.0
C      1  0.5625580000000  0.5548090000000  0.4901880000000 1.0
C      1  0.4351750000000  0.4889090000000  0.5115730000000 1.0
C      1  0.5111490000000  0.4231710000000  0.4879730000000 1.0
C      1  0.5677760000000  0.5105870000000  0.5103050000000 1.0
C      1  0.4887200000000  0.5785280000000  0.4942780000000 1.0
C      1  0.5428180000000  0.4551010000000  0.4677400000000 1.0
C      1  0.5389010000000  0.5475830000000  0.5300500000000 1.0
C      1  0.4608200000000  0.5438940000000  0.4694890000000 1.0
C      1  0.4574220000000  0.4499900000000  0.5327690000000 1.0
C      1  0.5132500000000  0.4899340000000  0.4668740000000 1.0
C      1  0.5136790000000  0.5102170000000  0.5338060000000 1.0
C      1  0.4885470000000  0.5086610000000  0.4664460000000 1.0
C      1  0.4868630000000  0.4983060000000  0.5324990000000 1.0
C      1  0.5401220000000  0.5044870000000  0.4679960000000 1.0
C      1  0.4956720000000  0.5501050000000  0.5384950000000 1.0
C      1  0.4617210000000  0.4941860000000  0.4699110000000 1.0
C      1  0.5042320000000  0.4458370000000  0.5306780000000 1.0
C      1  0.5458300000000  0.4633250000000  0.5446680000000 1.0
C      1  0.5321130000000  0.5511630000000  0.4536450000000 1.0
C      1  0.4479910000000  0.5344770000000  0.5479130000000 1.0
C      1  0.4656380000000  0.4476550000000  0.4529990000000 1.0
END
