TITL C-8700-8172-18 -2.23576865734934e-06 125000 -359.325271572205 0 0 60 (C1) n - 1
REM
REM in /home/bkarasulu/CARBON/AIRSS/Generating-Clusters/EDIP-Nigel-Params/Higher-Symm/Box-15A/Only-C60/SD-CG/HFTN-CG
REM
REM
REM
REM
REM
REM ./C.cell (414f73aa93bd7a1190c7fd0f31ff2f98)
REM
REM compiler GCC version 9.2.1 20190827 (Red Hat 9.2.1-1)
REM options -cpp -mtune=generic -march=x86-64 -g -O0 -fpre-include=/usr/include/finclude/math-vector-fortran.h
REM seed -1790545169 396456862 470966679 -1117025180 -1810128327 2067598012 1811541135 24386404 -1266158492 -1100343719 -1124782900 2132082052 -1257499519 -964591159 -650123694 789023837 1924321087 -1066800771 -465605012 -895733260 -334716368 -202872816 -1656991071 -1116901875 832844011 -2002635471 -1337843034 -173115367 977380693 461364054 -2082859903 1890907752 -1669012534
REM
CELL 1.54180   50.00000   50.00000   50.00000   90.00000   90.00000   90.00000
LATT -1
SFAC C  
C      1  0.4831570000000  0.5630040000000  0.5215230000000 1.0
C      1  0.4869540000000  0.5224210000000  0.4371880000000 1.0
C      1  0.4835100000000  0.4369390000000  0.4775080000000 1.0
C      1  0.4856700000000  0.4772930000000  0.5639090000000 1.0
C      1  0.4483850000000  0.4532640000000  0.5116540000000 1.0
C      1  0.4490110000000  0.5108010000000  0.5488800000000 1.0
C      1  0.4498680000000  0.5447930000000  0.4887380000000 1.0
C      1  0.4482040000000  0.4886790000000  0.4502420000000 1.0
C      1  0.5253000000000  0.5680150000000  0.4901510000000 1.0
C      1  0.5266330000000  0.4888850000000  0.4320040000000 1.0
C      1  0.5269160000000  0.4352090000000  0.5073090000000 1.0
C      1  0.5277750000000  0.5101700000000  0.5656120000000 1.0
C      1  0.5152300000000  0.4742080000000  0.4796150000000 1.0
C      1  0.5160370000000  0.4829840000000  0.5256290000000 1.0
C      1  0.5158570000000  0.5286490000000  0.5187780000000 1.0
C      1  0.5191020000000  0.5025390000000  0.4980400000000 1.0
C      1  0.4569700000000  0.5670620000000  0.4728190000000 1.0
C      1  0.4548930000000  0.4698930000000  0.4299160000000 1.0
C      1  0.4558680000000  0.4321720000000  0.5293260000000 1.0
C      1  0.4558970000000  0.5294440000000  0.5692680000000 1.0
C      1  0.4936350000000  0.4476660000000  0.5606740000000 1.0
C      1  0.4917410000000  0.5622860000000  0.5515850000000 1.0
C      1  0.4958920000000  0.5504200000000  0.4424410000000 1.0
C      1  0.4910600000000  0.4377860000000  0.4475570000000 1.0
C      1  0.5580810000000  0.5168270000000  0.5136660000000 1.0
C      1  0.5568260000000  0.5199420000000  0.4835230000000 1.0
C      1  0.5568020000000  0.4879630000000  0.4805390000000 1.0
C      1  0.5576910000000  0.4862020000000  0.5117660000000 1.0
C      1  0.5390180000000  0.5613960000000  0.4664240000000 1.0
C      1  0.5353070000000  0.4633430000000  0.4418700000000 1.0
C      1  0.5363600000000  0.4445080000000  0.5327480000000 1.0
C      1  0.5364850000000  0.5361730000000  0.5570420000000 1.0
C      1  0.5063020000000  0.4964080000000  0.5507310000000 1.0
C      1  0.5050200000000  0.5513530000000  0.5027300000000 1.0
C      1  0.5063530000000  0.5026670000000  0.4466900000000 1.0
C      1  0.5050880000000  0.4504200000000  0.4948090000000 1.0
C      1  0.5213060000000  0.4427600000000  0.5567180000000 1.0
C      1  0.5197530000000  0.5592770000000  0.5565790000000 1.0
C      1  0.5234870000000  0.5552580000000  0.4439180000000 1.0
C      1  0.5189180000000  0.4400890000000  0.4421860000000 1.0
C      1  0.4593230000000  0.5175330000000  0.4497720000000 1.0
C      1  0.4578950000000  0.4527010000000  0.4831640000000 1.0
C      1  0.4588700000000  0.4821200000000  0.5500700000000 1.0
C      1  0.4585050000000  0.5457540000000  0.5166080000000 1.0
C      1  0.4832420000000  0.4379880000000  0.5344910000000 1.0
C      1  0.4827870000000  0.5358790000000  0.5629070000000 1.0
C      1  0.4832930000000  0.5616400000000  0.4654370000000 1.0
C      1  0.4819090000000  0.4636610000000  0.4360350000000 1.0
C      1  0.5513900000000  0.5367310000000  0.5329410000000 1.0
C      1  0.5602570000000  0.5440140000000  0.4700350000000 1.0
C      1  0.5500170000000  0.4643830000000  0.4659710000000 1.0
C      1  0.5511550000000  0.4686740000000  0.5333250000000 1.0
C      1  0.4645430000000  0.4822970000000  0.4756300000000 1.0
C      1  0.4648280000000  0.4776540000000  0.5191000000000 1.0
C      1  0.4656650000000  0.5166730000000  0.5236930000000 1.0
C      1  0.4664710000000  0.5209770000000  0.4803760000000 1.0
C      1  0.4966070000000  0.5286310000000  0.4806700000000 1.0
C      1  0.4919620000000  0.4804530000000  0.4599640000000 1.0
C      1  0.4924450000000  0.4631190000000  0.5190410000000 1.0
C      1  0.4924720000000  0.5199500000000  0.5384630000000 1.0
END
