TITL C-8703-8361-19 7.61956079185386e-06 125000 -358.326557597291 0 0 60 (C1) n - 1
REM
REM in /home/bkarasulu/CARBON/AIRSS/Generating-Clusters/EDIP-Nigel-Params/Higher-Symm/Box-15A/Only-C60/SD-CG/HFTN-CG
REM
REM
REM
REM
REM
REM ./C.cell (414f73aa93bd7a1190c7fd0f31ff2f98)
REM
REM compiler GCC version 9.2.1 20190827 (Red Hat 9.2.1-1)
REM options -cpp -mtune=generic -march=x86-64 -g -O0 -fpre-include=/usr/include/finclude/math-vector-fortran.h
REM seed 2012325195 1486706401 -704279965 -544965688 245816240 1360385613 -1056250963 -1966509375 1803115588 -1852752820 -338612409 2067566979 2067843212 -816089867 -1322129860 -1447468334 -1361019710 184321863 1715858683 169530232 -713597330 -103123064 899159544 1571246286 1922662802 -1625192437 1910230615 1836036388 1887380174 -1165831783 -888358889 1391862208 1169515878
REM
CELL 1.54180   50.00000   50.00000   50.00000   90.00000   90.00000   90.00000
LATT -1
SFAC C  
C      1  0.5189790000000  0.4785310000000  0.4261140000000 1.0
C      1  0.4977510000000  0.4640530000000  0.4385160000000 1.0
C      1  0.4722270000000  0.4761870000000  0.4358710000000 1.0
C      1  0.4708160000000  0.5283610000000  0.4462300000000 1.0
C      1  0.4766820000000  0.5503500000000  0.4617450000000 1.0
C      1  0.5199530000000  0.5232880000000  0.4415460000000 1.0
C      1  0.5359600000000  0.4986100000000  0.4373600000000 1.0
C      1  0.4530200000000  0.5476280000000  0.4986860000000 1.0
C      1  0.5354490000000  0.5684610000000  0.4969160000000 1.0
C      1  0.5640740000000  0.5290890000000  0.4940120000000 1.0
C      1  0.5578100000000  0.4794160000000  0.5088550000000 1.0
C      1  0.5138610000000  0.4490140000000  0.5126400000000 1.0
C      1  0.4624310000000  0.4501370000000  0.4959790000000 1.0
C      1  0.4363690000000  0.4962750000000  0.4997250000000 1.0
C      1  0.4716050000000  0.4801090000000  0.5455720000000 1.0
C      1  0.4482380000000  0.5202490000000  0.5344840000000 1.0
C      1  0.4933740000000  0.5246430000000  0.5517400000000 1.0
C      1  0.5420540000000  0.5160110000000  0.5356200000000 1.0
C      1  0.5628230000000  0.4966030000000  0.5490830000000 1.0
C      1  0.5477080000000  0.4557370000000  0.5450700000000 1.0
C      1  0.4786350000000  0.4511940000000  0.5386260000000 1.0
C      1  0.4131930000000  0.5063630000000  0.5450700000000 1.0
C      1  0.4617190000000  0.5643100000000  0.5444360000000 1.0
C      1  0.5209450000000  0.5597990000000  0.5398110000000 1.0
C      1  0.5879170000000  0.5240220000000  0.5382550000000 1.0
C      1  0.5852840000000  0.4591000000000  0.5481160000000 1.0
C      1  0.5062150000000  0.4349460000000  0.5613620000000 1.0
C      1  0.4318780000000  0.4538880000000  0.5339880000000 1.0
C      1  0.4895990000000  0.5593260000000  0.5038390000000 1.0
C      1  0.5447070000000  0.5479700000000  0.4800920000000 1.0
C      1  0.5592020000000  0.4998490000000  0.4873510000000 1.0
C      1  0.5392100000000  0.4575720000000  0.4995430000000 1.0
C      1  0.4919150000000  0.4490650000000  0.4917750000000 1.0
C      1  0.4465530000000  0.4730020000000  0.4836260000000 1.0
C      1  0.4414980000000  0.5226330000000  0.4860250000000 1.0
C      1  0.4343310000000  0.5163700000000  0.5603190000000 1.0
C      1  0.4782470000000  0.5474560000000  0.5580320000000 1.0
C      1  0.5213030000000  0.5328740000000  0.5480780000000 1.0
C      1  0.5837050000000  0.5117460000000  0.5627670000000 1.0
C      1  0.5647110000000  0.4565910000000  0.5670290000000 1.0
C      1  0.4790080000000  0.4345850000000  0.5627080000000 1.0
C      1  0.4436490000000  0.4747500000000  0.5484680000000 1.0
C      1  0.4172530000000  0.4941420000000  0.5203750000000 1.0
C      1  0.4471870000000  0.5484360000000  0.5264760000000 1.0
C      1  0.5140990000000  0.5703670000000  0.5148160000000 1.0
C      1  0.5642330000000  0.5328970000000  0.5240490000000 1.0
C      1  0.5819030000000  0.4742670000000  0.5240610000000 1.0
C      1  0.5221350000000  0.4444600000000  0.5401320000000 1.0
C      1  0.4548650000000  0.4410130000000  0.5227970000000 1.0
C      1  0.5029060000000  0.4645700000000  0.4685910000000 1.0
C      1  0.4582260000000  0.4852930000000  0.4597230000000 1.0
C      1  0.4499920000000  0.5131570000000  0.4590660000000 1.0
C      1  0.4938080000000  0.5387300000000  0.4830230000000 1.0
C      1  0.5213860000000  0.5335680000000  0.4696810000000 1.0
C      1  0.5377320000000  0.4926310000000  0.4676200000000 1.0
C      1  0.5319640000000  0.4641640000000  0.4721330000000 1.0
C      1  0.4930080000000  0.5078950000000  0.4444410000000 1.0
C      1  0.4992270000000  0.4954100000000  0.4737680000000 1.0
C      1  0.4776860000000  0.5072400000000  0.5320340000000 1.0
C      1  0.4883660000000  0.5103640000000  0.4999050000000 1.0
END
