TITL C-8704-7456-23 8.05596732184166e-06 125000 -370.917333248385 0 0 60 (C1) n - 1
REM
REM in /home/bkarasulu/CARBON/AIRSS/Generating-Clusters/EDIP-Nigel-Params/Higher-Symm/Box-15A/Only-C60/SD-CG/HFTN-CG
REM
REM
REM
REM
REM
REM ./C.cell (414f73aa93bd7a1190c7fd0f31ff2f98)
REM
REM compiler GCC version 9.2.1 20190827 (Red Hat 9.2.1-1)
REM options -cpp -mtune=generic -march=x86-64 -g -O0 -fpre-include=/usr/include/finclude/math-vector-fortran.h
REM seed -917593862 -895152861 -1319228424 134209626 834684115 -1356586374 787713110 -1797877792 1635882186 548892029 -1205128811 -1693645886 -580718462 -499114911 708369144 -564485123 -105348967 -358996761 1506306336 445005665 1522005603 699186445 995963932 -2025162964 -1345142839 -938266905 -2042290119 1671281092 -105506786 -1636488116 732256786 -1633266882 -1763236544
REM
CELL 1.54180   50.00000   50.00000   50.00000   90.00000   90.00000   90.00000
LATT -1
SFAC C  
C      1  0.4518210000000  0.5094320000000  0.5414060000000 1.0
C      1  0.4838180000000  0.5161320000000  0.4516140000000 1.0
C      1  0.5633550000000  0.5107700000000  0.5141680000000 1.0
C      1  0.5258360000000  0.5503350000000  0.5509950000000 1.0
C      1  0.4391660000000  0.5484800000000  0.5118190000000 1.0
C      1  0.5413010000000  0.5421430000000  0.4412470000000 1.0
C      1  0.5058750000000  0.4694880000000  0.5192940000000 1.0
C      1  0.4821090000000  0.4711920000000  0.4936240000000 1.0
C      1  0.5168460000000  0.4720940000000  0.4860330000000 1.0
C      1  0.5101330000000  0.5500680000000  0.4809800000000 1.0
C      1  0.5037800000000  0.5682080000000  0.5049690000000 1.0
C      1  0.4775550000000  0.5777750000000  0.5024110000000 1.0
C      1  0.5767320000000  0.5310180000000  0.4687350000000 1.0
C      1  0.4842750000000  0.5362020000000  0.5675610000000 1.0
C      1  0.4337310000000  0.5324250000000  0.4688270000000 1.0
C      1  0.4426450000000  0.4895370000000  0.5213610000000 1.0
C      1  0.5082910000000  0.5002880000000  0.4487360000000 1.0
C      1  0.5466470000000  0.4939820000000  0.5331000000000 1.0
C      1  0.5220650000000  0.4284250000000  0.5187290000000 1.0
C      1  0.4729330000000  0.4300660000000  0.5068090000000 1.0
C      1  0.5076440000000  0.4318870000000  0.4699510000000 1.0
C      1  0.5715810000000  0.4928630000000  0.4907940000000 1.0
C      1  0.4722920000000  0.4944500000000  0.5583300000000 1.0
C      1  0.4604700000000  0.4984260000000  0.4482160000000 1.0
C      1  0.4563020000000  0.5521450000000  0.4697460000000 1.0
C      1  0.5598470000000  0.5499060000000  0.4828360000000 1.0
C      1  0.4785980000000  0.5503940000000  0.5433620000000 1.0
C      1  0.5363230000000  0.5570510000000  0.4648200000000 1.0
C      1  0.5049100000000  0.5549800000000  0.5317820000000 1.0
C      1  0.4523400000000  0.5686560000000  0.4939140000000 1.0
C      1  0.5152880000000  0.4957770000000  0.5321260000000 1.0
C      1  0.4610540000000  0.4949210000000  0.4973550000000 1.0
C      1  0.5261720000000  0.4997120000000  0.4729760000000 1.0
C      1  0.5381340000000  0.4453280000000  0.5343840000000 1.0
C      1  0.4483290000000  0.4404680000000  0.5154550000000 1.0
C      1  0.5135350000000  0.4501930000000  0.4493860000000 1.0
C      1  0.5025390000000  0.5028160000000  0.5599490000000 1.0
C      1  0.4425280000000  0.5025550000000  0.4722920000000 1.0
C      1  0.5558000000000  0.4984660000000  0.4644060000000 1.0
C      1  0.5561700000000  0.4662020000000  0.5285880000000 1.0
C      1  0.4463650000000  0.4624700000000  0.5330240000000 1.0
C      1  0.4998740000000  0.4729410000000  0.4397640000000 1.0
C      1  0.4706130000000  0.4706060000000  0.4444260000000 1.0
C      1  0.5663380000000  0.4648980000000  0.5005570000000 1.0
C      1  0.4684100000000  0.4654760000000  0.5524510000000 1.0
C      1  0.4811970000000  0.5355150000000  0.4745380000000 1.0
C      1  0.5478940000000  0.5345360000000  0.5053790000000 1.0
C      1  0.4612510000000  0.5337780000000  0.5258180000000 1.0
C      1  0.5047110000000  0.5150120000000  0.5126510000000 1.0
C      1  0.4771140000000  0.5201650000000  0.5029160000000 1.0
C      1  0.5227500000000  0.5242550000000  0.4927880000000 1.0
C      1  0.5619410000000  0.5232240000000  0.4454540000000 1.0
C      1  0.5128120000000  0.5324410000000  0.5692130000000 1.0
C      1  0.4246810000000  0.5295000000000  0.4953530000000 1.0
C      1  0.4633250000000  0.4521510000000  0.4658070000000 1.0
C      1  0.5485110000000  0.4502040000000  0.4830570000000 1.0
C      1  0.4915060000000  0.4484280000000  0.5483030000000 1.0
C      1  0.4938650000000  0.4281590000000  0.5274780000000 1.0
C      1  0.4791630000000  0.4309660000000  0.4779580000000 1.0
C      1  0.5289090000000  0.4300170000000  0.4899780000000 1.0
END
