TITL C-8706-7473-212 -2.15332324695306e-06 125000 -363.941705896803 0 0 60 (C1) n - 1
REM
REM in /home/bkarasulu/CARBON/AIRSS/Generating-Clusters/EDIP-Nigel-Params/Higher-Symm/Box-15A/Only-C60/SD-CG/HFTN-CG
REM
REM
REM
REM
REM
REM ./C.cell (414f73aa93bd7a1190c7fd0f31ff2f98)
REM
REM compiler GCC version 9.2.1 20190827 (Red Hat 9.2.1-1)
REM options -cpp -mtune=generic -march=x86-64 -g -O0 -fpre-include=/usr/include/finclude/math-vector-fortran.h
REM seed 1557128200 -566943833 -8205309 1268255131 -331365915 238623414 113719317 -823417193 359669826 -916900439 728909472 1992150923 -1923602734 1348647958 -1522892915 -365755463 1914341379 -2090866291 -302743855 -433287917 -24051641 1441894582 408741989 -27428120 -318352240 1777831744 -2085175965 -1129451924 1847384020 819161360 1840204982 -1951424856 1683545517
REM
CELL 1.54180   50.00000   50.00000   50.00000   90.00000   90.00000   90.00000
LATT -1
SFAC C  
C      1  0.5242260000000  0.4978980000000  0.4766740000000 1.0
C      1  0.5273080000000  0.4878390000000  0.5049490000000 1.0
C      1  0.5015430000000  0.4987490000000  0.5170860000000 1.0
C      1  0.4833990000000  0.4783510000000  0.5279470000000 1.0
C      1  0.4631120000000  0.4712470000000  0.5052440000000 1.0
C      1  0.4742400000000  0.4925180000000  0.4807990000000 1.0
C      1  0.4981170000000  0.4801730000000  0.4660120000000 1.0
C      1  0.5383620000000  0.4874870000000  0.4384360000000 1.0
C      1  0.5680390000000  0.4914890000000  0.4748870000000 1.0
C      1  0.5578760000000  0.4962660000000  0.5489810000000 1.0
C      1  0.5147630000000  0.4927810000000  0.5726520000000 1.0
C      1  0.4460680000000  0.4950730000000  0.5421970000000 1.0
C      1  0.4321770000000  0.4836590000000  0.4720290000000 1.0
C      1  0.4646800000000  0.4874540000000  0.4378980000000 1.0
C      1  0.4761780000000  0.5624530000000  0.5274150000000 1.0
C      1  0.4653320000000  0.5640220000000  0.5004000000000 1.0
C      1  0.4790270000000  0.5670050000000  0.4746410000000 1.0
C      1  0.5075110000000  0.5686830000000  0.4694750000000 1.0
C      1  0.5273260000000  0.5742830000000  0.4900620000000 1.0
C      1  0.5250480000000  0.5649720000000  0.5179710000000 1.0
C      1  0.5028960000000  0.5702260000000  0.5357360000000 1.0
C      1  0.4665690000000  0.5019690000000  0.5600750000000 1.0
C      1  0.4310420000000  0.5002150000000  0.4954450000000 1.0
C      1  0.4589780000000  0.5119500000000  0.4514470000000 1.0
C      1  0.5141900000000  0.5029450000000  0.4325500000000 1.0
C      1  0.5589740000000  0.5168300000000  0.4673940000000 1.0
C      1  0.5627600000000  0.5055570000000  0.5231770000000 1.0
C      1  0.5160240000000  0.5189560000000  0.5819680000000 1.0
C      1  0.5359870000000  0.4807160000000  0.5568290000000 1.0
C      1  0.4883410000000  0.4804010000000  0.5667610000000 1.0
C      1  0.4388550000000  0.4828570000000  0.5179540000000 1.0
C      1  0.4489120000000  0.4679050000000  0.4543100000000 1.0
C      1  0.4924500000000  0.4835160000000  0.4287420000000 1.0
C      1  0.5544020000000  0.4722150000000  0.4577050000000 1.0
C      1  0.5659250000000  0.4857020000000  0.5031310000000 1.0
C      1  0.5263030000000  0.4585880000000  0.5403330000000 1.0
C      1  0.4973350000000  0.4571260000000  0.5449630000000 1.0
C      1  0.4572250000000  0.4435360000000  0.4960280000000 1.0
C      1  0.4652050000000  0.4461770000000  0.4686760000000 1.0
C      1  0.4944960000000  0.4510790000000  0.4706830000000 1.0
C      1  0.5449010000000  0.4538280000000  0.4775840000000 1.0
C      1  0.5297880000000  0.4561920000000  0.5029860000000 1.0
C      1  0.4600450000000  0.5507070000000  0.5474920000000 1.0
C      1  0.4407850000000  0.5502210000000  0.4979580000000 1.0
C      1  0.4643700000000  0.5593590000000  0.4519970000000 1.0
C      1  0.5166310000000  0.5565770000000  0.4446730000000 1.0
C      1  0.5512340000000  0.5636000000000  0.4787510000000 1.0
C      1  0.5483470000000  0.5541320000000  0.5301660000000 1.0
C      1  0.5081890000000  0.5629070000000  0.5625390000000 1.0
C      1  0.5538190000000  0.5314760000000  0.5142320000000 1.0
C      1  0.4987830000000  0.5386420000000  0.5728310000000 1.0
C      1  0.4742740000000  0.5301610000000  0.5605990000000 1.0
C      1  0.4488540000000  0.5233060000000  0.4973920000000 1.0
C      1  0.4746350000000  0.5343190000000  0.4446690000000 1.0
C      1  0.5040420000000  0.5298050000000  0.4482520000000 1.0
C      1  0.5470680000000  0.5352030000000  0.4858160000000 1.0
C      1  0.5102990000000  0.5253180000000  0.4781280000000 1.0
C      1  0.5047090000000  0.4421670000000  0.4961340000000 1.0
C      1  0.5033340000000  0.4162200000000  0.5017380000000 1.0
C      1  0.4867740000000  0.5157980000000  0.4969240000000 1.0
END
