TITL C-8703-8361-196 1.12616143555461e-05 125000 -371.357732493248 0 0 60 (C2) n - 1
REM
REM in /home/bkarasulu/CARBON/AIRSS/Generating-Clusters/EDIP-Nigel-Params/Higher-Symm/Box-15A/Only-C60/SD-CG/HFTN-CG
REM
REM
REM
REM
REM
REM ./C.cell (414f73aa93bd7a1190c7fd0f31ff2f98)
REM
REM compiler GCC version 9.2.1 20190827 (Red Hat 9.2.1-1)
REM options -cpp -mtune=generic -march=x86-64 -g -O0 -fpre-include=/usr/include/finclude/math-vector-fortran.h
REM seed -212708485 1861018987 -1571941875 -604741458 260405131 343538528 1345172278 1872620130 925315148 434514650 -71172296 -1466306367 65043986 1853225904 231373299 1622153476 -594548371 1222704324 1661428410 -1177953534 -167618713 1812445656 -2060832316 195488452 323011580 -1179426224 471939928 -1743650421 -1727932812 -1769952038 170670395 -564562366 383093925
REM
CELL 1.54180   50.00000   50.00000   50.00000   90.00000   90.00000   90.00000
LATT -1
SFAC C  
C      1  0.4831220000000  0.4423230000000  0.5372320000000 1.0
C      1  0.4826560000000  0.5572310000000  0.4622960000000 1.0
C      1  0.5471810000000  0.4732150000000  0.5106850000000 1.0
C      1  0.5467430000000  0.5280100000000  0.4906100000000 1.0
C      1  0.4892490000000  0.5113640000000  0.4641570000000 1.0
C      1  0.4885650000000  0.4883470000000  0.5355370000000 1.0
C      1  0.4233210000000  0.4909150000000  0.4863740000000 1.0
C      1  0.4227640000000  0.5070780000000  0.5115040000000 1.0
C      1  0.4923310000000  0.5254290000000  0.5880160000000 1.0
C      1  0.4954250000000  0.4744120000000  0.4118150000000 1.0
C      1  0.4581280000000  0.4543870000000  0.4759760000000 1.0
C      1  0.4563070000000  0.5444970000000  0.5228440000000 1.0
C      1  0.4567640000000  0.4972440000000  0.4509920000000 1.0
C      1  0.4553720000000  0.5016100000000  0.5477970000000 1.0
C      1  0.4766320000000  0.4372960000000  0.4883900000000 1.0
C      1  0.4746940000000  0.5620690000000  0.5109390000000 1.0
C      1  0.4403340000000  0.4682240000000  0.4940250000000 1.0
C      1  0.4393840000000  0.5302070000000  0.5043170000000 1.0
C      1  0.5183980000000  0.5665230000000  0.4922370000000 1.0
C      1  0.5199060000000  0.4339770000000  0.5082910000000 1.0
C      1  0.5239140000000  0.4833780000000  0.5841330000000 1.0
C      1  0.5257820000000  0.5172700000000  0.4165520000000 1.0
C      1  0.5239380000000  0.4681480000000  0.5599670000000 1.0
C      1  0.5247430000000  0.5324870000000  0.4407040000000 1.0
C      1  0.5766980000000  0.5228800000000  0.5301320000000 1.0
C      1  0.5780690000000  0.4791390000000  0.4720020000000 1.0
C      1  0.5307390000000  0.5123360000000  0.5342500000000 1.0
C      1  0.5319830000000  0.4884820000000  0.4666150000000 1.0
C      1  0.5522130000000  0.5332070000000  0.5389520000000 1.0
C      1  0.5541150000000  0.4681800000000  0.4625130000000 1.0
C      1  0.4553140000000  0.4446430000000  0.5356520000000 1.0
C      1  0.4548850000000  0.5541860000000  0.4631100000000 1.0
C      1  0.4324780000000  0.4896030000000  0.5342230000000 1.0
C      1  0.4331990000000  0.5086450000000  0.4639250000000 1.0
C      1  0.4375020000000  0.5359660000000  0.4757500000000 1.0
C      1  0.4378170000000  0.4624070000000  0.5225320000000 1.0
C      1  0.4826310000000  0.5395950000000  0.5654670000000 1.0
C      1  0.4854800000000  0.4599890000000  0.4340940000000 1.0
C      1  0.5473670000000  0.5580260000000  0.5268800000000 1.0
C      1  0.5495870000000  0.4432390000000  0.4744570000000 1.0
C      1  0.5128230000000  0.4931390000000  0.4237130000000 1.0
C      1  0.5105330000000  0.5071660000000  0.5766090000000 1.0
C      1  0.5040540000000  0.5127010000000  0.5480160000000 1.0
C      1  0.5057060000000  0.4874270000000  0.4521190000000 1.0
C      1  0.4630840000000  0.5296150000000  0.5469120000000 1.0
C      1  0.4651760000000  0.4694490000000  0.4520990000000 1.0
C      1  0.4932500000000  0.5530970000000  0.4902400000000 1.0
C      1  0.4943710000000  0.4467410000000  0.5095900000000 1.0
C      1  0.5430640000000  0.5566170000000  0.4992750000000 1.0
C      1  0.5444890000000  0.4445250000000  0.5019320000000 1.0
C      1  0.4946580000000  0.5347860000000  0.4465740000000 1.0
C      1  0.4940970000000  0.4650670000000  0.5532710000000 1.0
C      1  0.5417330000000  0.5175580000000  0.4618490000000 1.0
C      1  0.5411090000000  0.4835220000000  0.5392920000000 1.0
C      1  0.5241540000000  0.4862540000000  0.4962210000000 1.0
C      1  0.5236740000000  0.5143700000000  0.5044380000000 1.0
C      1  0.5718230000000  0.5155510000000  0.5032100000000 1.0
C      1  0.5722650000000  0.4863280000000  0.4987760000000 1.0
C      1  0.4969020000000  0.5232130000000  0.4926570000000 1.0
C      1  0.4973070000000  0.4767110000000  0.5072640000000 1.0
END
