TITL C-8706-7473-189 -9.48895097052488e-05 125000 -367.560355448806 0 0 60 (C1) n - 1
REM
REM in /home/bkarasulu/CARBON/AIRSS/Generating-Clusters/EDIP-Nigel-Params/Higher-Symm/Box-15A/Only-C60/SD-CG/HFTN-CG
REM
REM
REM
REM
REM
REM ./C.cell (414f73aa93bd7a1190c7fd0f31ff2f98)
REM
REM compiler GCC version 9.2.1 20190827 (Red Hat 9.2.1-1)
REM options -cpp -mtune=generic -march=x86-64 -g -O0 -fpre-include=/usr/include/finclude/math-vector-fortran.h
REM seed 97848030 -90011609 -758019266 751518303 1167300412 431716599 1823260460 -87787778 -968763910 -800462470 1867017054 -1996044056 1443526944 -427498507 -256244838 791171131 1964132028 123616089 -602252313 -1874659002 198863834 759463798 579860448 -880894270 -2133221264 551458681 511932051 -1811152039 -949445742 775319772 -238878891 -896746166 292234710
REM
CELL 1.54180   50.00000   50.00000   50.00000   90.00000   90.00000   90.00000
LATT -1
SFAC C  
C      1  0.5189760000000  0.5439770000000  0.4357810000000 1.0
C      1  0.5075480000000  0.5753760000000  0.4943590000000 1.0
C      1  0.5207190000000  0.5531000000000  0.5536360000000 1.0
C      1  0.5204590000000  0.4907900000000  0.5761810000000 1.0
C      1  0.5107780000000  0.4359140000000  0.5372320000000 1.0
C      1  0.5159510000000  0.4280910000000  0.4717560000000 1.0
C      1  0.5171110000000  0.4772350000000  0.4221660000000 1.0
C      1  0.4595000000000  0.5464460000000  0.4705400000000 1.0
C      1  0.4565540000000  0.5480400000000  0.5184760000000 1.0
C      1  0.4613720000000  0.5179750000000  0.5545970000000 1.0
C      1  0.4606130000000  0.4709120000000  0.5485640000000 1.0
C      1  0.4565490000000  0.4491320000000  0.5056710000000 1.0
C      1  0.4610850000000  0.4605910000000  0.4594170000000 1.0
C      1  0.4599130000000  0.5058320000000  0.4452150000000 1.0
C      1  0.4658570000000  0.4429580000000  0.4801800000000 1.0
C      1  0.4670970000000  0.4796150000000  0.4402590000000 1.0
C      1  0.4677470000000  0.5321660000000  0.4480180000000 1.0
C      1  0.4601400000000  0.5611240000000  0.4943240000000 1.0
C      1  0.4682830000000  0.5418940000000  0.5428330000000 1.0
C      1  0.4687500000000  0.4929830000000  0.5634690000000 1.0
C      1  0.4621450000000  0.4479300000000  0.5328920000000 1.0
C      1  0.4833540000000  0.4310430000000  0.5386670000000 1.0
C      1  0.4887210000000  0.4274230000000  0.4781420000000 1.0
C      1  0.4892190000000  0.4755790000000  0.4240240000000 1.0
C      1  0.4912530000000  0.5391580000000  0.4348030000000 1.0
C      1  0.4801250000000  0.5803210000000  0.4964360000000 1.0
C      1  0.4928800000000  0.5529830000000  0.5494180000000 1.0
C      1  0.4924960000000  0.4922230000000  0.5779540000000 1.0
C      1  0.5723030000000  0.5296490000000  0.5024880000000 1.0
C      1  0.5902210000000  0.5184140000000  0.5212970000000 1.0
C      1  0.5749600000000  0.4982280000000  0.5338510000000 1.0
C      1  0.5799570000000  0.4724190000000  0.5243660000000 1.0
C      1  0.5725680000000  0.4689280000000  0.4977000000000 1.0
C      1  0.5831410000000  0.4886090000000  0.4805980000000 1.0
C      1  0.5706970000000  0.5137590000000  0.4771520000000 1.0
C      1  0.5357060000000  0.4805910000000  0.4684480000000 1.0
C      1  0.5418370000000  0.5104040000000  0.4679200000000 1.0
C      1  0.5252400000000  0.5246740000000  0.4913570000000 1.0
C      1  0.5449040000000  0.5307150000000  0.5146770000000 1.0
C      1  0.5458520000000  0.5052930000000  0.5333900000000 1.0
C      1  0.5282860000000  0.4826120000000  0.5182160000000 1.0
C      1  0.5429560000000  0.4664120000000  0.4940490000000 1.0
C      1  0.5233930000000  0.4376760000000  0.4469600000000 1.0
C      1  0.5286620000000  0.5020780000000  0.4193370000000 1.0
C      1  0.5266400000000  0.5611680000000  0.4559680000000 1.0
C      1  0.5248970000000  0.5764010000000  0.5156930000000 1.0
C      1  0.5324470000000  0.5368540000000  0.5728570000000 1.0
C      1  0.5297490000000  0.4667140000000  0.5663880000000 1.0
C      1  0.5255230000000  0.4254750000000  0.5165300000000 1.0
C      1  0.5357610000000  0.5205190000000  0.4388150000000 1.0
C      1  0.5136530000000  0.5515800000000  0.4789840000000 1.0
C      1  0.5373560000000  0.5564410000000  0.5300160000000 1.0
C      1  0.5341730000000  0.5115630000000  0.5614110000000 1.0
C      1  0.5178730000000  0.4638950000000  0.5411310000000 1.0
C      1  0.5337830000000  0.4369860000000  0.4929920000000 1.0
C      1  0.5304430000000  0.4643860000000  0.4443940000000 1.0
C      1  0.4301110000000  0.5003790000000  0.4963880000000 1.0
C      1  0.4821950000000  0.4981230000000  0.5002290000000 1.0
C      1  0.5088920000000  0.5025170000000  0.5048080000000 1.0
C      1  0.4556040000000  0.4994250000000  0.4997400000000 1.0
END
