TITL C-8702-7969-52 -7.72078448998658e-06 125000 -373.907019664653 0 0 60 (C1) n - 1
REM
REM in /home/bkarasulu/CARBON/AIRSS/Generating-Clusters/EDIP-Nigel-Params/Higher-Symm/Box-15A/Only-C60/SD-CG/HFTN-CG
REM
REM
REM
REM
REM
REM ./C.cell (414f73aa93bd7a1190c7fd0f31ff2f98)
REM
REM compiler GCC version 9.2.1 20190827 (Red Hat 9.2.1-1)
REM options -cpp -mtune=generic -march=x86-64 -g -O0 -fpre-include=/usr/include/finclude/math-vector-fortran.h
REM seed -262627920 -833951027 -82230189 -30005571 -1926480316 14024623 1316660300 -17686589 -652010704 -1886980274 41066618 1247998750 1039993993 -144254873 -21582904 -1475771427 2115936424 -145172987 -141991813 -641468938 1124073481 -821913134 -1677277399 2078305324 -1319192893 173059627 1896776147 85088327 252015871 1307775071 -926292239 2002851988 1717160520
REM
CELL 1.54180   50.00000   50.00000   50.00000   90.00000   90.00000   90.00000
LATT -1
SFAC C  
C      1  0.5401740000000  0.5153540000000  0.5569030000000 1.0
C      1  0.5396440000000  0.4856000000000  0.5552000000000 1.0
C      1  0.5192340000000  0.4464490000000  0.4682070000000 1.0
C      1  0.5194670000000  0.5560360000000  0.4693610000000 1.0
C      1  0.4315720000000  0.5092830000000  0.4929720000000 1.0
C      1  0.4228880000000  0.4816670000000  0.4927800000000 1.0
C      1  0.5517950000000  0.5544760000000  0.5078670000000 1.0
C      1  0.5499120000000  0.4468300000000  0.5068850000000 1.0
C      1  0.5149810000000  0.4701040000000  0.5524800000000 1.0
C      1  0.5157490000000  0.5313900000000  0.5529700000000 1.0
C      1  0.4400610000000  0.5229570000000  0.4683320000000 1.0
C      1  0.4351670000000  0.4656600000000  0.4601910000000 1.0
C      1  0.4904460000000  0.5588160000000  0.4611550000000 1.0
C      1  0.4898640000000  0.4434680000000  0.4599310000000 1.0
C      1  0.5176650000000  0.5153880000000  0.4373380000000 1.0
C      1  0.5219660000000  0.4864550000000  0.4362800000000 1.0
C      1  0.5009260000000  0.4288520000000  0.5252900000000 1.0
C      1  0.5059070000000  0.5721050000000  0.5212630000000 1.0
C      1  0.4967990000000  0.5178340000000  0.5343640000000 1.0
C      1  0.4960860000000  0.4832830000000  0.5339860000000 1.0
C      1  0.4900660000000  0.5147500000000  0.4832520000000 1.0
C      1  0.4890280000000  0.4862840000000  0.4815030000000 1.0
C      1  0.5522920000000  0.4864080000000  0.4757730000000 1.0
C      1  0.5519530000000  0.5156800000000  0.4757400000000 1.0
C      1  0.4539410000000  0.5528200000000  0.5261840000000 1.0
C      1  0.4534310000000  0.4522400000000  0.5234830000000 1.0
C      1  0.5756290000000  0.5154360000000  0.5231540000000 1.0
C      1  0.5754000000000  0.4846680000000  0.5228370000000 1.0
C      1  0.4964320000000  0.4699870000000  0.5056960000000 1.0
C      1  0.4965510000000  0.5311820000000  0.5072640000000 1.0
C      1  0.4439820000000  0.5511040000000  0.4792300000000 1.0
C      1  0.4424820000000  0.4427390000000  0.4777000000000 1.0
C      1  0.5310220000000  0.5297110000000  0.4598540000000 1.0
C      1  0.5317130000000  0.4728980000000  0.4601120000000 1.0
C      1  0.4891960000000  0.5200570000000  0.4324310000000 1.0
C      1  0.4979770000000  0.4758140000000  0.4276450000000 1.0
C      1  0.4322910000000  0.4549160000000  0.5030270000000 1.0
C      1  0.4342910000000  0.5443540000000  0.5065540000000 1.0
C      1  0.5644580000000  0.5302140000000  0.5478640000000 1.0
C      1  0.5636640000000  0.4698910000000  0.5472000000000 1.0
C      1  0.4535980000000  0.5390620000000  0.5505290000000 1.0
C      1  0.4494520000000  0.4661930000000  0.5474040000000 1.0
C      1  0.4818150000000  0.5301720000000  0.4590890000000 1.0
C      1  0.4834550000000  0.4723730000000  0.4535250000000 1.0
C      1  0.4687760000000  0.5161400000000  0.5461570000000 1.0
C      1  0.4685160000000  0.4862590000000  0.5475410000000 1.0
C      1  0.5228130000000  0.5599190000000  0.5451500000000 1.0
C      1  0.5207570000000  0.4416310000000  0.5449070000000 1.0
C      1  0.5529420000000  0.5572040000000  0.5375930000000 1.0
C      1  0.5509870000000  0.4432870000000  0.5365120000000 1.0
C      1  0.4798330000000  0.4448300000000  0.5097950000000 1.0
C      1  0.4799270000000  0.5573450000000  0.5105240000000 1.0
C      1  0.5605000000000  0.4730180000000  0.5002330000000 1.0
C      1  0.5626850000000  0.5286860000000  0.4998200000000 1.0
C      1  0.4718450000000  0.4342000000000  0.4821150000000 1.0
C      1  0.4709710000000  0.5661100000000  0.4826730000000 1.0
C      1  0.4554350000000  0.4799630000000  0.4460580000000 1.0
C      1  0.4532900000000  0.5099990000000  0.4434720000000 1.0
C      1  0.5225670000000  0.4420230000000  0.4973920000000 1.0
C      1  0.5237320000000  0.5584250000000  0.4992560000000 1.0
END
