TITL C-8702-7969-336 2.00388993734855e-06 125000 -367.941652043631 0 0 60 (C2v) n - 1
REM
REM in /home/bkarasulu/CARBON/AIRSS/Generating-Clusters/EDIP-Nigel-Params/Higher-Symm/Box-15A/Only-C60/SD-CG/HFTN-CG
REM
REM
REM
REM
REM
REM ./C.cell (414f73aa93bd7a1190c7fd0f31ff2f98)
REM
REM compiler GCC version 9.2.1 20190827 (Red Hat 9.2.1-1)
REM options -cpp -mtune=generic -march=x86-64 -g -O0 -fpre-include=/usr/include/finclude/math-vector-fortran.h
REM seed 1954709166 399427493 -404896770 -1413153777 -892142554 1239051535 -776755879 -118579214 1628982236 -1147237310 -121841580 -282376195 874768577 1309079881 -1077753087 -650269445 -1720600362 1933651304 -513206023 472143859 -1433138631 -846281632 -106344668 -1164822195 -1502447319 1597873644 -233475822 -807215941 -632443967 1863391600 1310875107 881166184 1539205430
REM
CELL 1.54180   50.00000   50.00000   50.00000   90.00000   90.00000   90.00000
LATT -1
SFAC C  
C      1  0.5012150000000  0.5251770000000  0.4325400000000 1.0
C      1  0.4985170000000  0.5823070000000  0.4858210000000 1.0
C      1  0.4999050000000  0.5506290000000  0.5556840000000 1.0
C      1  0.5012360000000  0.4748230000000  0.5674600000000 1.0
C      1  0.4985140000000  0.4176930000000  0.5141790000000 1.0
C      1  0.4998820000000  0.4493710000000  0.4443160000000 1.0
C      1  0.5012380000000  0.5251470000000  0.5674710000000 1.0
C      1  0.4985220000000  0.5823010000000  0.5142160000000 1.0
C      1  0.4998860000000  0.5506540000000  0.4443380000000 1.0
C      1  0.5012130000000  0.4748530000000  0.4325290000000 1.0
C      1  0.4985090000000  0.4176990000000  0.4857840000000 1.0
C      1  0.4999010000000  0.4493460000000  0.5556620000000 1.0
C      1  0.4522960000000  0.5189740000000  0.4393140000000 1.0
C      1  0.4506120000000  0.5639740000000  0.4856130000000 1.0
C      1  0.4514530000000  0.5445730000000  0.5470470000000 1.0
C      1  0.4523150000000  0.4810300000000  0.5607020000000 1.0
C      1  0.4506110000000  0.4360310000000  0.5144040000000 1.0
C      1  0.4514330000000  0.4554310000000  0.4529690000000 1.0
C      1  0.4523170000000  0.5189470000000  0.5607110000000 1.0
C      1  0.4506170000000  0.5639670000000  0.5144330000000 1.0
C      1  0.4514370000000  0.5445940000000  0.4529890000000 1.0
C      1  0.4522940000000  0.4810570000000  0.4393060000000 1.0
C      1  0.4506060000000  0.4360370000000  0.4855850000000 1.0
C      1  0.4514490000000  0.4554100000000  0.5470280000000 1.0
C      1  0.4737830000000  0.5630480000000  0.4479260000000 1.0
C      1  0.4725130000000  0.5784990000000  0.5276790000000 1.0
C      1  0.4761240000000  0.5143860000000  0.5773600000000 1.0
C      1  0.4737950000000  0.4369550000000  0.5520830000000 1.0
C      1  0.4724970000000  0.4215030000000  0.4723300000000 1.0
C      1  0.4760950000000  0.4856160000000  0.4226490000000 1.0
C      1  0.4738010000000  0.5630240000000  0.5521120000000 1.0
C      1  0.4725040000000  0.5785120000000  0.4723650000000 1.0
C      1  0.4760970000000  0.5144210000000  0.4226550000000 1.0
C      1  0.4737770000000  0.4369780000000  0.4478980000000 1.0
C      1  0.4725060000000  0.4214910000000  0.5276440000000 1.0
C      1  0.4761220000000  0.4855820000000  0.5773530000000 1.0
C      1  0.5487280000000  0.4809920000000  0.4476160000000 1.0
C      1  0.5444180000000  0.5438900000000  0.4628180000000 1.0
C      1  0.5533650000000  0.5611390000000  0.5144090000000 1.0
C      1  0.5487480000000  0.5190030000000  0.5523670000000 1.0
C      1  0.5444270000000  0.4561060000000  0.5371670000000 1.0
C      1  0.5533550000000  0.4388570000000  0.4855730000000 1.0
C      1  0.5487460000000  0.4809690000000  0.5523580000000 1.0
C      1  0.5444310000000  0.5438740000000  0.5371860000000 1.0
C      1  0.5533600000000  0.5611450000000  0.4856000000000 1.0
C      1  0.5487290000000  0.5190270000000  0.4476250000000 1.0
C      1  0.5444140000000  0.4561220000000  0.4627980000000 1.0
C      1  0.5533600000000  0.4388500000000  0.5143820000000 1.0
C      1  0.5279580000000  0.5143650000000  0.5727480000000 1.0
C      1  0.5251320000000  0.4374620000000  0.5483180000000 1.0
C      1  0.5240030000000  0.4176580000000  0.4722120000000 1.0
C      1  0.5279310000000  0.4856330000000  0.4272420000000 1.0
C      1  0.5251210000000  0.5625360000000  0.4516730000000 1.0
C      1  0.5240190000000  0.5823400000000  0.5277790000000 1.0
C      1  0.5279320000000  0.5143970000000  0.4272490000000 1.0
C      1  0.5251150000000  0.4374840000000  0.4516450000000 1.0
C      1  0.5240120000000  0.4176460000000  0.5277430000000 1.0
C      1  0.5279560000000  0.4856010000000  0.5727410000000 1.0
C      1  0.5251380000000  0.5625140000000  0.5483460000000 1.0
C      1  0.5240100000000  0.5823520000000  0.4722490000000 1.0
END
