TITL C-8705-8172-218 -7.35368219991292e-07 125000 -358.300057573929 0 0 60 (C1) n - 1
REM
REM in /home/bkarasulu/CARBON/AIRSS/Generating-Clusters/EDIP-Nigel-Params/Higher-Symm/Box-15A/Only-C60/SD-CG/HFTN-CG
REM
REM
REM
REM
REM
REM ./C.cell (414f73aa93bd7a1190c7fd0f31ff2f98)
REM
REM compiler GCC version 9.2.1 20190827 (Red Hat 9.2.1-1)
REM options -cpp -mtune=generic -march=x86-64 -g -O0 -fpre-include=/usr/include/finclude/math-vector-fortran.h
REM seed 819074524 927030036 485266836 -1400768616 1444076449 -796405642 -633009538 -424999352 -500455057 1494897435 75673086 1637975401 -791300255 -522355646 1729646189 1142351310 -1088126854 1079718028 -795034152 -250283529 -1109765475 -2065403694 701835470 2092421510 -349271150 713359634 -1406290441 1039621093 -522916056 867158578 -1933446581 999603330 -1156029644
REM
CELL 1.54180   50.00000   50.00000   50.00000   90.00000   90.00000   90.00000
LATT -1
SFAC C  
C      1  0.4598850000000  0.4789140000000  0.5622690000000 1.0
C      1  0.5386800000000  0.4744100000000  0.5616080000000 1.0
C      1  0.4991830000000  0.5485460000000  0.5609560000000 1.0
C      1  0.4582330000000  0.4748330000000  0.4373610000000 1.0
C      1  0.5385740000000  0.4760570000000  0.4387220000000 1.0
C      1  0.5029100000000  0.5458570000000  0.4394100000000 1.0
C      1  0.4585260000000  0.5207950000000  0.5625170000000 1.0
C      1  0.5428600000000  0.5231260000000  0.5607410000000 1.0
C      1  0.5014370000000  0.4549440000000  0.5609900000000 1.0
C      1  0.4583770000000  0.5255540000000  0.4375310000000 1.0
C      1  0.5385800000000  0.5234170000000  0.4398330000000 1.0
C      1  0.5027910000000  0.4540160000000  0.4387070000000 1.0
C      1  0.4718510000000  0.4846370000000  0.5361850000000 1.0
C      1  0.5282260000000  0.4833980000000  0.5356920000000 1.0
C      1  0.4995220000000  0.5324220000000  0.5361940000000 1.0
C      1  0.4711020000000  0.4837590000000  0.4623450000000 1.0
C      1  0.5275500000000  0.4834700000000  0.4647920000000 1.0
C      1  0.4996880000000  0.5317000000000  0.4649820000000 1.0
C      1  0.4713670000000  0.5161160000000  0.5365170000000 1.0
C      1  0.5285110000000  0.5157280000000  0.5360070000000 1.0
C      1  0.4999690000000  0.4686610000000  0.5351170000000 1.0
C      1  0.4710970000000  0.5163210000000  0.4624790000000 1.0
C      1  0.5272730000000  0.5153820000000  0.4656570000000 1.0
C      1  0.4997800000000  0.4680050000000  0.4644210000000 1.0
C      1  0.4521170000000  0.4414550000000  0.5156160000000 1.0
C      1  0.5757240000000  0.4882280000000  0.5151120000000 1.0
C      1  0.4757600000000  0.5716590000000  0.5245190000000 1.0
C      1  0.4519600000000  0.4412010000000  0.4847810000000 1.0
C      1  0.5752400000000  0.4882690000000  0.4841840000000 1.0
C      1  0.4759720000000  0.5713550000000  0.4751110000000 1.0
C      1  0.4517520000000  0.5591190000000  0.5151940000000 1.0
C      1  0.5744150000000  0.5152660000000  0.5244820000000 1.0
C      1  0.4761340000000  0.4290510000000  0.5250320000000 1.0
C      1  0.4519020000000  0.5589220000000  0.4843850000000 1.0
C      1  0.5735580000000  0.5153060000000  0.4748990000000 1.0
C      1  0.4758410000000  0.4285680000000  0.4753460000000 1.0
C      1  0.4523650000000  0.4727010000000  0.5157890000000 1.0
C      1  0.5485880000000  0.4724230000000  0.5156760000000 1.0
C      1  0.4958920000000  0.5540200000000  0.5150330000000 1.0
C      1  0.4524280000000  0.4724270000000  0.4840620000000 1.0
C      1  0.5481590000000  0.4723340000000  0.4844330000000 1.0
C      1  0.4960380000000  0.5539670000000  0.4851260000000 1.0
C      1  0.4520430000000  0.5278910000000  0.5158600000000 1.0
C      1  0.5490140000000  0.5237480000000  0.5150960000000 1.0
C      1  0.4963000000000  0.4462350000000  0.5149340000000 1.0
C      1  0.4523280000000  0.5276800000000  0.4841050000000 1.0
C      1  0.5485980000000  0.5238570000000  0.4852810000000 1.0
C      1  0.4961190000000  0.4459220000000  0.4849120000000 1.0
C      1  0.5007910000000  0.5299910000000  0.4159330000000 1.0
C      1  0.4756490000000  0.4856610000000  0.4180980000000 1.0
C      1  0.5262600000000  0.4850820000000  0.4147260000000 1.0
C      1  0.5001230000000  0.5284470000000  0.5805850000000 1.0
C      1  0.4743140000000  0.4851860000000  0.5860250000000 1.0
C      1  0.5259510000000  0.4848940000000  0.5846360000000 1.0
C      1  0.5005780000000  0.4703350000000  0.4154900000000 1.0
C      1  0.4757380000000  0.5148040000000  0.4182020000000 1.0
C      1  0.5263780000000  0.5151590000000  0.4154380000000 1.0
C      1  0.5003400000000  0.4700040000000  0.5852240000000 1.0
C      1  0.4745390000000  0.5148500000000  0.5851780000000 1.0
C      1  0.5251200000000  0.5139170000000  0.5804640000000 1.0
END
