TITL C-8700-8172-162 3.67784742714001e-05 125000 -368.762209278415 0 0 60 (C1) n - 1
REM
REM in /home/bkarasulu/CARBON/AIRSS/Generating-Clusters/EDIP-Nigel-Params/Higher-Symm/Box-15A/Only-C60/SD-CG/HFTN-CG
REM
REM
REM
REM
REM
REM ./C.cell (414f73aa93bd7a1190c7fd0f31ff2f98)
REM
REM compiler GCC version 9.2.1 20190827 (Red Hat 9.2.1-1)
REM options -cpp -mtune=generic -march=x86-64 -g -O0 -fpre-include=/usr/include/finclude/math-vector-fortran.h
REM seed 1561728641 -1999685126 1784324781 -1377838940 1093710917 1827149517 -859409246 1381956203 513465551 1221293586 -637061573 -257400872 -1550512425 1928774001 -1030862328 399097918 1527489499 1858034009 1016548727 2131677557 216972772 533178147 885300323 -1679917681 -15587325 -1247012061 -935218239 1680658438 -555377547 -1470178999 -1325520520 1905467179 1645635145
REM
CELL 1.54180   50.00000   50.00000   50.00000   90.00000   90.00000   90.00000
LATT -1
SFAC C  
C      1  0.5316970000000  0.4312540000000  0.4711000000000 1.0
C      1  0.5340820000000  0.4338320000000  0.5279410000000 1.0
C      1  0.4643580000000  0.4305710000000  0.5322420000000 1.0
C      1  0.4709480000000  0.4316630000000  0.4627610000000 1.0
C      1  0.5325840000000  0.5214470000000  0.5501920000000 1.0
C      1  0.4534150000000  0.5207490000000  0.5318750000000 1.0
C      1  0.4665500000000  0.5208240000000  0.4535630000000 1.0
C      1  0.5441320000000  0.5252970000000  0.4690980000000 1.0
C      1  0.5524930000000  0.5524560000000  0.5137260000000 1.0
C      1  0.4929210000000  0.5474830000000  0.5519350000000 1.0
C      1  0.4475390000000  0.5484510000000  0.4923680000000 1.0
C      1  0.5045930000000  0.5489250000000  0.4475840000000 1.0
C      1  0.5200720000000  0.4941320000000  0.5048840000000 1.0
C      1  0.4941980000000  0.4929950000000  0.5215060000000 1.0
C      1  0.4772450000000  0.4916900000000  0.4953130000000 1.0
C      1  0.5035350000000  0.4929950000000  0.4785810000000 1.0
C      1  0.5383220000000  0.5752780000000  0.5004670000000 1.0
C      1  0.5127630000000  0.5780530000000  0.5153980000000 1.0
C      1  0.4867360000000  0.5803740000000  0.5018710000000 1.0
C      1  0.4857950000000  0.5889600000000  0.4749390000000 1.0
C      1  0.5122630000000  0.5006450000000  0.4509940000000 1.0
C      1  0.5475400000000  0.5028000000000  0.5135510000000 1.0
C      1  0.4872270000000  0.4986920000000  0.5500450000000 1.0
C      1  0.4490980000000  0.4986250000000  0.4873430000000 1.0
C      1  0.5114290000000  0.4767270000000  0.4329730000000 1.0
C      1  0.5675240000000  0.4794000000000  0.5125790000000 1.0
C      1  0.4910120000000  0.4736670000000  0.5660650000000 1.0
C      1  0.4320180000000  0.4742430000000  0.4899450000000 1.0
C      1  0.5579700000000  0.4751140000000  0.5420240000000 1.0
C      1  0.4546460000000  0.4720440000000  0.5564260000000 1.0
C      1  0.4444760000000  0.4719230000000  0.4544030000000 1.0
C      1  0.5450630000000  0.4733670000000  0.4488230000000 1.0
C      1  0.4475980000000  0.4524830000000  0.5359770000000 1.0
C      1  0.4663390000000  0.4540520000000  0.4474940000000 1.0
C      1  0.5477640000000  0.4539030000000  0.4705440000000 1.0
C      1  0.5359360000000  0.4553920000000  0.5451210000000 1.0
C      1  0.5404320000000  0.5485310000000  0.5415910000000 1.0
C      1  0.4677640000000  0.5461660000000  0.5359580000000 1.0
C      1  0.4593870000000  0.5472950000000  0.4643370000000 1.0
C      1  0.5330100000000  0.5503770000000  0.4572480000000 1.0
C      1  0.4651960000000  0.5628040000000  0.5118730000000 1.0
C      1  0.4830150000000  0.5646540000000  0.4606320000000 1.0
C      1  0.5378140000000  0.5734210000000  0.4725300000000 1.0
C      1  0.5152980000000  0.5647810000000  0.5417550000000 1.0
C      1  0.5046520000000  0.5213080000000  0.5600180000000 1.0
C      1  0.4401500000000  0.5216970000000  0.5050250000000 1.0
C      1  0.4936350000000  0.5221570000000  0.4414570000000 1.0
C      1  0.5555150000000  0.5270340000000  0.4969530000000 1.0
C      1  0.5150330000000  0.4603960000000  0.5626640000000 1.0
C      1  0.4330850000000  0.4607580000000  0.5139240000000 1.0
C      1  0.4876120000000  0.4629780000000  0.4324410000000 1.0
C      1  0.5627430000000  0.4601210000000  0.4930800000000 1.0
C      1  0.5146390000000  0.4137840000000  0.4850580000000 1.0
C      1  0.5136030000000  0.4191030000000  0.5162340000000 1.0
C      1  0.4847610000000  0.4291950000000  0.5134240000000 1.0
C      1  0.4831080000000  0.4193460000000  0.4844680000000 1.0
C      1  0.4484140000000  0.5004490000000  0.5522000000000 1.0
C      1  0.4468210000000  0.5003450000000  0.4484880000000 1.0
C      1  0.5510260000000  0.5021560000000  0.4525550000000 1.0
C      1  0.5514050000000  0.5006390000000  0.5544360000000 1.0
END
