TITL C-8701-7969-65 2.74901361432442e-05 125000 -351.216328294349 0 0 60 (C1) n - 1
REM
REM in /home/bkarasulu/CARBON/AIRSS/Generating-Clusters/EDIP-Nigel-Params/Higher-Symm/Box-15A/Only-C60/SD-CG/HFTN-CG
REM
REM
REM
REM
REM
REM ./C.cell (414f73aa93bd7a1190c7fd0f31ff2f98)
REM
REM compiler GCC version 9.2.1 20190827 (Red Hat 9.2.1-1)
REM options -cpp -mtune=generic -march=x86-64 -g -O0 -fpre-include=/usr/include/finclude/math-vector-fortran.h
REM seed -741419551 -916377461 1334003339 -31376822 -67086477 130456657 -1678382187 -1591801663 -417337841 -1143555545 -2092644338 1959680403 -1265745606 -911911296 839998057 1802518564 1170271297 -1470710367 711802074 849847788 -1287220295 2030242628 992180566 -455747234 -205001174 -1254501846 -339182128 -2068698719 -1920089393 245788829 -815634209 -1358272924 768293933
REM
CELL 1.54180   50.00000   50.00000   50.00000   90.00000   90.00000   90.00000
LATT -1
SFAC C  
C      1  0.5247170000000  0.4802150000000  0.4834800000000 1.0
C      1  0.5104030000000  0.4831290000000  0.5184050000000 1.0
C      1  0.5234280000000  0.5110700000000  0.5135960000000 1.0
C      1  0.5137040000000  0.5177030000000  0.4845470000000 1.0
C      1  0.5670350000000  0.5309610000000  0.5344450000000 1.0
C      1  0.5597530000000  0.5344960000000  0.4686620000000 1.0
C      1  0.5679560000000  0.4681110000000  0.4609620000000 1.0
C      1  0.5654030000000  0.4618160000000  0.5350650000000 1.0
C      1  0.4631590000000  0.5275600000000  0.5500160000000 1.0
C      1  0.4561130000000  0.5544320000000  0.4712830000000 1.0
C      1  0.4607920000000  0.4731360000000  0.4469080000000 1.0
C      1  0.4579100000000  0.4447240000000  0.5262450000000 1.0
C      1  0.4265710000000  0.4954710000000  0.4773450000000 1.0
C      1  0.4275560000000  0.4787490000000  0.5033460000000 1.0
C      1  0.4305790000000  0.5044230000000  0.5200990000000 1.0
C      1  0.4207390000000  0.5216500000000  0.4952610000000 1.0
C      1  0.5417800000000  0.5730060000000  0.4929090000000 1.0
C      1  0.5423020000000  0.4979080000000  0.4308510000000 1.0
C      1  0.5430790000000  0.4304080000000  0.5067680000000 1.0
C      1  0.5447760000000  0.4972580000000  0.5621380000000 1.0
C      1  0.5675010000000  0.4821270000000  0.5164250000000 1.0
C      1  0.5544580000000  0.5119940000000  0.5161660000000 1.0
C      1  0.5650670000000  0.5133950000000  0.4856090000000 1.0
C      1  0.5560790000000  0.4817510000000  0.4838210000000 1.0
C      1  0.4604100000000  0.5107790000000  0.5253340000000 1.0
C      1  0.4388290000000  0.5449720000000  0.4927590000000 1.0
C      1  0.4534830000000  0.4955930000000  0.4642120000000 1.0
C      1  0.4516560000000  0.4620150000000  0.5033600000000 1.0
C      1  0.5432680000000  0.5564600000000  0.4684860000000 1.0
C      1  0.5481220000000  0.4710050000000  0.4413910000000 1.0
C      1  0.5484740000000  0.4401800000000  0.5339040000000 1.0
C      1  0.5553450000000  0.5249090000000  0.5589180000000 1.0
C      1  0.4762640000000  0.5276820000000  0.4298170000000 1.0
C      1  0.4819820000000  0.4306640000000  0.4722700000000 1.0
C      1  0.4816150000000  0.4709500000000  0.5635680000000 1.0
C      1  0.4759960000000  0.5734310000000  0.5284180000000 1.0
C      1  0.5197290000000  0.4757940000000  0.4536890000000 1.0
C      1  0.5195700000000  0.4482600000000  0.5328600000000 1.0
C      1  0.5265420000000  0.5313160000000  0.5610960000000 1.0
C      1  0.5151870000000  0.5484660000000  0.4786040000000 1.0
C      1  0.4626320000000  0.5360810000000  0.4513760000000 1.0
C      1  0.4684240000000  0.4501050000000  0.4599130000000 1.0
C      1  0.4636840000000  0.4555740000000  0.5510100000000 1.0
C      1  0.4675410000000  0.5545630000000  0.5455570000000 1.0
C      1  0.5163260000000  0.5038660000000  0.5568780000000 1.0
C      1  0.5165300000000  0.5641750000000  0.5056990000000 1.0
C      1  0.5156120000000  0.5044140000000  0.4421190000000 1.0
C      1  0.5163380000000  0.4421610000000  0.5030710000000 1.0
C      1  0.4775790000000  0.4818250000000  0.4267290000000 1.0
C      1  0.4751940000000  0.4249130000000  0.5177130000000 1.0
C      1  0.4738900000000  0.5155160000000  0.5724390000000 1.0
C      1  0.4771410000000  0.5699550000000  0.4814660000000 1.0
C      1  0.4935920000000  0.4253480000000  0.4968020000000 1.0
C      1  0.4926290000000  0.4951840000000  0.5709490000000 1.0
C      1  0.4906940000000  0.5769370000000  0.5050240000000 1.0
C      1  0.4921840000000  0.5055320000000  0.4250820000000 1.0
C      1  0.4703150000000  0.5275790000000  0.5035600000000 1.0
C      1  0.4834740000000  0.5126410000000  0.4821110000000 1.0
C      1  0.4811360000000  0.4816150000000  0.4876860000000 1.0
C      1  0.4777480000000  0.4840470000000  0.5217810000000 1.0
END
