TITL C-8705-8172-212 7.04440955548891e-06 125000 -360.459526252172 0 0 60 (C2) n - 1
REM
REM in /home/bkarasulu/CARBON/AIRSS/Generating-Clusters/EDIP-Nigel-Params/Higher-Symm/Box-15A/Only-C60/SD-CG/HFTN-CG
REM
REM
REM
REM
REM
REM ./C.cell (414f73aa93bd7a1190c7fd0f31ff2f98)
REM
REM compiler GCC version 9.2.1 20190827 (Red Hat 9.2.1-1)
REM options -cpp -mtune=generic -march=x86-64 -g -O0 -fpre-include=/usr/include/finclude/math-vector-fortran.h
REM seed 143303063 -1253979847 1791464194 1072909527 1798332361 1152911330 -1171801073 -59161463 -1293365043 -347996684 976529310 1501637385 946151268 560657290 -782090640 -831427640 436023013 -1313566639 -1390650698 -1208683978 -1254850708 1862917716 1382044910 8726367 709930041 1931398518 1190487440 1118388984 284558064 115557679 -1282875319 1676003950 1816806183
REM
CELL 1.54180   50.00000   50.00000   50.00000   90.00000   90.00000   90.00000
LATT -1
SFAC C  
C      1  0.5527020000000  0.5326310000000  0.5135390000000 1.0
C      1  0.5542210000000  0.5141880000000  0.4663630000000 1.0
C      1  0.5527040000000  0.4673720000000  0.4864610000000 1.0
C      1  0.5542220000000  0.4858140000000  0.5336360000000 1.0
C      1  0.5629950000000  0.4652060000000  0.5141860000000 1.0
C      1  0.5629210000000  0.4856030000000  0.4652470000000 1.0
C      1  0.5629940000000  0.5347970000000  0.4858130000000 1.0
C      1  0.5629200000000  0.5144000000000  0.5347530000000 1.0
C      1  0.4946310000000  0.4372780000000  0.5353170000000 1.0
C      1  0.4916920000000  0.5312210000000  0.5583890000000 1.0
C      1  0.4946280000000  0.5627220000000  0.4646830000000 1.0
C      1  0.4916930000000  0.4687790000000  0.4416110000000 1.0
C      1  0.4891730000000  0.5601240000000  0.5332230000000 1.0
C      1  0.4924060000000  0.4618770000000  0.5648530000000 1.0
C      1  0.4891760000000  0.4398750000000  0.4667770000000 1.0
C      1  0.4924040000000  0.5381220000000  0.4351470000000 1.0
C      1  0.5193040000000  0.5242060000000  0.4348160000000 1.0
C      1  0.5167110000000  0.4324360000000  0.4755850000000 1.0
C      1  0.5193060000000  0.4757950000000  0.5651840000000 1.0
C      1  0.5167090000000  0.5675650000000  0.5244150000000 1.0
C      1  0.5204700000000  0.4760370000000  0.4355870000000 1.0
C      1  0.5207190000000  0.5651030000000  0.4772110000000 1.0
C      1  0.5204700000000  0.5239640000000  0.5644130000000 1.0
C      1  0.5207220000000  0.4348980000000  0.5227880000000 1.0
C      1  0.4701590000000  0.4469630000000  0.4889330000000 1.0
C      1  0.4704210000000  0.4819150000000  0.5600870000000 1.0
C      1  0.4701570000000  0.5530350000000  0.5110670000000 1.0
C      1  0.4704200000000  0.5180830000000  0.4399140000000 1.0
C      1  0.4717440000000  0.5570120000000  0.4818970000000 1.0
C      1  0.4732670000000  0.5096300000000  0.5497970000000 1.0
C      1  0.4717470000000  0.4429870000000  0.5181030000000 1.0
C      1  0.4732670000000  0.4903690000000  0.4502030000000 1.0
C      1  0.5490600000000  0.5312110000000  0.5572090000000 1.0
C      1  0.5491090000000  0.5577170000000  0.4692510000000 1.0
C      1  0.5490610000000  0.4687910000000  0.4427900000000 1.0
C      1  0.5491120000000  0.4422850000000  0.5307490000000 1.0
C      1  0.5465480000000  0.4704010000000  0.5571870000000 1.0
C      1  0.5429010000000  0.4441580000000  0.4716370000000 1.0
C      1  0.5465470000000  0.5296010000000  0.4428130000000 1.0
C      1  0.5428990000000  0.5558440000000  0.5283620000000 1.0
C      1  0.5073350000000  0.5156030000000  0.4634790000000 1.0
C      1  0.5087670000000  0.4672720000000  0.4863980000000 1.0
C      1  0.5073360000000  0.4843970000000  0.5365210000000 1.0
C      1  0.5087650000000  0.5327280000000  0.5136020000000 1.0
C      1  0.5193240000000  0.4874320000000  0.4653790000000 1.0
C      1  0.5195860000000  0.5347620000000  0.4846890000000 1.0
C      1  0.5193240000000  0.5125690000000  0.5346210000000 1.0
C      1  0.5195880000000  0.4652380000000  0.5153110000000 1.0
C      1  0.4454640000000  0.5486020000000  0.4712290000000 1.0
C      1  0.4484340000000  0.4843830000000  0.4639990000000 1.0
C      1  0.4454660000000  0.4513950000000  0.5287720000000 1.0
C      1  0.4484340000000  0.5156140000000  0.5360010000000 1.0
C      1  0.4467310000000  0.4631800000000  0.4838060000000 1.0
C      1  0.4442510000000  0.5283750000000  0.4497150000000 1.0
C      1  0.4467300000000  0.5368180000000  0.5161940000000 1.0
C      1  0.4442530000000  0.4716230000000  0.5502850000000 1.0
C      1  0.4306670000000  0.4656800000000  0.5078060000000 1.0
C      1  0.4308320000000  0.4928840000000  0.5349580000000 1.0
C      1  0.4306650000000  0.5343160000000  0.4921940000000 1.0
C      1  0.4308320000000  0.5071120000000  0.4650430000000 1.0
END
