TITL C-8704-7456-240 2.31749864010523e-05 125000 -371.970712237752 0 0 60 (Td) n - 1
REM
REM in /home/bkarasulu/CARBON/AIRSS/Generating-Clusters/EDIP-Nigel-Params/Higher-Symm/Box-15A/Only-C60/SD-CG/HFTN-CG
REM
REM
REM
REM
REM
REM ./C.cell (414f73aa93bd7a1190c7fd0f31ff2f98)
REM
REM compiler GCC version 9.2.1 20190827 (Red Hat 9.2.1-1)
REM options -cpp -mtune=generic -march=x86-64 -g -O0 -fpre-include=/usr/include/finclude/math-vector-fortran.h
REM seed 653654362 -2093346676 252235593 -385382544 -1180068585 -1718543692 637454942 -2060761827 81434235 -1531915896 -803973987 339706827 -1323527240 -1495706605 24746731 726306930 -968400407 -532750332 -161600591 -1704810392 -887606530 -2028277324 -1978284612 487539750 1425499976 963596249 -1727902907 -873411306 -1579565572 -2034056274 736469492 -1834146127 -563468534
REM
CELL 1.54180   50.00000   50.00000   50.00000   90.00000   90.00000   90.00000
LATT -1
SFAC C  
C      1  0.5190150000000  0.4608520000000  0.5592750000000 1.0
C      1  0.5592750000000  0.5190140000000  0.4608510000000 1.0
C      1  0.4608520000000  0.5592760000000  0.5190150000000 1.0
C      1  0.4809840000000  0.4608510000000  0.4407260000000 1.0
C      1  0.5190160000000  0.5391480000000  0.4407250000000 1.0
C      1  0.4809850000000  0.5391500000000  0.5592740000000 1.0
C      1  0.4407250000000  0.5190170000000  0.5391480000000 1.0
C      1  0.5592740000000  0.4809840000000  0.5391490000000 1.0
C      1  0.4407250000000  0.4809850000000  0.4608510000000 1.0
C      1  0.5391500000000  0.5592740000000  0.4809840000000 1.0
C      1  0.4608500000000  0.4407260000000  0.4809850000000 1.0
C      1  0.5391480000000  0.4407250000000  0.5190160000000 1.0
C      1  0.5592740000000  0.4608510000000  0.5190160000000 1.0
C      1  0.4608510000000  0.5190170000000  0.5592750000000 1.0
C      1  0.5190160000000  0.5592740000000  0.4608510000000 1.0
C      1  0.4407250000000  0.4608520000000  0.4809850000000 1.0
C      1  0.4407260000000  0.5391500000000  0.5190150000000 1.0
C      1  0.5592750000000  0.5391480000000  0.4809840000000 1.0
C      1  0.5391490000000  0.5190140000000  0.4407250000000 1.0
C      1  0.5391480000000  0.4809850000000  0.5592750000000 1.0
C      1  0.4608510000000  0.4809850000000  0.4407250000000 1.0
C      1  0.4809850000000  0.5592760000000  0.5391480000000 1.0
C      1  0.4809840000000  0.4407250000000  0.4608520000000 1.0
C      1  0.5190140000000  0.4407250000000  0.5391490000000 1.0
C      1  0.4625890000000  0.4227880000000  0.5017940000000 1.0
C      1  0.5017930000000  0.4625890000000  0.4227880000000 1.0
C      1  0.4227880000000  0.5017940000000  0.4625900000000 1.0
C      1  0.5374090000000  0.4227870000000  0.4982070000000 1.0
C      1  0.4625910000000  0.5772130000000  0.4982060000000 1.0
C      1  0.5374110000000  0.5772120000000  0.5017930000000 1.0
C      1  0.4982060000000  0.4625910000000  0.5772130000000 1.0
C      1  0.5017940000000  0.5374110000000  0.5772120000000 1.0
C      1  0.4982070000000  0.5374090000000  0.4227870000000 1.0
C      1  0.5772120000000  0.5017930000000  0.5374100000000 1.0
C      1  0.4227880000000  0.4982080000000  0.5374100000000 1.0
C      1  0.5772120000000  0.4982050000000  0.4625900000000 1.0
C      1  0.5017930000000  0.4227870000000  0.4625910000000 1.0
C      1  0.4227870000000  0.4625910000000  0.5017940000000 1.0
C      1  0.4625900000000  0.5017930000000  0.4227880000000 1.0
C      1  0.4982050000000  0.4227880000000  0.5374110000000 1.0
C      1  0.4982080000000  0.5772120000000  0.4625890000000 1.0
C      1  0.5017940000000  0.5772120000000  0.5374090000000 1.0
C      1  0.5772120000000  0.4625890000000  0.4982070000000 1.0
C      1  0.5772130000000  0.5374090000000  0.5017930000000 1.0
C      1  0.4227880000000  0.5374110000000  0.4982060000000 1.0
C      1  0.5374100000000  0.5017940000000  0.5772120000000 1.0
C      1  0.5374100000000  0.4982050000000  0.4227880000000 1.0
C      1  0.4625900000000  0.4982080000000  0.5772120000000 1.0
C      1  0.5231240000000  0.4158100000000  0.4768760000000 1.0
C      1  0.5841890000000  0.4768740000000  0.4768760000000 1.0
C      1  0.4768760000000  0.5841890000000  0.4768740000000 1.0
C      1  0.4768750000000  0.4768760000000  0.5841890000000 1.0
C      1  0.4158100000000  0.4768770000000  0.5231250000000 1.0
C      1  0.5841890000000  0.5231240000000  0.5231250000000 1.0
C      1  0.4158110000000  0.5231260000000  0.4768750000000 1.0
C      1  0.4768740000000  0.4158110000000  0.5231260000000 1.0
C      1  0.5231250000000  0.4768740000000  0.4158110000000 1.0
C      1  0.4768760000000  0.5231240000000  0.4158110000000 1.0
C      1  0.5231260000000  0.5841890000000  0.5231240000000 1.0
C      1  0.5231250000000  0.5231250000000  0.5841890000000 1.0
END
