TITL C-8704-7456-279 -4.01444582603255e-06 125000 -357.086418857819 0 0 60 (Ci) n - 1
REM
REM in /home/bkarasulu/CARBON/AIRSS/Generating-Clusters/EDIP-Nigel-Params/Higher-Symm/Box-15A/Only-C60/SD-CG/HFTN-CG
REM
REM
REM
REM
REM
REM ./C.cell (414f73aa93bd7a1190c7fd0f31ff2f98)
REM
REM compiler GCC version 9.2.1 20190827 (Red Hat 9.2.1-1)
REM options -cpp -mtune=generic -march=x86-64 -g -O0 -fpre-include=/usr/include/finclude/math-vector-fortran.h
REM seed -1354167405 1720710339 315834218 362379563 -56216506 -2074247830 642652431 -790782593 -1656981125 1420691118 1029424615 -1241950648 1952809723 342226396 -236034774 2074790015 508082536 -1188128595 407926214 -2119082110 445060129 417473245 -2013312629 2100511193 -170421382 -1001348386 933409021 -1329548840 -205528871 522778367 -93217273 304485914 1572553155
REM
CELL 1.54180   50.00000   50.00000   50.00000   90.00000   90.00000   90.00000
LATT -1
SFAC C  
C      1  0.5684380000000  0.5356330000000  0.4872970000000 1.0
C      1  0.5757390000000  0.4873010000000  0.5123440000000 1.0
C      1  0.5541720000000  0.4460280000000  0.4872030000000 1.0
C      1  0.5113960000000  0.4243650000000  0.5125010000000 1.0
C      1  0.4656140000000  0.4316940000000  0.4871030000000 1.0
C      1  0.4315620000000  0.4643670000000  0.5127030000000 1.0
C      1  0.4242610000000  0.5126990000000  0.4876560000000 1.0
C      1  0.4458280000000  0.5539720000000  0.5127970000000 1.0
C      1  0.4886040000000  0.5756350000000  0.4874990000000 1.0
C      1  0.5343860000000  0.5683060000000  0.5128970000000 1.0
C      1  0.4676390000000  0.4318250000000  0.5158290000000 1.0
C      1  0.4279350000000  0.4642010000000  0.4844640000000 1.0
C      1  0.4206790000000  0.5133160000000  0.5159110000000 1.0
C      1  0.4466380000000  0.5510330000000  0.4841340000000 1.0
C      1  0.4878150000000  0.5791590000000  0.5157830000000 1.0
C      1  0.5323610000000  0.5681750000000  0.4841710000000 1.0
C      1  0.5720650000000  0.5357990000000  0.5155360000000 1.0
C      1  0.5793210000000  0.4866840000000  0.4840890000000 1.0
C      1  0.5533620000000  0.4489670000000  0.5158660000000 1.0
C      1  0.5121850000000  0.4208410000000  0.4842170000000 1.0
C      1  0.5327200000000  0.4329060000000  0.5306460000000 1.0
C      1  0.4876840000000  0.4262440000000  0.4690280000000 1.0
C      1  0.4463500000000  0.4468340000000  0.5308240000000 1.0
C      1  0.4256580000000  0.4896120000000  0.4698260000000 1.0
C      1  0.4333610000000  0.5350510000000  0.5310480000000 1.0
C      1  0.4672800000000  0.5670940000000  0.4693540000000 1.0
C      1  0.5123160000000  0.5737560000000  0.5309720000000 1.0
C      1  0.5536500000000  0.5531660000000  0.4691760000000 1.0
C      1  0.5743420000000  0.5103880000000  0.5301740000000 1.0
C      1  0.5666390000000  0.4649490000000  0.4689520000000 1.0
C      1  0.4688360000000  0.5295650000000  0.4924990000000 1.0
C      1  0.4924680000000  0.5427750000000  0.5070480000000 1.0
C      1  0.5188690000000  0.5390090000000  0.4920990000000 1.0
C      1  0.5387180000000  0.5204670000000  0.5066420000000 1.0
C      1  0.5433440000000  0.4938220000000  0.4923470000000 1.0
C      1  0.5311640000000  0.4704350000000  0.5075010000000 1.0
C      1  0.5075320000000  0.4572250000000  0.4929520000000 1.0
C      1  0.4811310000000  0.4609910000000  0.5079010000000 1.0
C      1  0.4612820000000  0.4795330000000  0.4933580000000 1.0
C      1  0.4566560000000  0.5061780000000  0.5076530000000 1.0
C      1  0.5470820000000  0.4770570000000  0.4528640000000 1.0
C      1  0.5228690000000  0.4525080000000  0.5481160000000 1.0
C      1  0.4929000000000  0.4488910000000  0.4533670000000 1.0
C      1  0.4625120000000  0.4625330000000  0.5475740000000 1.0
C      1  0.4487600000000  0.4915320000000  0.4539600000000 1.0
C      1  0.4529180000000  0.5229430000000  0.5471360000000 1.0
C      1  0.4771310000000  0.5474920000000  0.4518840000000 1.0
C      1  0.5071000000000  0.5511090000000  0.5466330000000 1.0
C      1  0.5374880000000  0.5374670000000  0.4524260000000 1.0
C      1  0.5512400000000  0.5084680000000  0.5460400000000 1.0
C      1  0.4761570000000  0.4962270000000  0.4553290000000 1.0
C      1  0.4775920000000  0.5101990000000  0.5460190000000 1.0
C      1  0.4889360000000  0.5223120000000  0.4541350000000 1.0
C      1  0.5029770000000  0.5236820000000  0.5451780000000 1.0
C      1  0.5175150000000  0.5181350000000  0.4535090000000 1.0
C      1  0.5238430000000  0.5037730000000  0.5446710000000 1.0
C      1  0.5224080000000  0.4898010000000  0.4539810000000 1.0
C      1  0.5110640000000  0.4776880000000  0.5458650000000 1.0
C      1  0.4970230000000  0.4763180000000  0.4548220000000 1.0
C      1  0.4824850000000  0.4818650000000  0.5464910000000 1.0
END
