TITL C-8704-7456-128 -8.21883099941855e-07 125000 -358.73651963943 0 0 60 (C3) n - 1
REM
REM in /home/bkarasulu/CARBON/AIRSS/Generating-Clusters/EDIP-Nigel-Params/Higher-Symm/Box-15A/Only-C60/SD-CG/HFTN-CG
REM
REM
REM
REM
REM
REM ./C.cell (414f73aa93bd7a1190c7fd0f31ff2f98)
REM
REM compiler GCC version 9.2.1 20190827 (Red Hat 9.2.1-1)
REM options -cpp -mtune=generic -march=x86-64 -g -O0 -fpre-include=/usr/include/finclude/math-vector-fortran.h
REM seed 297386534 1944414021 -560848828 547396449 39077247 -1363528935 -456732118 361694524 996551379 -973883393 -525946084 -1386251089 -133070599 1336889008 -1983884174 730189538 -1617251414 111503975 1907148470 -1726719813 358398833 -1905567725 1588792041 1732878740 1919967494 1151620975 17842815 949631866 1692646854 1164543113 -1832381217 -1744931594 -178241352
REM
CELL 1.54180   50.00000   50.00000   50.00000   90.00000   90.00000   90.00000
LATT -1
SFAC C  
C      1  0.4408380000000  0.4850620000000  0.5293640000000 1.0
C      1  0.5043910000000  0.4852500000000  0.4340560000000 1.0
C      1  0.5551490000000  0.4860840000000  0.5367470000000 1.0
C      1  0.4753230000000  0.5367720000000  0.5367730000000 1.0
C      1  0.4798920000000  0.5365190000000  0.4603090000000 1.0
C      1  0.5438250000000  0.5372360000000  0.5024950000000 1.0
C      1  0.4772890000000  0.4505620000000  0.5321740000000 1.0
C      1  0.4843000000000  0.4503630000000  0.4641560000000 1.0
C      1  0.5396980000000  0.4509970000000  0.5042350000000 1.0
C      1  0.5364710000000  0.5062310000000  0.5188840000000 1.0
C      1  0.4653140000000  0.5056250000000  0.5221550000000 1.0
C      1  0.4980620000000  0.5056680000000  0.4588940000000 1.0
C      1  0.5696010000000  0.5407000000000  0.5407780000000 1.0
C      1  0.4292310000000  0.5394770000000  0.5399620000000 1.0
C      1  0.5001260000000  0.5396300000000  0.4188020000000 1.0
C      1  0.5224760000000  0.5503040000000  0.4291910000000 1.0
C      1  0.5492590000000  0.5510170000000  0.5549580000000 1.0
C      1  0.4269520000000  0.5498020000000  0.5152740000000 1.0
C      1  0.5086590000000  0.4372040000000  0.4684280000000 1.0
C      1  0.5240380000000  0.4375470000000  0.5231710000000 1.0
C      1  0.4689400000000  0.4370150000000  0.5091200000000 1.0
C      1  0.5228740000000  0.5558720000000  0.5547090000000 1.0
C      1  0.4402780000000  0.5549170000000  0.4925560000000 1.0
C      1  0.5354020000000  0.5555890000000  0.4520990000000 1.0
C      1  0.5701590000000  0.5347280000000  0.5136010000000 1.0
C      1  0.4525830000000  0.5338610000000  0.5540220000000 1.0
C      1  0.4763700000000  0.5336010000000  0.4319860000000 1.0
C      1  0.4809340000000  0.4686500000000  0.4412940000000 1.0
C      1  0.5608790000000  0.4696190000000  0.5127840000000 1.0
C      1  0.4589950000000  0.4688610000000  0.5462770000000 1.0
C      1  0.5051100000000  0.4511130000000  0.5384060000000 1.0
C      1  0.4649880000000  0.4505610000000  0.4851350000000 1.0
C      1  0.5311820000000  0.4511050000000  0.4770210000000 1.0
C      1  0.4699050000000  0.4866750000000  0.5670070000000 1.0
C      1  0.4572380000000  0.4860810000000  0.4404110000000 1.0
C      1  0.5732040000000  0.4872890000000  0.4927350000000 1.0
C      1  0.4995840000000  0.4880220000000  0.5701250000000 1.0
C      1  0.4396800000000  0.4870980000000  0.4645570000000 1.0
C      1  0.5610550000000  0.4881560000000  0.4654580000000 1.0
C      1  0.5122370000000  0.5124150000000  0.5626870000000 1.0
C      1  0.4393970000000  0.5114630000000  0.4792780000000 1.0
C      1  0.5480510000000  0.5123260000000  0.4578970000000 1.0
C      1  0.5405950000000  0.5510730000000  0.4781950000000 1.0
C      1  0.4977540000000  0.5509600000000  0.5461510000000 1.0
C      1  0.4603260000000  0.5503630000000  0.4750730000000 1.0
C      1  0.4290170000000  0.4706930000000  0.5081300000000 1.0
C      1  0.5289220000000  0.4712790000000  0.4344080000000 1.0
C      1  0.5428100000000  0.4718720000000  0.5577900000000 1.0
C      1  0.5235710000000  0.5106360000000  0.4732840000000 1.0
C      1  0.5111780000000  0.5107600000000  0.5337900000000 1.0
C      1  0.4649760000000  0.5102020000000  0.4928050000000 1.0
C      1  0.5454080000000  0.4649600000000  0.4563430000000 1.0
C      1  0.5156790000000  0.4651020000000  0.5610900000000 1.0
C      1  0.4398330000000  0.4641440000000  0.4829720000000 1.0
C      1  0.5824240000000  0.5115750000000  0.5038320000000 1.0
C      1  0.4552900000000  0.5107200000000  0.5694870000000 1.0
C      1  0.4620040000000  0.5102330000000  0.4265570000000 1.0
C      1  0.5210900000000  0.4896200000000  0.4959550000000 1.0
C      1  0.4931300000000  0.4894700000000  0.5202690000000 1.0
C      1  0.4860550000000  0.4892700000000  0.4838970000000 1.0
END
