TITL C-8705-8172-143 -3.71321509621362e-06 125000 -357.115401855474 0 0 60 (C1) n - 1
REM
REM in /home/bkarasulu/CARBON/AIRSS/Generating-Clusters/EDIP-Nigel-Params/Higher-Symm/Box-15A/Only-C60/SD-CG/HFTN-CG
REM
REM
REM
REM
REM
REM ./C.cell (414f73aa93bd7a1190c7fd0f31ff2f98)
REM
REM compiler GCC version 9.2.1 20190827 (Red Hat 9.2.1-1)
REM options -cpp -mtune=generic -march=x86-64 -g -O0 -fpre-include=/usr/include/finclude/math-vector-fortran.h
REM seed 801671787 -636785207 -379368351 559453716 817848620 929354806 -716456965 940599307 2070690091 -176295692 -1528282613 -1957018439 1084526869 -359388405 1341505182 707813699 -64531901 -1256665780 682469039 -480307762 2070630027 -1244358934 1247942820 -1331151976 -505659036 1409887825 1706667756 -728014292 815006042 -1943580254 41340326 1021339545 1943885262
REM
CELL 1.54180   50.00000   50.00000   50.00000   90.00000   90.00000   90.00000
LATT -1
SFAC C  
C      1  0.5388100000000  0.5086860000000  0.4439990000000 1.0
C      1  0.5391910000000  0.5453410000000  0.5307540000000 1.0
C      1  0.5367420000000  0.4498700000000  0.5231780000000 1.0
C      1  0.5158570000000  0.5170600000000  0.5632650000000 1.0
C      1  0.5136140000000  0.4368720000000  0.4791570000000 1.0
C      1  0.5142400000000  0.5495290000000  0.4593010000000 1.0
C      1  0.5540720000000  0.5548310000000  0.4804280000000 1.0
C      1  0.5523730000000  0.4917880000000  0.5549140000000 1.0
C      1  0.5502880000000  0.4586160000000  0.4634260000000 1.0
C      1  0.5131900000000  0.4480710000000  0.5426120000000 1.0
C      1  0.5139920000000  0.4908070000000  0.4354350000000 1.0
C      1  0.5147060000000  0.5602730000000  0.5228940000000 1.0
C      1  0.4398820000000  0.5046010000000  0.5415350000000 1.0
C      1  0.4446020000000  0.4450210000000  0.4889630000000 1.0
C      1  0.4427590000000  0.5385030000000  0.4655020000000 1.0
C      1  0.4805010000000  0.5527900000000  0.5387100000000 1.0
C      1  0.4885790000000  0.4421300000000  0.5251040000000 1.0
C      1  0.4865880000000  0.5083030000000  0.4387450000000 1.0
C      1  0.5308580000000  0.5354070000000  0.4412380000000 1.0
C      1  0.5349690000000  0.5370840000000  0.5570410000000 1.0
C      1  0.5308170000000  0.4330250000000  0.5014020000000 1.0
C      1  0.4579450000000  0.5561300000000  0.4803510000000 1.0
C      1  0.4527040000000  0.4843800000000  0.5551130000000 1.0
C      1  0.4491270000000  0.4422180000000  0.4619750000000 1.0
C      1  0.4456040000000  0.5116720000000  0.4591070000000 1.0
C      1  0.4427640000000  0.5282770000000  0.5275860000000 1.0
C      1  0.4480980000000  0.4565420000000  0.5140310000000 1.0
C      1  0.5280440000000  0.4442140000000  0.4544990000000 1.0
C      1  0.5299780000000  0.5686590000000  0.4747870000000 1.0
C      1  0.5280190000000  0.4909240000000  0.5691070000000 1.0
C      1  0.5072050000000  0.4705730000000  0.5615960000000 1.0
C      1  0.5087000000000  0.4598390000000  0.4379570000000 1.0
C      1  0.5126060000000  0.5768600000000  0.4981730000000 1.0
C      1  0.5210890000000  0.5087120000000  0.5005940000000 1.0
C      1  0.5124210000000  0.4868530000000  0.5214090000000 1.0
C      1  0.5131240000000  0.4868940000000  0.4725040000000 1.0
C      1  0.4586580000000  0.5059560000000  0.4346050000000 1.0
C      1  0.4528920000000  0.5502490000000  0.5419950000000 1.0
C      1  0.4613330000000  0.4402350000000  0.5336540000000 1.0
C      1  0.4627930000000  0.4886070000000  0.5805470000000 1.0
C      1  0.4697490000000  0.4280500000000  0.4498740000000 1.0
C      1  0.4700800000000  0.5780690000000  0.4683550000000 1.0
C      1  0.5009500000000  0.5329160000000  0.4793510000000 1.0
C      1  0.4996910000000  0.5081720000000  0.5392270000000 1.0
C      1  0.4980140000000  0.4625290000000  0.4816650000000 1.0
C      1  0.4845830000000  0.5821130000000  0.4915470000000 1.0
C      1  0.4817800000000  0.4691790000000  0.5756240000000 1.0
C      1  0.4806690000000  0.4524190000000  0.4420940000000 1.0
C      1  0.5603070000000  0.5284990000000  0.4880700000000 1.0
C      1  0.5599010000000  0.4975650000000  0.5286710000000 1.0
C      1  0.5552800000000  0.4788380000000  0.4818730000000 1.0
C      1  0.5487180000000  0.4759650000000  0.5115990000000 1.0
C      1  0.5529430000000  0.5054550000000  0.4702030000000 1.0
C      1  0.5470830000000  0.5213910000000  0.5135890000000 1.0
C      1  0.4902390000000  0.5078690000000  0.4686690000000 1.0
C      1  0.4896160000000  0.5303540000000  0.5215270000000 1.0
C      1  0.4909340000000  0.4684590000000  0.5098710000000 1.0
C      1  0.4633760000000  0.4828540000000  0.5123000000000 1.0
C      1  0.4630500000000  0.5011640000000  0.4813340000000 1.0
C      1  0.4633010000000  0.5217360000000  0.5073650000000 1.0
END
