TITL C-8702-7969-108 -0.0001064638920102 125000 -349.565029558786 0 0 60 (C3h) n - 1
REM
REM in /home/bkarasulu/CARBON/AIRSS/Generating-Clusters/EDIP-Nigel-Params/Higher-Symm/Box-15A/Only-C60/SD-CG/HFTN-CG
REM
REM
REM
REM
REM
REM ./C.cell (414f73aa93bd7a1190c7fd0f31ff2f98)
REM
REM compiler GCC version 9.2.1 20190827 (Red Hat 9.2.1-1)
REM options -cpp -mtune=generic -march=x86-64 -g -O0 -fpre-include=/usr/include/finclude/math-vector-fortran.h
REM seed -1252553379 -804346826 -805933068 -1498192006 -940928103 -1121346306 -1061491950 53575487 218088965 -1864786320 -2112773446 747341038 1959208137 -899424097 2116921350 -2042285404 800424919 -2063089535 940949364 1681412580 1929761183 -560324539 122917747 803283796 194437520 306651590 543887169 -348060775 2102349657 428172466 876704792 1179357342 69208471
REM
CELL 1.54180   50.00000   50.00000   50.00000   90.00000   90.00000   90.00000
LATT -1
SFAC C  
C      1  0.5376720000000  0.5076230000000  0.4251240000000 1.0
C      1  0.4752140000000  0.5295160000000  0.4251790000000 1.0
C      1  0.4874840000000  0.4644810000000  0.4247310000000 1.0
C      1  0.5374250000000  0.5065430000000  0.5751020000000 1.0
C      1  0.4749670000000  0.5284360000000  0.5751570000000 1.0
C      1  0.4872370000000  0.4634010000000  0.5747080000000 1.0
C      1  0.5617870000000  0.5056770000000  0.4767380000000 1.0
C      1  0.4643930000000  0.5508890000000  0.4769030000000 1.0
C      1  0.4739360000000  0.4439400000000  0.4761490000000 1.0
C      1  0.5617100000000  0.5053400000000  0.5235450000000 1.0
C      1  0.4643160000000  0.5505520000000  0.5237100000000 1.0
C      1  0.4738580000000  0.4436030000000  0.5229550000000 1.0
C      1  0.5230690000000  0.5257300000000  0.5305080000000 1.0
C      1  0.4659180000000  0.5068290000000  0.5302770000000 1.0
C      1  0.5108630000000  0.4667860000000  0.5300630000000 1.0
C      1  0.5231690000000  0.5261670000000  0.4699420000000 1.0
C      1  0.4660170000000  0.5072650000000  0.4697120000000 1.0
C      1  0.5109630000000  0.4672220000000  0.4694980000000 1.0
C      1  0.5479650000000  0.4516970000000  0.5151220000000 1.0
C      1  0.5177160000000  0.5655440000000  0.5158920000000 1.0
C      1  0.4342440000000  0.4824260000000  0.5151550000000 1.0
C      1  0.5480150000000  0.4519190000000  0.4843430000000 1.0
C      1  0.5177660000000  0.5657660000000  0.4851130000000 1.0
C      1  0.4342940000000  0.4826480000000  0.4843760000000 1.0
C      1  0.4977140000000  0.5408450000000  0.5636910000000 1.0
C      1  0.4652180000000  0.4770040000000  0.5631770000000 1.0
C      1  0.5367550000000  0.4807820000000  0.5633230000000 1.0
C      1  0.4979230000000  0.5417580000000  0.4368970000000 1.0
C      1  0.4654270000000  0.4779170000000  0.4363840000000 1.0
C      1  0.5369640000000  0.4816950000000  0.4365290000000 1.0
C      1  0.5323980000000  0.5014740000000  0.4849150000000 1.0
C      1  0.4826570000000  0.5274620000000  0.4850200000000 1.0
C      1  0.4850210000000  0.4713920000000  0.4846210000000 1.0
C      1  0.5323480000000  0.5012550000000  0.5152110000000 1.0
C      1  0.4826070000000  0.5272440000000  0.5153160000000 1.0
C      1  0.4849710000000  0.4711740000000  0.5149160000000 1.0
C      1  0.4990530000000  0.4308370000000  0.4668400000000 1.0
C      1  0.5606560000000  0.5340670000000  0.4676840000000 1.0
C      1  0.4404520000000  0.5358010000000  0.4674990000000 1.0
C      1  0.4989460000000  0.4303670000000  0.5321580000000 1.0
C      1  0.5605480000000  0.5335970000000  0.5330030000000 1.0
C      1  0.4403440000000  0.5353310000000  0.5328170000000 1.0
C      1  0.4933750000000  0.5580350000000  0.4635680000000 1.0
C      1  0.4533720000000  0.4655920000000  0.4628360000000 1.0
C      1  0.5534340000000  0.4771690000000  0.4630850000000 1.0
C      1  0.4932540000000  0.5575040000000  0.5372420000000 1.0
C      1  0.4532510000000  0.4650610000000  0.5365100000000 1.0
C      1  0.5533130000000  0.4766390000000  0.5367590000000 1.0
C      1  0.5093000000000  0.4735250000000  0.4410330000000 1.0
C      1  0.5187910000000  0.5218420000000  0.4413960000000 1.0
C      1  0.4722000000000  0.5059030000000  0.4412050000000 1.0
C      1  0.5091060000000  0.4726780000000  0.5586100000000 1.0
C      1  0.5185970000000  0.5209950000000  0.5589740000000 1.0
C      1  0.4720060000000  0.5050570000000  0.5587820000000 1.0
C      1  0.4278880000000  0.5104940000000  0.4754820000000 1.0
C      1  0.5271810000000  0.4325330000000  0.4750840000000 1.0
C      1  0.5450520000000  0.5575010000000  0.4760130000000 1.0
C      1  0.4278070000000  0.5101420000000  0.5244290000000 1.0
C      1  0.5271010000000  0.4321800000000  0.5240310000000 1.0
C      1  0.5449710000000  0.5571490000000  0.5249610000000 1.0
END
