TITL C-8700-8172-31 6.2431194529154e-06 125000 -365.220893408893 0 0 60 (C1) n - 1
REM
REM in /home/bkarasulu/CARBON/AIRSS/Generating-Clusters/EDIP-Nigel-Params/Higher-Symm/Box-15A/Only-C60/SD-CG/HFTN-CG
REM
REM
REM
REM
REM
REM ./C.cell (414f73aa93bd7a1190c7fd0f31ff2f98)
REM
REM compiler GCC version 9.2.1 20190827 (Red Hat 9.2.1-1)
REM options -cpp -mtune=generic -march=x86-64 -g -O0 -fpre-include=/usr/include/finclude/math-vector-fortran.h
REM seed -1422110961 -1236527429 -901210263 -754685345 531368410 1146637705 1349298516 -1340687896 -1759289658 -1814027091 -2011562791 -262556192 -1018083914 -236233127 -2072735899 1184598449 -1510373297 1335284440 164539129 -1491520266 1144533176 1871359505 988660529 -925018586 1841579706 -487308560 -34806414 -735518754 -2089926045 -1886240197 -1731822910 -543027382 1072469837
REM
CELL 1.54180   50.00000   50.00000   50.00000   90.00000   90.00000   90.00000
LATT -1
SFAC C  
C      1  0.5344870000000  0.5015170000000  0.5572710000000 1.0
C      1  0.4651400000000  0.4986670000000  0.5579700000000 1.0
C      1  0.5775020000000  0.5034220000000  0.5364070000000 1.0
C      1  0.4223060000000  0.4962750000000  0.5363900000000 1.0
C      1  0.5667210000000  0.4642150000000  0.4815660000000 1.0
C      1  0.4357170000000  0.5348210000000  0.4814890000000 1.0
C      1  0.5012060000000  0.5342260000000  0.5554670000000 1.0
C      1  0.4988130000000  0.4662820000000  0.5547610000000 1.0
C      1  0.4419440000000  0.5021940000000  0.5134220000000 1.0
C      1  0.5587780000000  0.4976680000000  0.5128320000000 1.0
C      1  0.4559500000000  0.5273970000000  0.5254350000000 1.0
C      1  0.5434640000000  0.4731580000000  0.5242800000000 1.0
C      1  0.4796740000000  0.5373620000000  0.4765070000000 1.0
C      1  0.5172950000000  0.4649490000000  0.4751880000000 1.0
C      1  0.4894420000000  0.5109450000000  0.5688660000000 1.0
C      1  0.5104400000000  0.4893430000000  0.5685090000000 1.0
C      1  0.4896530000000  0.5321070000000  0.4332320000000 1.0
C      1  0.5110630000000  0.4665880000000  0.4352970000000 1.0
C      1  0.5729990000000  0.4920470000000  0.4881820000000 1.0
C      1  0.4294120000000  0.5070230000000  0.4878730000000 1.0
C      1  0.4992380000000  0.5474580000000  0.4558850000000 1.0
C      1  0.4986940000000  0.4501210000000  0.4566190000000 1.0
C      1  0.4625720000000  0.4491920000000  0.4864120000000 1.0
C      1  0.5361770000000  0.5495330000000  0.4869810000000 1.0
C      1  0.4920020000000  0.5142500000000  0.4957220000000 1.0
C      1  0.5053620000000  0.4869020000000  0.4953440000000 1.0
C      1  0.5260520000000  0.4405760000000  0.4903060000000 1.0
C      1  0.4738030000000  0.5624170000000  0.4927540000000 1.0
C      1  0.4646540000000  0.4900610000000  0.4454960000000 1.0
C      1  0.5364340000000  0.5093730000000  0.4453140000000 1.0
C      1  0.4851200000000  0.5228510000000  0.5229300000000 1.0
C      1  0.5141090000000  0.4780910000000  0.5220250000000 1.0
C      1  0.5550190000000  0.4636310000000  0.4560780000000 1.0
C      1  0.4472700000000  0.5385110000000  0.4554130000000 1.0
C      1  0.4390700000000  0.5106720000000  0.5562410000000 1.0
C      1  0.5602330000000  0.4889600000000  0.5556260000000 1.0
C      1  0.4713340000000  0.4550450000000  0.4602650000000 1.0
C      1  0.5266320000000  0.5430180000000  0.4611550000000 1.0
C      1  0.5610720000000  0.5362300000000  0.4915700000000 1.0
C      1  0.4385910000000  0.4636600000000  0.4920570000000 1.0
C      1  0.4768470000000  0.4323660000000  0.5055910000000 1.0
C      1  0.5235770000000  0.5672750000000  0.5066190000000 1.0
C      1  0.5374310000000  0.5717560000000  0.5303350000000 1.0
C      1  0.4641170000000  0.4293070000000  0.5301140000000 1.0
C      1  0.5091940000000  0.5109440000000  0.4284040000000 1.0
C      1  0.4916160000000  0.4876690000000  0.4294600000000 1.0
C      1  0.4315160000000  0.4661920000000  0.5229370000000 1.0
C      1  0.5684690000000  0.5338560000000  0.5222480000000 1.0
C      1  0.5295730000000  0.5296820000000  0.5539950000000 1.0
C      1  0.4704370000000  0.4706550000000  0.5542170000000 1.0
C      1  0.4492040000000  0.5495960000000  0.5047350000000 1.0
C      1  0.5504740000000  0.4510640000000  0.5037310000000 1.0
C      1  0.5381750000000  0.4794130000000  0.4403500000000 1.0
C      1  0.4630360000000  0.5201150000000  0.4398910000000 1.0
C      1  0.5641210000000  0.5142630000000  0.4718140000000 1.0
C      1  0.4362570000000  0.4847380000000  0.4712390000000 1.0
C      1  0.4529470000000  0.4532590000000  0.5392870000000 1.0
C      1  0.5469260000000  0.5467140000000  0.5383540000000 1.0
C      1  0.5046460000000  0.4288240000000  0.5044000000000 1.0
C      1  0.4959880000000  0.5715510000000  0.5071460000000 1.0
END
