TITL C-8703-8361-272 -7.98999886461216e-05 125000 -365.398768827019 0 0 60 (C1) n - 1
REM
REM in /home/bkarasulu/CARBON/AIRSS/Generating-Clusters/EDIP-Nigel-Params/Higher-Symm/Box-15A/Only-C60/SD-CG/HFTN-CG
REM
REM
REM
REM
REM
REM ./C.cell (414f73aa93bd7a1190c7fd0f31ff2f98)
REM
REM compiler GCC version 9.2.1 20190827 (Red Hat 9.2.1-1)
REM options -cpp -mtune=generic -march=x86-64 -g -O0 -fpre-include=/usr/include/finclude/math-vector-fortran.h
REM seed 900147024 1809467171 -255333679 -1363997791 -1217035121 1112885815 -1662123052 1120685649 -1735891055 115275595 -215933703 -1941176689 -158480472 1996447726 -1543626435 -1910575430 -1001776837 -2049126061 1727787844 -378108856 -1159931964 -1905770327 1039566588 -231052872 -450260245 146346886 -805672981 -321011676 185004402 -119462319 714612028 1750739798 712570130
REM
CELL 1.54180   50.00000   50.00000   50.00000   90.00000   90.00000   90.00000
LATT -1
SFAC C  
C      1  0.5295760000000  0.4601210000000  0.5389350000000 1.0
C      1  0.4690470000000  0.4571440000000  0.4592940000000 1.0
C      1  0.5355770000000  0.5670270000000  0.4501700000000 1.0
C      1  0.4668410000000  0.5654440000000  0.5490230000000 1.0
C      1  0.4720110000000  0.4814300000000  0.5618270000000 1.0
C      1  0.5282300000000  0.4803390000000  0.4381820000000 1.0
C      1  0.4803740000000  0.5174610000000  0.4409300000000 1.0
C      1  0.5161230000000  0.5157700000000  0.5532860000000 1.0
C      1  0.4920320000000  0.5269700000000  0.5658810000000 1.0
C      1  0.5074480000000  0.5281630000000  0.4343470000000 1.0
C      1  0.5002620000000  0.4722150000000  0.4315470000000 1.0
C      1  0.4995070000000  0.4719380000000  0.5693180000000 1.0
C      1  0.4517220000000  0.5389550000000  0.5110730000000 1.0
C      1  0.5435870000000  0.5407000000000  0.4885660000000 1.0
C      1  0.4352860000000  0.4572150000000  0.5002500000000 1.0
C      1  0.5618210000000  0.4587080000000  0.5048860000000 1.0
C      1  0.5337740000000  0.4459380000000  0.5119100000000 1.0
C      1  0.4683870000000  0.4438090000000  0.4861110000000 1.0
C      1  0.5344130000000  0.5668760000000  0.4788080000000 1.0
C      1  0.4695590000000  0.5603740000000  0.5214120000000 1.0
C      1  0.5070920000000  0.5744390000000  0.4893910000000 1.0
C      1  0.4991440000000  0.5594430000000  0.5150300000000 1.0
C      1  0.5061830000000  0.4272440000000  0.5126320000000 1.0
C      1  0.4930910000000  0.4256960000000  0.4864660000000 1.0
C      1  0.4926350000000  0.5585380000000  0.4667980000000 1.0
C      1  0.5154990000000  0.5614190000000  0.5407520000000 1.0
C      1  0.4870340000000  0.4385960000000  0.5340950000000 1.0
C      1  0.5111190000000  0.4362410000000  0.4643830000000 1.0
C      1  0.4919010000000  0.4471220000000  0.4443460000000 1.0
C      1  0.5072950000000  0.4482380000000  0.5537030000000 1.0
C      1  0.4917840000000  0.5562420000000  0.5595550000000 1.0
C      1  0.5102850000000  0.5565520000000  0.4430920000000 1.0
C      1  0.4628230000000  0.5350790000000  0.4588160000000 1.0
C      1  0.5339870000000  0.5373510000000  0.5421430000000 1.0
C      1  0.4568750000000  0.4606780000000  0.5461500000000 1.0
C      1  0.5413070000000  0.4605980000000  0.4584240000000 1.0
C      1  0.5530940000000  0.5208410000000  0.4684260000000 1.0
C      1  0.4372850000000  0.5241730000000  0.5311140000000 1.0
C      1  0.5676460000000  0.4782460000000  0.5251020000000 1.0
C      1  0.4328210000000  0.4745720000000  0.4779320000000 1.0
C      1  0.5160430000000  0.5099260000000  0.4736010000000 1.0
C      1  0.4902020000000  0.5102120000000  0.5250620000000 1.0
C      1  0.4920340000000  0.4850270000000  0.5096710000000 1.0
C      1  0.5085910000000  0.4844940000000  0.4868930000000 1.0
C      1  0.5616900000000  0.5025560000000  0.5119480000000 1.0
C      1  0.4357860000000  0.5002910000000  0.4893200000000 1.0
C      1  0.5665110000000  0.4993460000000  0.4835470000000 1.0
C      1  0.4343190000000  0.4988240000000  0.5179540000000 1.0
C      1  0.5224680000000  0.4589450000000  0.4837200000000 1.0
C      1  0.4763560000000  0.4600950000000  0.5128820000000 1.0
C      1  0.5055930000000  0.5310330000000  0.5087740000000 1.0
C      1  0.4947600000000  0.5297120000000  0.4808650000000 1.0
C      1  0.4699510000000  0.5102560000000  0.5575090000000 1.0
C      1  0.5319400000000  0.5103150000000  0.4383670000000 1.0
C      1  0.4776480000000  0.4888580000000  0.4402960000000 1.0
C      1  0.5237040000000  0.4884110000000  0.5618150000000 1.0
C      1  0.5457030000000  0.5281500000000  0.5155640000000 1.0
C      1  0.4515100000000  0.5247400000000  0.4847690000000 1.0
C      1  0.5647330000000  0.4703690000000  0.4770340000000 1.0
C      1  0.4359780000000  0.4705330000000  0.5263020000000 1.0
END
