TITL C-8704-7456-230 1.11227749682045e-05 125000 -366.732228009141 0 0 60 (D2) n - 1
REM
REM in /home/bkarasulu/CARBON/AIRSS/Generating-Clusters/EDIP-Nigel-Params/Higher-Symm/Box-15A/Only-C60/SD-CG/HFTN-CG
REM
REM
REM
REM
REM
REM ./C.cell (414f73aa93bd7a1190c7fd0f31ff2f98)
REM
REM compiler GCC version 9.2.1 20190827 (Red Hat 9.2.1-1)
REM options -cpp -mtune=generic -march=x86-64 -g -O0 -fpre-include=/usr/include/finclude/math-vector-fortran.h
REM seed -404407984 -2094902189 1963644942 1719348965 -1058115927 239849824 642739615 216958669 -1288115871 1836297400 -1733925766 -1612391542 -1530972307 783755773 -24209903 1508299489 -1612933677 -1388769735 2113806731 1637195925 -933949770 -783079406 -131193552 1609450162 1690601301 66798953 564273467 553347339 -311772449 -161166089 125950317 1800481655 431783832
REM
CELL 1.54180   50.00000   50.00000   50.00000   90.00000   90.00000   90.00000
LATT -1
SFAC C  
C      1  0.4925570000000  0.4445380000000  0.4603480000000 1.0
C      1  0.4925610000000  0.5554620000000  0.5396530000000 1.0
C      1  0.5074420000000  0.4445390000000  0.5396540000000 1.0
C      1  0.5074400000000  0.5554610000000  0.4603460000000 1.0
C      1  0.5674260000000  0.5205030000000  0.4945160000000 1.0
C      1  0.5674260000000  0.4794950000000  0.5054780000000 1.0
C      1  0.4325740000000  0.5205050000000  0.5054830000000 1.0
C      1  0.4325730000000  0.4794970000000  0.4945220000000 1.0
C      1  0.4692720000000  0.4841850000000  0.4495520000000 1.0
C      1  0.4692760000000  0.5158150000000  0.5504510000000 1.0
C      1  0.5307280000000  0.4841860000000  0.5504490000000 1.0
C      1  0.5307240000000  0.5158130000000  0.4495490000000 1.0
C      1  0.4938250000000  0.4857860000000  0.4309880000000 1.0
C      1  0.4938310000000  0.5142150000000  0.5690130000000 1.0
C      1  0.5061750000000  0.4857880000000  0.5690130000000 1.0
C      1  0.5061690000000  0.5142120000000  0.4309870000000 1.0
C      1  0.4642140000000  0.4550610000000  0.4604300000000 1.0
C      1  0.4642180000000  0.5449400000000  0.5395730000000 1.0
C      1  0.5357850000000  0.4550610000000  0.5395720000000 1.0
C      1  0.5357830000000  0.5449380000000  0.4604250000000 1.0
C      1  0.5370470000000  0.4655560000000  0.4588980000000 1.0
C      1  0.5370510000000  0.5344430000000  0.5410990000000 1.0
C      1  0.4629520000000  0.4655580000000  0.5411030000000 1.0
C      1  0.4629500000000  0.5344430000000  0.4589000000000 1.0
C      1  0.4932860000000  0.4341220000000  0.5141800000000 1.0
C      1  0.4932860000000  0.5658790000000  0.4858200000000 1.0
C      1  0.5067130000000  0.4341210000000  0.4858220000000 1.0
C      1  0.5067150000000  0.5658790000000  0.5141780000000 1.0
C      1  0.4854770000000  0.5058780000000  0.5262140000000 1.0
C      1  0.4854750000000  0.4941220000000  0.4737870000000 1.0
C      1  0.5145230000000  0.5058770000000  0.4737860000000 1.0
C      1  0.5145250000000  0.4941230000000  0.5262130000000 1.0
C      1  0.5493090000000  0.5455370000000  0.4887750000000 1.0
C      1  0.5493090000000  0.4544610000000  0.5112210000000 1.0
C      1  0.4506920000000  0.5455390000000  0.5112240000000 1.0
C      1  0.4506900000000  0.4544620000000  0.4887810000000 1.0
C      1  0.5141610000000  0.4722410000000  0.5059840000000 1.0
C      1  0.5141610000000  0.5277580000000  0.4940150000000 1.0
C      1  0.4858390000000  0.4722420000000  0.4940170000000 1.0
C      1  0.4858400000000  0.5277590000000  0.5059840000000 1.0
C      1  0.4289210000000  0.4987780000000  0.5263180000000 1.0
C      1  0.4289190000000  0.5012230000000  0.4736880000000 1.0
C      1  0.5710790000000  0.4987760000000  0.4736820000000 1.0
C      1  0.5710810000000  0.5012220000000  0.5263120000000 1.0
C      1  0.5362120000000  0.4418510000000  0.4844620000000 1.0
C      1  0.5362140000000  0.5581480000000  0.5155350000000 1.0
C      1  0.4637870000000  0.4418520000000  0.5155400000000 1.0
C      1  0.4637870000000  0.5581480000000  0.4844630000000 1.0
C      1  0.4687720000000  0.5157870000000  0.4846060000000 1.0
C      1  0.4687730000000  0.4842140000000  0.5153960000000 1.0
C      1  0.5312290000000  0.5157870000000  0.5153930000000 1.0
C      1  0.5312270000000  0.4842130000000  0.4846040000000 1.0
C      1  0.5539640000000  0.5055080000000  0.5505050000000 1.0
C      1  0.5539600000000  0.4944900000000  0.4494900000000 1.0
C      1  0.4460360000000  0.5055080000000  0.4494940000000 1.0
C      1  0.4460400000000  0.4944930000000  0.5505100000000 1.0
C      1  0.5104180000000  0.5375580000000  0.5563400000000 1.0
C      1  0.5104120000000  0.4624420000000  0.4436590000000 1.0
C      1  0.4895830000000  0.5375570000000  0.4436590000000 1.0
C      1  0.4895870000000  0.4624440000000  0.5563420000000 1.0
END
