TITL C-8701-7969-73 -5.92562084994039e-06 125000 -352.129967946858 0 0 60 (C1) n - 1
REM
REM in /home/bkarasulu/CARBON/AIRSS/Generating-Clusters/EDIP-Nigel-Params/Higher-Symm/Box-15A/Only-C60/SD-CG/HFTN-CG
REM
REM
REM
REM
REM
REM ./C.cell (414f73aa93bd7a1190c7fd0f31ff2f98)
REM
REM compiler GCC version 9.2.1 20190827 (Red Hat 9.2.1-1)
REM options -cpp -mtune=generic -march=x86-64 -g -O0 -fpre-include=/usr/include/finclude/math-vector-fortran.h
REM seed -1885081312 160604649 -2083888024 -949450116 -1804006093 -267642207 1147792886 436404201 -814314411 1076545667 1654624348 1689707908 1712828418 1106351625 548890481 -422556523 38584139 -209933497 -2068555855 982119778 -577110703 412491365 184246411 585161965 -1904365272 1170847374 874159177 1146467998 -1912737254 2116223120 -348108649 2087803436 1925225012
REM
CELL 1.54180   50.00000   50.00000   50.00000   90.00000   90.00000   90.00000
LATT -1
SFAC C  
C      1  0.4494730000000  0.5188380000000  0.5168000000000 1.0
C      1  0.4490920000000  0.4901980000000  0.5228670000000 1.0
C      1  0.4490840000000  0.4753840000000  0.4975680000000 1.0
C      1  0.4491020000000  0.4949710000000  0.4757510000000 1.0
C      1  0.4490540000000  0.5217190000000  0.4876490000000 1.0
C      1  0.5334670000000  0.5109590000000  0.4752130000000 1.0
C      1  0.5337430000000  0.5266420000000  0.5029090000000 1.0
C      1  0.5337010000000  0.5052550000000  0.5264200000000 1.0
C      1  0.5335260000000  0.4763220000000  0.5132130000000 1.0
C      1  0.5333800000000  0.4797990000000  0.4815850000000 1.0
C      1  0.4733870000000  0.5239780000000  0.4230730000000 1.0
C      1  0.4759270000000  0.5803380000000  0.4957430000000 1.0
C      1  0.4737360000000  0.5260790000000  0.5764120000000 1.0
C      1  0.4754490000000  0.4377650000000  0.5507670000000 1.0
C      1  0.4732720000000  0.4335100000000  0.4542690000000 1.0
C      1  0.5541210000000  0.5261880000000  0.5673430000000 1.0
C      1  0.5537550000000  0.4437500000000  0.5459050000000 1.0
C      1  0.5533860000000  0.4385900000000  0.4607670000000 1.0
C      1  0.5533390000000  0.5179980000000  0.4295240000000 1.0
C      1  0.5542610000000  0.5720270000000  0.4953410000000 1.0
C      1  0.4489550000000  0.5409000000000  0.5354480000000 1.0
C      1  0.4486360000000  0.4795230000000  0.5496550000000 1.0
C      1  0.4483430000000  0.4465640000000  0.4956580000000 1.0
C      1  0.4483620000000  0.4882590000000  0.4476710000000 1.0
C      1  0.4487130000000  0.5461010000000  0.4722500000000 1.0
C      1  0.4552810000000  0.4286680000000  0.4745210000000 1.0
C      1  0.4553710000000  0.5032050000000  0.4243650000000 1.0
C      1  0.4550130000000  0.5729420000000  0.4794300000000 1.0
C      1  0.4563210000000  0.5426340000000  0.5629920000000 1.0
C      1  0.4546830000000  0.4535290000000  0.5596270000000 1.0
C      1  0.5553380000000  0.5680720000000  0.5218990000000 1.0
C      1  0.5550940000000  0.4996930000000  0.5716790000000 1.0
C      1  0.5545670000000  0.4313460000000  0.5220790000000 1.0
C      1  0.5544090000000  0.4574290000000  0.4416390000000 1.0
C      1  0.5546290000000  0.5419650000000  0.4415980000000 1.0
C      1  0.5055190000000  0.5171880000000  0.4608320000000 1.0
C      1  0.5059050000000  0.5423300000000  0.5043400000000 1.0
C      1  0.5058370000000  0.5090790000000  0.5420300000000 1.0
C      1  0.5055650000000  0.4632230000000  0.5214250000000 1.0
C      1  0.5053480000000  0.4678260000000  0.4713570000000 1.0
C      1  0.4945320000000  0.4337890000000  0.5309290000000 1.0
C      1  0.4933280000000  0.4504460000000  0.4453400000000 1.0
C      1  0.4936700000000  0.5373420000000  0.4364620000000 1.0
C      1  0.4950970000000  0.5718120000000  0.5139980000000 1.0
C      1  0.4938230000000  0.5071680000000  0.5735960000000 1.0
C      1  0.5560380000000  0.4656160000000  0.4686650000000 1.0
C      1  0.5561170000000  0.5187290000000  0.4576590000000 1.0
C      1  0.5565960000000  0.5455090000000  0.5048880000000 1.0
C      1  0.5565410000000  0.5090070000000  0.5450100000000 1.0
C      1  0.5561950000000  0.4595790000000  0.5225960000000 1.0
C      1  0.4905770000000  0.4595710000000  0.4953900000000 1.0
C      1  0.4906290000000  0.4918750000000  0.4601680000000 1.0
C      1  0.4908170000000  0.5349900000000  0.4803720000000 1.0
C      1  0.4911020000000  0.5301100000000  0.5277240000000 1.0
C      1  0.4907910000000  0.4834000000000  0.5366140000000 1.0
C      1  0.4831130000000  0.4304730000000  0.5018450000000 1.0
C      1  0.4832100000000  0.4776970000000  0.4342920000000 1.0
C      1  0.4839830000000  0.5558790000000  0.4595560000000 1.0
C      1  0.4838060000000  0.5574850000000  0.5395900000000 1.0
C      1  0.4838900000000  0.4787370000000  0.5656920000000 1.0
END
