TITL C-8703-8361-29 1.93711227500764e-07 125000 -371.528273951298 0 0 60 (C1) n - 1
REM
REM in /home/bkarasulu/CARBON/AIRSS/Generating-Clusters/EDIP-Nigel-Params/Higher-Symm/Box-15A/Only-C60/SD-CG/HFTN-CG
REM
REM
REM
REM
REM
REM ./C.cell (414f73aa93bd7a1190c7fd0f31ff2f98)
REM
REM compiler GCC version 9.2.1 20190827 (Red Hat 9.2.1-1)
REM options -cpp -mtune=generic -march=x86-64 -g -O0 -fpre-include=/usr/include/finclude/math-vector-fortran.h
REM seed 1188763687 -1723894512 98229132 1870203342 -1743146444 -1520832956 -2023962751 758631614 -90755911 393945817 -148006565 1139670522 1523110603 -43989161 514267163 -1163473796 -513832345 -9913298 95598016 664538700 890073805 -615587530 1731688040 1236107607 1738939483 -1234221542 707359203 2135991836 931108147 -1553442121 2083410507 2042376408 1292319983
REM
CELL 1.54180   50.00000   50.00000   50.00000   90.00000   90.00000   90.00000
LATT -1
SFAC C  
C      1  0.4632650000000  0.5180910000000  0.5613040000000 1.0
C      1  0.4683410000000  0.5601310000000  0.4819820000000 1.0
C      1  0.4709050000000  0.4798640000000  0.4401880000000 1.0
C      1  0.4619000000000  0.4362120000000  0.5193890000000 1.0
C      1  0.5352740000000  0.5230350000000  0.5610250000000 1.0
C      1  0.5328240000000  0.5652760000000  0.4772910000000 1.0
C      1  0.5313880000000  0.4792550000000  0.4370650000000 1.0
C      1  0.5277290000000  0.4363940000000  0.5217810000000 1.0
C      1  0.5081050000000  0.4208540000000  0.5339020000000 1.0
C      1  0.5096330000000  0.5374810000000  0.5658790000000 1.0
C      1  0.5125680000000  0.5757890000000  0.4593210000000 1.0
C      1  0.5140200000000  0.4631540000000  0.4226420000000 1.0
C      1  0.4812480000000  0.4219960000000  0.5334560000000 1.0
C      1  0.4863440000000  0.5248260000000  0.5756930000000 1.0
C      1  0.4843150000000  0.5740180000000  0.4623050000000 1.0
C      1  0.4872300000000  0.4640520000000  0.4243920000000 1.0
C      1  0.4861480000000  0.4775870000000  0.5154780000000 1.0
C      1  0.4926660000000  0.5029740000000  0.5298160000000 1.0
C      1  0.4868030000000  0.5151300000000  0.4924230000000 1.0
C      1  0.4908080000000  0.4854610000000  0.4872780000000 1.0
C      1  0.5350460000000  0.4864410000000  0.5113230000000 1.0
C      1  0.5217220000000  0.5124580000000  0.5199410000000 1.0
C      1  0.5135150000000  0.5268940000000  0.4953670000000 1.0
C      1  0.5207290000000  0.4813010000000  0.4852770000000 1.0
C      1  0.4623540000000  0.4311110000000  0.4922420000000 1.0
C      1  0.4521940000000  0.4929100000000  0.5659840000000 1.0
C      1  0.4719840000000  0.5673950000000  0.5083790000000 1.0
C      1  0.4689430000000  0.5061800000000  0.4331850000000 1.0
C      1  0.5358600000000  0.4315670000000  0.4954970000000 1.0
C      1  0.5334850000000  0.4958370000000  0.5665630000000 1.0
C      1  0.5305130000000  0.5728290000000  0.5040880000000 1.0
C      1  0.5285340000000  0.5064000000000  0.4338360000000 1.0
C      1  0.4421880000000  0.4845260000000  0.4813850000000 1.0
C      1  0.4390550000000  0.4821310000000  0.5122700000000 1.0
C      1  0.4426890000000  0.5129760000000  0.5151830000000 1.0
C      1  0.4418650000000  0.5161870000000  0.4843430000000 1.0
C      1  0.5632890000000  0.4892590000000  0.4748910000000 1.0
C      1  0.5637970000000  0.4922620000000  0.5057380000000 1.0
C      1  0.5662820000000  0.5227590000000  0.5123820000000 1.0
C      1  0.5613600000000  0.5225790000000  0.4802890000000 1.0
C      1  0.4788180000000  0.5516200000000  0.5300330000000 1.0
C      1  0.4733510000000  0.5298300000000  0.4463200000000 1.0
C      1  0.4746720000000  0.4435910000000  0.4709600000000 1.0
C      1  0.4655040000000  0.4710550000000  0.5547450000000 1.0
C      1  0.5308080000000  0.5597420000000  0.5288740000000 1.0
C      1  0.5229060000000  0.5301880000000  0.4466410000000 1.0
C      1  0.5294780000000  0.4407850000000  0.4699120000000 1.0
C      1  0.5213760000000  0.4723160000000  0.5576590000000 1.0
C      1  0.4687740000000  0.4729050000000  0.4691100000000 1.0
C      1  0.4613330000000  0.4657660000000  0.5254870000000 1.0
C      1  0.4683460000000  0.5226780000000  0.5323650000000 1.0
C      1  0.4667810000000  0.5308450000000  0.4754110000000 1.0
C      1  0.5389710000000  0.4705100000000  0.4645520000000 1.0
C      1  0.5318270000000  0.4638100000000  0.5313930000000 1.0
C      1  0.5426710000000  0.5315110000000  0.5323610000000 1.0
C      1  0.5331800000000  0.5354530000000  0.4742710000000 1.0
C      1  0.5016530000000  0.4372240000000  0.4653580000000 1.0
C      1  0.4981400000000  0.5457100000000  0.4401190000000 1.0
C      1  0.4932300000000  0.4718700000000  0.5595560000000 1.0
C      1  0.5048790000000  0.5570070000000  0.5440990000000 1.0
END
