TITL C-8700-8172-33 -8.52478648427165e-07 125000 -368.714403329133 0 0 60 (C1) n - 1
REM
REM in /home/bkarasulu/CARBON/AIRSS/Generating-Clusters/EDIP-Nigel-Params/Higher-Symm/Box-15A/Only-C60/SD-CG/HFTN-CG
REM
REM
REM
REM
REM
REM ./C.cell (414f73aa93bd7a1190c7fd0f31ff2f98)
REM
REM compiler GCC version 9.2.1 20190827 (Red Hat 9.2.1-1)
REM options -cpp -mtune=generic -march=x86-64 -g -O0 -fpre-include=/usr/include/finclude/math-vector-fortran.h
REM seed 1222872617 12148873 -1209595075 588431184 1394160841 -2093713039 880299039 -1673603596 1635569897 1512641373 501827040 -1351587295 -1653587057 -351952813 1288125014 127543212 622511558 -1411292467 766060763 -574994364 725634040 1224505854 1326825741 -1495894229 -1289572786 -526571867 640649432 -470604851 -26249870 1039266660 -1618557330 -1868050722 269575461
REM
CELL 1.54180   50.00000   50.00000   50.00000   90.00000   90.00000   90.00000
LATT -1
SFAC C  
C      1  0.5569980000000  0.5355720000000  0.4708750000000 1.0
C      1  0.5636080000000  0.4633070000000  0.4894690000000 1.0
C      1  0.5610660000000  0.5129510000000  0.5424800000000 1.0
C      1  0.4416600000000  0.5323150000000  0.4692840000000 1.0
C      1  0.4388160000000  0.4599230000000  0.4869290000000 1.0
C      1  0.4366200000000  0.5091960000000  0.5404610000000 1.0
C      1  0.4689340000000  0.5463260000000  0.4717720000000 1.0
C      1  0.4607650000000  0.4491780000000  0.4703500000000 1.0
C      1  0.4575990000000  0.4990140000000  0.5585020000000 1.0
C      1  0.5287820000000  0.5478110000000  0.4721810000000 1.0
C      1  0.5429870000000  0.4513070000000  0.4720850000000 1.0
C      1  0.5400800000000  0.5017420000000  0.5599080000000 1.0
C      1  0.4832780000000  0.5499010000000  0.5286050000000 1.0
C      1  0.4876510000000  0.4985350000000  0.4433490000000 1.0
C      1  0.4862670000000  0.4505600000000  0.5304250000000 1.0
C      1  0.5117790000000  0.5509890000000  0.5290740000000 1.0
C      1  0.5157940000000  0.4986610000000  0.4443100000000 1.0
C      1  0.5150640000000  0.4513560000000  0.5310770000000 1.0
C      1  0.4838420000000  0.5571180000000  0.4488150000000 1.0
C      1  0.4832990000000  0.4318680000000  0.4745480000000 1.0
C      1  0.4792710000000  0.5114120000000  0.5726060000000 1.0
C      1  0.5137020000000  0.5561190000000  0.4480770000000 1.0
C      1  0.5212600000000  0.4328200000000  0.4753030000000 1.0
C      1  0.5171900000000  0.5127690000000  0.5732190000000 1.0
C      1  0.5119690000000  0.5413420000000  0.5761310000000 1.0
C      1  0.5178290000000  0.5345580000000  0.4181850000000 1.0
C      1  0.5170650000000  0.4158380000000  0.4986700000000 1.0
C      1  0.4823290000000  0.5402610000000  0.5756840000000 1.0
C      1  0.4886170000000  0.5354050000000  0.4188020000000 1.0
C      1  0.4874260000000  0.4150580000000  0.4980610000000 1.0
C      1  0.5236730000000  0.5271290000000  0.5162570000000 1.0
C      1  0.5258290000000  0.5000640000000  0.4718130000000 1.0
C      1  0.5258360000000  0.4752450000000  0.5170020000000 1.0
C      1  0.4738920000000  0.5253690000000  0.5153230000000 1.0
C      1  0.4752760000000  0.4988810000000  0.4702600000000 1.0
C      1  0.4747690000000  0.4738260000000  0.5158920000000 1.0
C      1  0.5213980000000  0.5574690000000  0.5547850000000 1.0
C      1  0.5297760000000  0.5096770000000  0.4225640000000 1.0
C      1  0.5260870000000  0.4266160000000  0.5233000000000 1.0
C      1  0.4723800000000  0.5556120000000  0.5540030000000 1.0
C      1  0.4755310000000  0.5107190000000  0.4211380000000 1.0
C      1  0.4768830000000  0.4252560000000  0.5223240000000 1.0
C      1  0.5745580000000  0.4912380000000  0.4825510000000 1.0
C      1  0.5737010000000  0.4943460000000  0.5214650000000 1.0
C      1  0.5708750000000  0.5268050000000  0.4984870000000 1.0
C      1  0.4265980000000  0.4872680000000  0.4797610000000 1.0
C      1  0.4257410000000  0.4901280000000  0.5187390000000 1.0
C      1  0.4274260000000  0.5227410000000  0.4963480000000 1.0
C      1  0.4835020000000  0.5002220000000  0.5303680000000 1.0
C      1  0.4837130000000  0.5244680000000  0.4856520000000 1.0
C      1  0.4851050000000  0.4739080000000  0.4867270000000 1.0
C      1  0.5150580000000  0.5012430000000  0.5309280000000 1.0
C      1  0.5151180000000  0.5253840000000  0.4862940000000 1.0
C      1  0.5166870000000  0.4746230000000  0.4875200000000 1.0
C      1  0.4452890000000  0.4681340000000  0.5144260000000 1.0
C      1  0.4448910000000  0.5288190000000  0.5197070000000 1.0
C      1  0.4462400000000  0.5027870000000  0.4635700000000 1.0
C      1  0.5556390000000  0.4712650000000  0.5166450000000 1.0
C      1  0.5524710000000  0.5319470000000  0.5213280000000 1.0
C      1  0.5545120000000  0.5056020000000  0.4655840000000 1.0
END
