TITL C-8703-8361-93 1.11848679000351e-06 125000 -365.78210122234 0 0 60 (S4) n - 1
REM
REM in /home/bkarasulu/CARBON/AIRSS/Generating-Clusters/EDIP-Nigel-Params/Higher-Symm/Box-15A/Only-C60/SD-CG/HFTN-CG
REM
REM
REM
REM
REM
REM ./C.cell (414f73aa93bd7a1190c7fd0f31ff2f98)
REM
REM compiler GCC version 9.2.1 20190827 (Red Hat 9.2.1-1)
REM options -cpp -mtune=generic -march=x86-64 -g -O0 -fpre-include=/usr/include/finclude/math-vector-fortran.h
REM seed 519965715 -1255122367 73202555 174171301 -804749143 -572042625 -2053326876 998735519 -1667580781 -1574958334 -1894466870 -558205628 -14177178 875727318 222184650 -136509659 1924511458 -436295711 -1713485120 567642318 -141749817 -1877238794 -444887811 232870294 -1805525989 -522715066 -705759935 652495831 1504864233 1620518663 -263476159 -668337100 1901209092
REM
CELL 1.54180   50.00000   50.00000   50.00000   90.00000   90.00000   90.00000
LATT -1
SFAC C  
C      1  0.4297060000000  0.5323880000000  0.5464540000000 1.0
C      1  0.5321670000000  0.5712620000000  0.4548870000000 1.0
C      1  0.5714810000000  0.4668780000000  0.5440630000000 1.0
C      1  0.4666460000000  0.4294720000000  0.4545970000000 1.0
C      1  0.4559270000000  0.4294680000000  0.4816750000000 1.0
C      1  0.4295680000000  0.5436790000000  0.5196100000000 1.0
C      1  0.5435920000000  0.5708300000000  0.4816710000000 1.0
C      1  0.5709130000000  0.4560240000000  0.5170440000000 1.0
C      1  0.4661550000000  0.5681220000000  0.5393320000000 1.0
C      1  0.5679290000000  0.5346680000000  0.4610550000000 1.0
C      1  0.5348510000000  0.4312570000000  0.5373200000000 1.0
C      1  0.4310650000000  0.4659540000000  0.4622930000000 1.0
C      1  0.4897660000000  0.5103450000000  0.4527730000000 1.0
C      1  0.5105830000000  0.5092280000000  0.5473810000000 1.0
C      1  0.5089890000000  0.4904250000000  0.4523590000000 1.0
C      1  0.4906620000000  0.4900020000000  0.5474870000000 1.0
C      1  0.4842710000000  0.4310570000000  0.4893390000000 1.0
C      1  0.4311140000000  0.5155040000000  0.5113370000000 1.0
C      1  0.5154590000000  0.5691100000000  0.4900500000000 1.0
C      1  0.5691560000000  0.4843290000000  0.5092730000000 1.0
C      1  0.5445090000000  0.4423240000000  0.5128070000000 1.0
C      1  0.4422530000000  0.4557760000000  0.4865410000000 1.0
C      1  0.4558540000000  0.5574510000000  0.5149040000000 1.0
C      1  0.5573830000000  0.5444480000000  0.4857490000000 1.0
C      1  0.4748990000000  0.4554870000000  0.4443580000000 1.0
C      1  0.4557710000000  0.5239170000000  0.5563850000000 1.0
C      1  0.5236420000000  0.5454150000000  0.4444470000000 1.0
C      1  0.5456880000000  0.4751810000000  0.5548100000000 1.0
C      1  0.5225900000000  0.5559310000000  0.5403740000000 1.0
C      1  0.5557240000000  0.4782690000000  0.4588760000000 1.0
C      1  0.4784650000000  0.4434170000000  0.5400410000000 1.0
C      1  0.4432210000000  0.5223840000000  0.4607100000000 1.0
C      1  0.4622980000000  0.5027940000000  0.4552400000000 1.0
C      1  0.5030240000000  0.5367430000000  0.5455360000000 1.0
C      1  0.5365140000000  0.4979400000000  0.4542270000000 1.0
C      1  0.4981640000000  0.4625220000000  0.5449980000000 1.0
C      1  0.4712950000000  0.5360390000000  0.4990000000000 1.0
C      1  0.5360480000000  0.5286750000000  0.5014290000000 1.0
C      1  0.5286610000000  0.4639880000000  0.4976630000000 1.0
C      1  0.4639950000000  0.4712980000000  0.5019090000000 1.0
C      1  0.5418470000000  0.4572090000000  0.4710230000000 1.0
C      1  0.4573470000000  0.4575500000000  0.5282960000000 1.0
C      1  0.4574160000000  0.5432470000000  0.4728290000000 1.0
C      1  0.5433890000000  0.5419950000000  0.5278520000000 1.0
C      1  0.5449140000000  0.5249460000000  0.4480080000000 1.0
C      1  0.5251980000000  0.4539900000000  0.5509010000000 1.0
C      1  0.4537320000000  0.4758910000000  0.4488070000000 1.0
C      1  0.4761560000000  0.5451730000000  0.5522840000000 1.0
C      1  0.4995950000000  0.4634010000000  0.4591690000000 1.0
C      1  0.4636060000000  0.4995400000000  0.5410130000000 1.0
C      1  0.4993410000000  0.5372560000000  0.4597710000000 1.0
C      1  0.5374580000000  0.4998020000000  0.5400460000000 1.0
C      1  0.5407120000000  0.4935750000000  0.5088210000000 1.0
C      1  0.4935240000000  0.4594850000000  0.4903490000000 1.0
C      1  0.4595350000000  0.5062730000000  0.5099890000000 1.0
C      1  0.5062300000000  0.5406680000000  0.4908400000000 1.0
C      1  0.5222960000000  0.4455760000000  0.4539510000000 1.0
C      1  0.4458030000000  0.4767350000000  0.5458370000000 1.0
C      1  0.4765150000000  0.5551590000000  0.4554410000000 1.0
C      1  0.5553860000000  0.5225300000000  0.5447710000000 1.0
END
