TITL C-8702-7969-301 -3.84734743694457e-05 125000 -365.980242768557 0 0 60 (C1) n - 1
REM
REM in /home/bkarasulu/CARBON/AIRSS/Generating-Clusters/EDIP-Nigel-Params/Higher-Symm/Box-15A/Only-C60/SD-CG/HFTN-CG
REM
REM
REM
REM
REM
REM ./C.cell (414f73aa93bd7a1190c7fd0f31ff2f98)
REM
REM compiler GCC version 9.2.1 20190827 (Red Hat 9.2.1-1)
REM options -cpp -mtune=generic -march=x86-64 -g -O0 -fpre-include=/usr/include/finclude/math-vector-fortran.h
REM seed 1089147386 1874396926 452847383 87817653 1354893484 2026730732 -1316682594 -980575826 2041146824 -1898479154 -1832052163 1506318206 1938055817 -2091350308 -610243125 -832004964 499779513 1640182996 -713086603 -68382235 -1972248091 -756872132 1281023965 -1121568778 390115112 -747502337 578472964 918601159 1299921874 830243566 1294557211 -1191550792 -2102114950
REM
CELL 1.54180   50.00000   50.00000   50.00000   90.00000   90.00000   90.00000
LATT -1
SFAC C  
C      1  0.5731860000000  0.4942910000000  0.4773950000000 1.0
C      1  0.4669320000000  0.5804590000000  0.5026970000000 1.0
C      1  0.5887490000000  0.5054320000000  0.4980800000000 1.0
C      1  0.4926470000000  0.4101270000000  0.4962200000000 1.0
C      1  0.5077120000000  0.4961900000000  0.5231790000000 1.0
C      1  0.5280950000000  0.5507590000000  0.4739770000000 1.0
C      1  0.5223960000000  0.5049500000000  0.4783140000000 1.0
C      1  0.4338080000000  0.5175450000000  0.5241940000000 1.0
C      1  0.5095310000000  0.5253410000000  0.5157020000000 1.0
C      1  0.5691130000000  0.5193670000000  0.5135200000000 1.0
C      1  0.4797060000000  0.5327980000000  0.4465480000000 1.0
C      1  0.4747630000000  0.4689210000000  0.4588920000000 1.0
C      1  0.4626680000000  0.5088930000000  0.4383860000000 1.0
C      1  0.5198150000000  0.5786070000000  0.4989350000000 1.0
C      1  0.4457540000000  0.5648850000000  0.5096780000000 1.0
C      1  0.5301990000000  0.4868410000000  0.4394540000000 1.0
C      1  0.4750590000000  0.5408870000000  0.5387810000000 1.0
C      1  0.5163790000000  0.4808770000000  0.4981400000000 1.0
C      1  0.4477110000000  0.5439040000000  0.5284230000000 1.0
C      1  0.5058900000000  0.4872410000000  0.4252200000000 1.0
C      1  0.5542720000000  0.4985370000000  0.5299950000000 1.0
C      1  0.5297740000000  0.5405260000000  0.4441840000000 1.0
C      1  0.4879440000000  0.4861490000000  0.4798390000000 1.0
C      1  0.5167070000000  0.4247790000000  0.4934550000000 1.0
C      1  0.5138970000000  0.5147250000000  0.5629920000000 1.0
C      1  0.5262710000000  0.4644780000000  0.5535630000000 1.0
C      1  0.4270030000000  0.5038820000000  0.5481960000000 1.0
C      1  0.4728280000000  0.4915930000000  0.5389680000000 1.0
C      1  0.5529350000000  0.5149660000000  0.4723200000000 1.0
C      1  0.4672750000000  0.5081020000000  0.4850800000000 1.0
C      1  0.5269970000000  0.4929130000000  0.5456120000000 1.0
C      1  0.4446860000000  0.4694120000000  0.4982740000000 1.0
C      1  0.4455260000000  0.4728050000000  0.4684150000000 1.0
C      1  0.4517470000000  0.4327230000000  0.5301460000000 1.0
C      1  0.4815210000000  0.5326110000000  0.4762680000000 1.0
C      1  0.4934320000000  0.5800370000000  0.5125030000000 1.0
C      1  0.5140040000000  0.4451550000000  0.4724920000000 1.0
C      1  0.5041420000000  0.5373320000000  0.4332850000000 1.0
C      1  0.5552030000000  0.4718890000000  0.5166460000000 1.0
C      1  0.4472240000000  0.4852210000000  0.5545910000000 1.0
C      1  0.5455980000000  0.5143940000000  0.4424350000000 1.0
C      1  0.4457950000000  0.5026820000000  0.4630450000000 1.0
C      1  0.4403620000000  0.4576400000000  0.5568840000000 1.0
C      1  0.4791030000000  0.4836630000000  0.4327600000000 1.0
C      1  0.4597740000000  0.4379060000000  0.5561910000000 1.0
C      1  0.5393250000000  0.4526060000000  0.5311870000000 1.0
C      1  0.5092480000000  0.5304000000000  0.4865160000000 1.0
C      1  0.5534780000000  0.4735280000000  0.4858550000000 1.0
C      1  0.4731790000000  0.4280830000000  0.4855930000000 1.0
C      1  0.4951160000000  0.5623090000000  0.5357970000000 1.0
C      1  0.4865300000000  0.4421920000000  0.4627810000000 1.0
C      1  0.5288620000000  0.5385320000000  0.5598060000000 1.0
C      1  0.4604300000000  0.4456480000000  0.5060730000000 1.0
C      1  0.5341220000000  0.4654970000000  0.4622780000000 1.0
C      1  0.5389860000000  0.5624080000000  0.5148020000000 1.0
C      1  0.5309300000000  0.4306240000000  0.5164970000000 1.0
C      1  0.5202860000000  0.5472730000000  0.5332360000000 1.0
C      1  0.4543550000000  0.4978810000000  0.5124010000000 1.0
C      1  0.4840040000000  0.5168490000000  0.5540240000000 1.0
C      1  0.5570140000000  0.5437360000000  0.4992810000000 1.0
END
