TITL C-8702-7969-107 -1.35828101614675e-06 125000 -374.673516509127 0 0 60 (C1) n - 1
REM
REM in /home/bkarasulu/CARBON/AIRSS/Generating-Clusters/EDIP-Nigel-Params/Higher-Symm/Box-15A/Only-C60/SD-CG/HFTN-CG
REM
REM
REM
REM
REM
REM ./C.cell (414f73aa93bd7a1190c7fd0f31ff2f98)
REM
REM compiler GCC version 9.2.1 20190827 (Red Hat 9.2.1-1)
REM options -cpp -mtune=generic -march=x86-64 -g -O0 -fpre-include=/usr/include/finclude/math-vector-fortran.h
REM seed -1591350891 894723723 -1643319053 1081600954 156639408 52689721 -18666472 301223484 1460184625 1538053605 84573831 -879567612 903263845 -988482224 -1319673399 -1586526882 -2103721602 -453767395 2106006476 -649931579 1067319423 -1040405914 732931913 -290817817 694024742 1294421863 -170010813 661636715 -674453231 1567574664 -1379782648 658131120 -583948810
REM
CELL 1.54180   50.00000   50.00000   50.00000   90.00000   90.00000   90.00000
LATT -1
SFAC C  
C      1  0.5504770000000  0.4692450000000  0.4668580000000 1.0
C      1  0.5543050000000  0.4686570000000  0.5268960000000 1.0
C      1  0.5036480000000  0.4702060000000  0.5612360000000 1.0
C      1  0.4495720000000  0.4690890000000  0.5334740000000 1.0
C      1  0.4453330000000  0.4704730000000  0.4725400000000 1.0
C      1  0.4966270000000  0.4696350000000  0.4396690000000 1.0
C      1  0.5527990000000  0.5294760000000  0.4691150000000 1.0
C      1  0.5522710000000  0.5303540000000  0.5301360000000 1.0
C      1  0.5002360000000  0.5305150000000  0.5602780000000 1.0
C      1  0.4477250000000  0.5307850000000  0.5303360000000 1.0
C      1  0.4475440000000  0.5308010000000  0.4701130000000 1.0
C      1  0.4994660000000  0.5313490000000  0.4395080000000 1.0
C      1  0.5198430000000  0.4382780000000  0.5218530000000 1.0
C      1  0.4912290000000  0.4414950000000  0.5274910000000 1.0
C      1  0.4714210000000  0.4386630000000  0.5061350000000 1.0
C      1  0.4808590000000  0.4418810000000  0.4785820000000 1.0
C      1  0.5092220000000  0.4391310000000  0.4721990000000 1.0
C      1  0.5285390000000  0.4411870000000  0.4940210000000 1.0
C      1  0.5181490000000  0.5608600000000  0.5227940000000 1.0
C      1  0.4893430000000  0.5583240000000  0.5269130000000 1.0
C      1  0.4709060000000  0.5611970000000  0.5044010000000 1.0
C      1  0.4817290000000  0.5587280000000  0.4773520000000 1.0
C      1  0.5104890000000  0.5617220000000  0.4725440000000 1.0
C      1  0.5283080000000  0.5580010000000  0.4955540000000 1.0
C      1  0.4976890000000  0.4816120000000  0.4682150000000 1.0
C      1  0.5273520000000  0.4839980000000  0.4816420000000 1.0
C      1  0.5287870000000  0.4807850000000  0.5139830000000 1.0
C      1  0.5023280000000  0.4843020000000  0.5332630000000 1.0
C      1  0.4736090000000  0.4811200000000  0.5180880000000 1.0
C      1  0.4701450000000  0.4846200000000  0.4854850000000 1.0
C      1  0.4995240000000  0.5191940000000  0.4680680000000 1.0
C      1  0.5283740000000  0.5152600000000  0.4827220000000 1.0
C      1  0.5278200000000  0.5183570000000  0.5154540000000 1.0
C      1  0.5006840000000  0.5156140000000  0.5328920000000 1.0
C      1  0.4725960000000  0.5186640000000  0.5162840000000 1.0
C      1  0.4711220000000  0.5159470000000  0.4840930000000 1.0
C      1  0.4715530000000  0.4588540000000  0.4333710000000 1.0
C      1  0.5437080000000  0.4579060000000  0.4422000000000 1.0
C      1  0.5723610000000  0.4576320000000  0.5085070000000 1.0
C      1  0.5283420000000  0.4580100000000  0.5661530000000 1.0
C      1  0.4567430000000  0.4582470000000  0.5582870000000 1.0
C      1  0.4286820000000  0.4581330000000  0.4913400000000 1.0
C      1  0.4748620000000  0.5422790000000  0.4317150000000 1.0
C      1  0.5461620000000  0.5419870000000  0.4449830000000 1.0
C      1  0.5712580000000  0.5410210000000  0.5125300000000 1.0
C      1  0.5244130000000  0.5421880000000  0.5681140000000 1.0
C      1  0.4532140000000  0.5416790000000  0.5555640000000 1.0
C      1  0.4286120000000  0.5422580000000  0.4872050000000 1.0
C      1  0.4798500000000  0.5506840000000  0.5537080000000 1.0
C      1  0.4432590000000  0.5512880000000  0.5094960000000 1.0
C      1  0.4631830000000  0.5511730000000  0.4557550000000 1.0
C      1  0.5197280000000  0.5518870000000  0.4458010000000 1.0
C      1  0.5561090000000  0.5496220000000  0.4903440000000 1.0
C      1  0.5364310000000  0.5510120000000  0.5442210000000 1.0
C      1  0.4834230000000  0.4498300000000  0.5547110000000 1.0
C      1  0.4439770000000  0.4484850000000  0.5130260000000 1.0
C      1  0.4612600000000  0.4502850000000  0.4581980000000 1.0
C      1  0.5171460000000  0.4490450000000  0.4452250000000 1.0
C      1  0.5561650000000  0.4488080000000  0.4872100000000 1.0
C      1  0.5394910000000  0.4481630000000  0.5421500000000 1.0
END
