TITL C-8706-7473-192 8.35830457537122e-05 125000 -352.28852720024 0 0 60 (Ci) n - 1
REM
REM in /home/bkarasulu/CARBON/AIRSS/Generating-Clusters/EDIP-Nigel-Params/Higher-Symm/Box-15A/Only-C60/SD-CG/HFTN-CG
REM
REM
REM
REM
REM
REM ./C.cell (414f73aa93bd7a1190c7fd0f31ff2f98)
REM
REM compiler GCC version 9.2.1 20190827 (Red Hat 9.2.1-1)
REM options -cpp -mtune=generic -march=x86-64 -g -O0 -fpre-include=/usr/include/finclude/math-vector-fortran.h
REM seed 1936628993 1911057505 -502562745 518553481 1350780905 -1607777015 -1943684070 1083598482 -1106784448 1404990255 -871116486 1904863516 -808319744 363632413 -930184047 -39811739 40972286 -386413363 -1005172089 115114324 1870509993 -8801296 -221564771 -1628299887 -1898776864 -2074073211 366892368 -2024244511 -26338600 507695461 -1097361842 -540100222 2115361294
REM
CELL 1.54180   50.00000   50.00000   50.00000   90.00000   90.00000   90.00000
LATT -1
SFAC C  
C      1  0.5556320000000  0.5373050000000  0.4866810000000 1.0
C      1  0.4443680000000  0.4626950000000  0.5133190000000 1.0
C      1  0.4333740000000  0.4869720000000  0.4673340000000 1.0
C      1  0.5666260000000  0.5130280000000  0.5326660000000 1.0
C      1  0.5001720000000  0.5051690000000  0.4643540000000 1.0
C      1  0.4998280000000  0.4948310000000  0.5356460000000 1.0
C      1  0.5230930000000  0.4512110000000  0.5282020000000 1.0
C      1  0.4769070000000  0.5487890000000  0.4717980000000 1.0
C      1  0.4669990000000  0.4457820000000  0.5213850000000 1.0
C      1  0.5330010000000  0.5542180000000  0.4786150000000 1.0
C      1  0.4440660000000  0.5174860000000  0.4453430000000 1.0
C      1  0.5559340000000  0.4825140000000  0.5546570000000 1.0
C      1  0.5497070000000  0.5115800000000  0.5564920000000 1.0
C      1  0.4502930000000  0.4884200000000  0.4435080000000 1.0
C      1  0.5241780000000  0.5273560000000  0.5514950000000 1.0
C      1  0.4758220000000  0.4726440000000  0.4485050000000 1.0
C      1  0.5472360000000  0.4589350000000  0.4842850000000 1.0
C      1  0.4527640000000  0.5410650000000  0.5157150000000 1.0
C      1  0.4769690000000  0.5005060000000  0.4908660000000 1.0
C      1  0.5230310000000  0.4994940000000  0.5091340000000 1.0
C      1  0.4854730000000  0.5126260000000  0.4317700000000 1.0
C      1  0.5145270000000  0.4873740000000  0.5682300000000 1.0
C      1  0.4907830000000  0.5000230000000  0.5786970000000 1.0
C      1  0.5092170000000  0.4999770000000  0.4213030000000 1.0
C      1  0.4773270000000  0.4550510000000  0.5481460000000 1.0
C      1  0.5226730000000  0.5449490000000  0.4518540000000 1.0
C      1  0.5525760000000  0.5316240000000  0.5154080000000 1.0
C      1  0.4474240000000  0.4683760000000  0.4845920000000 1.0
C      1  0.4849690000000  0.4795770000000  0.5122560000000 1.0
C      1  0.5150310000000  0.5204230000000  0.4877440000000 1.0
C      1  0.5264870000000  0.4655210000000  0.4435210000000 1.0
C      1  0.4735130000000  0.5344790000000  0.5564790000000 1.0
C      1  0.5082840000000  0.4267490000000  0.4725900000000 1.0
C      1  0.4917160000000  0.5732510000000  0.5274100000000 1.0
C      1  0.5102400000000  0.5584790000000  0.5102470000000 1.0
C      1  0.4897600000000  0.4415210000000  0.4897530000000 1.0
C      1  0.4732020000000  0.5522740000000  0.5334720000000 1.0
C      1  0.5267980000000  0.4477260000000  0.4665280000000 1.0
C      1  0.5677310000000  0.4900790000000  0.4813910000000 1.0
C      1  0.4322690000000  0.5099210000000  0.5186090000000 1.0
C      1  0.5604630000000  0.5151180000000  0.4673140000000 1.0
C      1  0.4395370000000  0.4848820000000  0.5326860000000 1.0
C      1  0.4698060000000  0.4551650000000  0.4715260000000 1.0
C      1  0.5301940000000  0.5448350000000  0.5284740000000 1.0
C      1  0.5058340000000  0.4474020000000  0.5525230000000 1.0
C      1  0.4941660000000  0.5525980000000  0.4474770000000 1.0
C      1  0.4912910000000  0.5371010000000  0.4964220000000 1.0
C      1  0.5087090000000  0.4628990000000  0.5035780000000 1.0
C      1  0.4992390000000  0.5286130000000  0.5700470000000 1.0
C      1  0.5007610000000  0.4713870000000  0.4299530000000 1.0
C      1  0.5307740000000  0.4913490000000  0.4587320000000 1.0
C      1  0.4692260000000  0.5086510000000  0.5412680000000 1.0
C      1  0.5505380000000  0.4653270000000  0.5315460000000 1.0
C      1  0.4494620000000  0.5346730000000  0.4684540000000 1.0
C      1  0.5171560000000  0.4600710000000  0.5753300000000 1.0
C      1  0.4828440000000  0.5399290000000  0.4246700000000 1.0
C      1  0.4662770000000  0.4824210000000  0.5613020000000 1.0
C      1  0.5337230000000  0.5175790000000  0.4386980000000 1.0
C      1  0.5491940000000  0.4818140000000  0.5057390000000 1.0
C      1  0.4508060000000  0.5181860000000  0.4942610000000 1.0
END
