TITL C-8704-7456-63 2.66400624573047e-06 125000 -373.077834582067 0 0 60 (C1) n - 1
REM
REM in /home/bkarasulu/CARBON/AIRSS/Generating-Clusters/EDIP-Nigel-Params/Higher-Symm/Box-15A/Only-C60/SD-CG/HFTN-CG
REM
REM
REM
REM
REM
REM ./C.cell (414f73aa93bd7a1190c7fd0f31ff2f98)
REM
REM compiler GCC version 9.2.1 20190827 (Red Hat 9.2.1-1)
REM options -cpp -mtune=generic -march=x86-64 -g -O0 -fpre-include=/usr/include/finclude/math-vector-fortran.h
REM seed -1900905081 -1098784592 1636193340 177732292 900393662 -633021398 735330311 -1880168931 -2066599078 -1619466227 1278951518 1276757885 44351483 -61894852 -1038538788 -1727572313 -1307929282 38468068 785847223 572363100 1691642493 -840804435 -281611349 1449201657 -406932782 1555915808 -1574023290 2130351704 28840979 2039696830 1754307038 308354951 -921136732
REM
CELL 1.54180   50.00000   50.00000   50.00000   90.00000   90.00000   90.00000
LATT -1
SFAC C  
C      1  0.5146640000000  0.5204450000000  0.5702950000000 1.0
C      1  0.4879690000000  0.4846220000000  0.4461860000000 1.0
C      1  0.5312460000000  0.5759890000000  0.4581630000000 1.0
C      1  0.5710600000000  0.5156470000000  0.4751840000000 1.0
C      1  0.4919240000000  0.5581630000000  0.4482930000000 1.0
C      1  0.4410270000000  0.4691510000000  0.4621250000000 1.0
C      1  0.5345660000000  0.4358910000000  0.4799430000000 1.0
C      1  0.5211720000000  0.5281110000000  0.4196210000000 1.0
C      1  0.5146010000000  0.4473930000000  0.4613670000000 1.0
C      1  0.5499880000000  0.4510620000000  0.5002670000000 1.0
C      1  0.4222810000000  0.4850830000000  0.5048350000000 1.0
C      1  0.5342780000000  0.4694080000000  0.5467450000000 1.0
C      1  0.5373400000000  0.4457280000000  0.5284140000000 1.0
C      1  0.4737720000000  0.4242000000000  0.4868340000000 1.0
C      1  0.5702310000000  0.5211850000000  0.5033590000000 1.0
C      1  0.4846790000000  0.4688710000000  0.5654350000000 1.0
C      1  0.4439090000000  0.5303120000000  0.5543960000000 1.0
C      1  0.4740340000000  0.4951380000000  0.5619940000000 1.0
C      1  0.4845360000000  0.4430420000000  0.4671920000000 1.0
C      1  0.5027310000000  0.5675210000000  0.5032370000000 1.0
C      1  0.5419580000000  0.4963590000000  0.5372010000000 1.0
C      1  0.4791700000000  0.5148400000000  0.4938150000000 1.0
C      1  0.5193930000000  0.4892380000000  0.4873530000000 1.0
C      1  0.5158930000000  0.4777950000000  0.4580290000000 1.0
C      1  0.4790120000000  0.5127580000000  0.4432790000000 1.0
C      1  0.4696900000000  0.5532820000000  0.4672360000000 1.0
C      1  0.5029950000000  0.4273990000000  0.5266930000000 1.0
C      1  0.4719710000000  0.5398950000000  0.5617100000000 1.0
C      1  0.5488900000000  0.4806110000000  0.4929110000000 1.0
C      1  0.5625310000000  0.4878770000000  0.4670600000000 1.0
C      1  0.5080490000000  0.5597320000000  0.5323580000000 1.0
C      1  0.5241560000000  0.5439300000000  0.4955370000000 1.0
C      1  0.5024530000000  0.4754630000000  0.5067930000000 1.0
C      1  0.5125820000000  0.4670350000000  0.5644030000000 1.0
C      1  0.4751220000000  0.4203180000000  0.5165920000000 1.0
C      1  0.4648960000000  0.5231370000000  0.4675540000000 1.0
C      1  0.4975790000000  0.5337120000000  0.4338140000000 1.0
C      1  0.5561050000000  0.5343650000000  0.4577080000000 1.0
C      1  0.4866520000000  0.5401090000000  0.5363020000000 1.0
C      1  0.4683320000000  0.4646680000000  0.4556580000000 1.0
C      1  0.4410360000000  0.5303870000000  0.5230250000000 1.0
C      1  0.4459510000000  0.4991830000000  0.5536670000000 1.0
C      1  0.5428000000000  0.5556790000000  0.4736720000000 1.0
C      1  0.4735390000000  0.5622080000000  0.4959350000000 1.0
C      1  0.5342420000000  0.5215730000000  0.5498820000000 1.0
C      1  0.4868020000000  0.5179680000000  0.5748850000000 1.0
C      1  0.5595040000000  0.4975810000000  0.5141520000000 1.0
C      1  0.4687950000000  0.5375090000000  0.5129360000000 1.0
C      1  0.4385160000000  0.4999230000000  0.5228390000000 1.0
C      1  0.4343700000000  0.4651080000000  0.4891500000000 1.0
C      1  0.4692380000000  0.4501580000000  0.5520470000000 1.0
C      1  0.4575330000000  0.4414990000000  0.5281810000000 1.0
C      1  0.4606000000000  0.4577660000000  0.5011040000000 1.0
C      1  0.5093900000000  0.5179340000000  0.4892240000000 1.0
C      1  0.5073140000000  0.5816880000000  0.4470050000000 1.0
C      1  0.4759100000000  0.4848120000000  0.5047110000000 1.0
C      1  0.5071990000000  0.4468040000000  0.5044760000000 1.0
C      1  0.5335880000000  0.5451110000000  0.5323740000000 1.0
C      1  0.5415710000000  0.4894140000000  0.4451930000000 1.0
C      1  0.5386660000000  0.5182080000000  0.4396530000000 1.0
END
