TITL C-8702-7969-204 4.78927882394224e-05 125000 -358.59001882417 0 0 60 (C1) n - 1
REM
REM in /home/bkarasulu/CARBON/AIRSS/Generating-Clusters/EDIP-Nigel-Params/Higher-Symm/Box-15A/Only-C60/SD-CG/HFTN-CG
REM
REM
REM
REM
REM
REM ./C.cell (414f73aa93bd7a1190c7fd0f31ff2f98)
REM
REM compiler GCC version 9.2.1 20190827 (Red Hat 9.2.1-1)
REM options -cpp -mtune=generic -march=x86-64 -g -O0 -fpre-include=/usr/include/finclude/math-vector-fortran.h
REM seed -1688157403 298324651 440590698 2103046978 -1816460513 -1747644162 -908249166 -782963013 1211997182 -650015782 -590519602 -481909859 294459394 -61248981 2131046949 1482790215 185372431 -1402558601 -606201785 -1823184196 236653965 826555816 2129803973 822232697 -2069157249 1266651686 -1298181255 530946936 1996218392 264919957 1045271274 -1755817343 -4233308
REM
CELL 1.54180   50.00000   50.00000   50.00000   90.00000   90.00000   90.00000
LATT -1
SFAC C  
C      1  0.4555750000000  0.5613750000000  0.5157420000000 1.0
C      1  0.4952910000000  0.5079270000000  0.5768690000000 1.0
C      1  0.4662620000000  0.4410570000000  0.4472070000000 1.0
C      1  0.4419310000000  0.5313890000000  0.4859660000000 1.0
C      1  0.5569640000000  0.5400580000000  0.4659410000000 1.0
C      1  0.4843330000000  0.4319810000000  0.4874580000000 1.0
C      1  0.4765340000000  0.5133520000000  0.4845350000000 1.0
C      1  0.4406440000000  0.4750540000000  0.5167570000000 1.0
C      1  0.5690590000000  0.5151120000000  0.4854880000000 1.0
C      1  0.4795340000000  0.4798070000000  0.4981370000000 1.0
C      1  0.5373240000000  0.5370900000000  0.4893380000000 1.0
C      1  0.4301140000000  0.5242570000000  0.5130380000000 1.0
C      1  0.5380410000000  0.4455410000000  0.4623360000000 1.0
C      1  0.5195970000000  0.4500260000000  0.5058380000000 1.0
C      1  0.5014770000000  0.5217160000000  0.4650060000000 1.0
C      1  0.5416000000000  0.4360070000000  0.4907800000000 1.0
C      1  0.4786140000000  0.5504060000000  0.5302780000000 1.0
C      1  0.4625290000000  0.4591290000000  0.5260870000000 1.0
C      1  0.5296190000000  0.4618990000000  0.5424610000000 1.0
C      1  0.4972230000000  0.4585760000000  0.4877170000000 1.0
C      1  0.5374070000000  0.5515710000000  0.4475860000000 1.0
C      1  0.4814780000000  0.4929920000000  0.5558830000000 1.0
C      1  0.5500430000000  0.5405090000000  0.5156030000000 1.0
C      1  0.4835790000000  0.5346430000000  0.5774810000000 1.0
C      1  0.5258100000000  0.4875350000000  0.4403780000000 1.0
C      1  0.4572440000000  0.5205510000000  0.4386110000000 1.0
C      1  0.5636010000000  0.5102550000000  0.5464250000000 1.0
C      1  0.5135710000000  0.4349350000000  0.4519500000000 1.0
C      1  0.4565260000000  0.4669030000000  0.4434680000000 1.0
C      1  0.4582720000000  0.5083990000000  0.5491650000000 1.0
C      1  0.5108980000000  0.5695520000000  0.5004200000000 1.0
C      1  0.4872090000000  0.4266720000000  0.4589430000000 1.0
C      1  0.4634300000000  0.5374700000000  0.5538760000000 1.0
C      1  0.5063070000000  0.5569140000000  0.5247970000000 1.0
C      1  0.5396320000000  0.5226140000000  0.5549910000000 1.0
C      1  0.4802420000000  0.4647020000000  0.5481620000000 1.0
C      1  0.4376180000000  0.4726750000000  0.4891460000000 1.0
C      1  0.4450060000000  0.5023580000000  0.5246020000000 1.0
C      1  0.5417350000000  0.4748300000000  0.4598100000000 1.0
C      1  0.5042710000000  0.5513520000000  0.5803410000000 1.0
C      1  0.5203970000000  0.5126210000000  0.4868550000000 1.0
C      1  0.5641450000000  0.4474480000000  0.5063160000000 1.0
C      1  0.5044760000000  0.4474380000000  0.5463930000000 1.0
C      1  0.4770650000000  0.5032550000000  0.4280750000000 1.0
C      1  0.4413900000000  0.5120010000000  0.4604060000000 1.0
C      1  0.4663370000000  0.4788020000000  0.4199650000000 1.0
C      1  0.5159950000000  0.5715250000000  0.4734250000000 1.0
C      1  0.5023090000000  0.5026350000000  0.4429700000000 1.0
C      1  0.5762920000000  0.4676860000000  0.4915120000000 1.0
C      1  0.5092430000000  0.5501580000000  0.4551030000000 1.0
C      1  0.4345930000000  0.5473130000000  0.5308140000000 1.0
C      1  0.4520900000000  0.5586080000000  0.4874570000000 1.0
C      1  0.5640820000000  0.4866760000000  0.4754160000000 1.0
C      1  0.5542290000000  0.4542360000000  0.5319340000000 1.0
C      1  0.5021750000000  0.4303290000000  0.5216070000000 1.0
C      1  0.5229630000000  0.5135890000000  0.5757530000000 1.0
C      1  0.5288430000000  0.5405550000000  0.5348520000000 1.0
C      1  0.5686340000000  0.5187590000000  0.5195730000000 1.0
C      1  0.4995440000000  0.5031530000000  0.5065270000000 1.0
C      1  0.4490520000000  0.4840230000000  0.4664320000000 1.0
END
