TITL C-8706-7473-90 -7.59942961809921e-06 125000 -366.512340616288 0 0 60 (C1) n - 1
REM
REM in /home/bkarasulu/CARBON/AIRSS/Generating-Clusters/EDIP-Nigel-Params/Higher-Symm/Box-15A/Only-C60/SD-CG/HFTN-CG
REM
REM
REM
REM
REM
REM ./C.cell (414f73aa93bd7a1190c7fd0f31ff2f98)
REM
REM compiler GCC version 9.2.1 20190827 (Red Hat 9.2.1-1)
REM options -cpp -mtune=generic -march=x86-64 -g -O0 -fpre-include=/usr/include/finclude/math-vector-fortran.h
REM seed -1951284417 970589575 -968436189 -1666191605 310243137 -209070535 -102098035 1928509828 845598899 -969874594 -611351347 -1381581428 -175264830 674890931 910386749 -719996597 -1682868314 -69501113 915757678 141273810 866673137 -833356464 1999866695 -1187776049 -275996574 -480143702 1204406778 -1131986035 -1659683804 1682455314 -290747394 1004888977 -473313673
REM
CELL 1.54180   50.00000   50.00000   50.00000   90.00000   90.00000   90.00000
LATT -1
SFAC C  
C      1  0.5186380000000  0.5210910000000  0.5530220000000 1.0
C      1  0.5227950000000  0.4404740000000  0.4961700000000 1.0
C      1  0.5230000000000  0.5328940000000  0.4508810000000 1.0
C      1  0.4740100000000  0.4842040000000  0.4699950000000 1.0
C      1  0.4765250000000  0.5346390000000  0.4925620000000 1.0
C      1  0.4777820000000  0.4970450000000  0.5164930000000 1.0
C      1  0.5059090000000  0.4447800000000  0.5400710000000 1.0
C      1  0.5095680000000  0.4980990000000  0.4223800000000 1.0
C      1  0.5026490000000  0.5599500000000  0.5331820000000 1.0
C      1  0.5447500000000  0.5133270000000  0.4479550000000 1.0
C      1  0.5401650000000  0.5352360000000  0.5385020000000 1.0
C      1  0.5461290000000  0.4453040000000  0.5144860000000 1.0
C      1  0.4383300000000  0.4990220000000  0.4480250000000 1.0
C      1  0.4418720000000  0.5398670000000  0.5251090000000 1.0
C      1  0.4431230000000  0.4690410000000  0.5311610000000 1.0
C      1  0.5440810000000  0.4769530000000  0.5547140000000 1.0
C      1  0.5461770000000  0.4604260000000  0.4575450000000 1.0
C      1  0.5444240000000  0.5548270000000  0.4886970000000 1.0
C      1  0.5022800000000  0.4450720000000  0.4520620000000 1.0
C      1  0.5035570000000  0.5720100000000  0.4736820000000 1.0
C      1  0.5022060000000  0.4808960000000  0.5805220000000 1.0
C      1  0.5563530000000  0.5183660000000  0.5214230000000 1.0
C      1  0.5610790000000  0.4696060000000  0.5063510000000 1.0
C      1  0.5584430000000  0.5073940000000  0.4729470000000 1.0
C      1  0.4479930000000  0.5251430000000  0.4600880000000 1.0
C      1  0.4489280000000  0.5205240000000  0.5476600000000 1.0
C      1  0.4539650000000  0.4602620000000  0.5016370000000 1.0
C      1  0.4734570000000  0.5294180000000  0.4304110000000 1.0
C      1  0.4699530000000  0.5337860000000  0.5615340000000 1.0
C      1  0.4687580000000  0.4349290000000  0.5118030000000 1.0
C      1  0.5031010000000  0.5258860000000  0.4304870000000 1.0
C      1  0.4964530000000  0.5401490000000  0.5542690000000 1.0
C      1  0.4987340000000  0.4370050000000  0.5134040000000 1.0
C      1  0.4804140000000  0.5725500000000  0.5178520000000 1.0
C      1  0.4830020000000  0.4480800000000  0.5574100000000 1.0
C      1  0.4839020000000  0.4818650000000  0.4238850000000 1.0
C      1  0.4964430000000  0.5205690000000  0.5152020000000 1.0
C      1  0.4821260000000  0.4746790000000  0.4977480000000 1.0
C      1  0.4796540000000  0.5165490000000  0.4663840000000 1.0
C      1  0.5352230000000  0.4492060000000  0.5433370000000 1.0
C      1  0.5346040000000  0.4887470000000  0.4357500000000 1.0
C      1  0.5302340000000  0.5581340000000  0.5230370000000 1.0
C      1  0.5215940000000  0.4938440000000  0.5650110000000 1.0
C      1  0.5256790000000  0.4417120000000  0.4665380000000 1.0
C      1  0.5263600000000  0.5579670000000  0.4661470000000 1.0
C      1  0.4603420000000  0.5021770000000  0.4247850000000 1.0
C      1  0.4554410000000  0.5646240000000  0.5287220000000 1.0
C      1  0.4580560000000  0.4426310000000  0.5413550000000 1.0
C      1  0.4815480000000  0.5645290000000  0.4891400000000 1.0
C      1  0.4838740000000  0.4612100000000  0.5822410000000 1.0
C      1  0.4840840000000  0.4659510000000  0.4485170000000 1.0
C      1  0.4474930000000  0.5298350000000  0.4983290000000 1.0
C      1  0.4589130000000  0.4935430000000  0.5378070000000 1.0
C      1  0.4447150000000  0.4791340000000  0.4686320000000 1.0
C      1  0.5185800000000  0.4839410000000  0.4898970000000 1.0
C      1  0.5163990000000  0.5151670000000  0.4905860000000 1.0
C      1  0.5208230000000  0.4914740000000  0.5207810000000 1.0
C      1  0.5458950000000  0.5253160000000  0.4937150000000 1.0
C      1  0.5510690000000  0.4894810000000  0.5273340000000 1.0
C      1  0.5483420000000  0.4794670000000  0.4806270000000 1.0
END
