TITL C-8702-7969-308 1.811190557002e-06 125000 -359.238812682777 0 0 60 (C1) n - 1
REM
REM in /home/bkarasulu/CARBON/AIRSS/Generating-Clusters/EDIP-Nigel-Params/Higher-Symm/Box-15A/Only-C60/SD-CG/HFTN-CG
REM
REM
REM
REM
REM
REM ./C.cell (414f73aa93bd7a1190c7fd0f31ff2f98)
REM
REM compiler GCC version 9.2.1 20190827 (Red Hat 9.2.1-1)
REM options -cpp -mtune=generic -march=x86-64 -g -O0 -fpre-include=/usr/include/finclude/math-vector-fortran.h
REM seed -652027291 2107179220 -1147342230 1746895464 -1921466707 -1841930762 767971033 -1229125437 -759358458 -1342904558 -625760754 1171218463 121047143 -747182777 -2007024765 -345022470 1254520081 403100982 -1808720092 1968662148 -2002102270 -1186167315 -1762085063 -2099509599 -2123419900 1568263153 244159635 -1858470415 1426346277 -372914453 -944458113 -353840529 -1082591964
REM
CELL 1.54180   50.00000   50.00000   50.00000   90.00000   90.00000   90.00000
LATT -1
SFAC C  
C      1  0.4711380000000  0.5088350000000  0.4412960000000 1.0
C      1  0.4722780000000  0.5586050000000  0.5088810000000 1.0
C      1  0.4730890000000  0.4917240000000  0.5580700000000 1.0
C      1  0.4721500000000  0.4419990000000  0.4914740000000 1.0
C      1  0.5231890000000  0.5012330000000  0.4389850000000 1.0
C      1  0.5237540000000  0.5624720000000  0.5014790000000 1.0
C      1  0.5243260000000  0.4975620000000  0.5612380000000 1.0
C      1  0.5239220000000  0.4395220000000  0.4970680000000 1.0
C      1  0.5468930000000  0.5008720000000  0.5387720000000 1.0
C      1  0.5475880000000  0.4608410000000  0.5027860000000 1.0
C      1  0.5473270000000  0.4968480000000  0.4610130000000 1.0
C      1  0.5463810000000  0.5390080000000  0.4988000000000 1.0
C      1  0.4532750000000  0.4965340000000  0.5351860000000 1.0
C      1  0.4528830000000  0.4651750000000  0.4968890000000 1.0
C      1  0.4515950000000  0.5032510000000  0.4645020000000 1.0
C      1  0.4521100000000  0.5357320000000  0.5039390000000 1.0
C      1  0.5230850000000  0.4700940000000  0.5687500000000 1.0
C      1  0.5233000000000  0.4317780000000  0.4697170000000 1.0
C      1  0.5236640000000  0.5287990000000  0.4318600000000 1.0
C      1  0.5233510000000  0.5694700000000  0.5291560000000 1.0
C      1  0.4781160000000  0.4640970000000  0.5536960000000 1.0
C      1  0.4769650000000  0.4458690000000  0.4638290000000 1.0
C      1  0.4770920000000  0.5363380000000  0.4453560000000 1.0
C      1  0.4782170000000  0.5540220000000  0.5363140000000 1.0
C      1  0.4382410000000  0.5270980000000  0.4778590000000 1.0
C      1  0.4389820000000  0.5226230000000  0.5278590000000 1.0
C      1  0.4392170000000  0.4727160000000  0.5231520000000 1.0
C      1  0.4382070000000  0.4771400000000  0.4732840000000 1.0
C      1  0.5581770000000  0.5234000000000  0.4738020000000 1.0
C      1  0.5591800000000  0.5267210000000  0.5249220000000 1.0
C      1  0.5616350000000  0.4756210000000  0.5276900000000 1.0
C      1  0.5606560000000  0.4728200000000  0.4771530000000 1.0
C      1  0.4931240000000  0.4611440000000  0.4463340000000 1.0
C      1  0.4941640000000  0.5528530000000  0.4610980000000 1.0
C      1  0.4953030000000  0.5387500000000  0.5531030000000 1.0
C      1  0.4944630000000  0.4469330000000  0.5381310000000 1.0
C      1  0.5200710000000  0.4567590000000  0.4566900000000 1.0
C      1  0.5209280000000  0.5410090000000  0.4574510000000 1.0
C      1  0.5214930000000  0.5435610000000  0.5410710000000 1.0
C      1  0.5209670000000  0.4574670000000  0.5433250000000 1.0
C      1  0.4121060000000  0.5139300000000  0.5179880000000 1.0
C      1  0.4121960000000  0.4827990000000  0.5151770000000 1.0
C      1  0.4116150000000  0.4856070000000  0.4840750000000 1.0
C      1  0.4116530000000  0.5167230000000  0.4868700000000 1.0
C      1  0.5858140000000  0.5173300000000  0.5151100000000 1.0
C      1  0.5873810000000  0.4861170000000  0.5169310000000 1.0
C      1  0.5867270000000  0.4842960000000  0.4858520000000 1.0
C      1  0.5851330000000  0.5153560000000  0.4839340000000 1.0
C      1  0.4839700000000  0.5148990000000  0.4828630000000 1.0
C      1  0.4851210000000  0.5170070000000  0.5138550000000 1.0
C      1  0.4861240000000  0.4856080000000  0.5166820000000 1.0
C      1  0.4851090000000  0.4833850000000  0.4846470000000 1.0
C      1  0.5148060000000  0.5181360000000  0.4789070000000 1.0
C      1  0.5161820000000  0.5223290000000  0.5177360000000 1.0
C      1  0.5185290000000  0.4799660000000  0.5212440000000 1.0
C      1  0.5171860000000  0.4791200000000  0.4787610000000 1.0
C      1  0.4965180000000  0.4436870000000  0.5085840000000 1.0
C      1  0.4950560000000  0.4907600000000  0.4423830000000 1.0
C      1  0.4961520000000  0.5565920000000  0.4908820000000 1.0
C      1  0.4972330000000  0.5090610000000  0.5555400000000 1.0
END
