TITL C-8702-7969-274 -4.84403120000983e-07 125000 -363.013225525355 0 0 60 (C2) n - 1
REM
REM in /home/bkarasulu/CARBON/AIRSS/Generating-Clusters/EDIP-Nigel-Params/Higher-Symm/Box-15A/Only-C60/SD-CG/HFTN-CG
REM
REM
REM
REM
REM
REM ./C.cell (414f73aa93bd7a1190c7fd0f31ff2f98)
REM
REM compiler GCC version 9.2.1 20190827 (Red Hat 9.2.1-1)
REM options -cpp -mtune=generic -march=x86-64 -g -O0 -fpre-include=/usr/include/finclude/math-vector-fortran.h
REM seed 1420406159 -2002667690 -870292554 2140211270 943125243 -25226232 457676127 -1160336257 -529822175 -809380079 -2060838658 1460851177 -2105042544 -316243932 -1643518601 1704694201 -1283563955 1340151217 -596097952 -1998825911 1010806814 1471181150 2106767316 431196645 69844293 153960250 1745482733 -251548104 840622541 -395449536 1656742493 1153662289 272806544
REM
CELL 1.54180   50.00000   50.00000   50.00000   90.00000   90.00000   90.00000
LATT -1
SFAC C  
C      1  0.5593680000000  0.4830500000000  0.4482180000000 1.0
C      1  0.4406310000000  0.4830590000000  0.5517840000000 1.0
C      1  0.4513250000000  0.4508290000000  0.5082580000000 1.0
C      1  0.5486730000000  0.4508260000000  0.4917490000000 1.0
C      1  0.5609370000000  0.4797180000000  0.4961550000000 1.0
C      1  0.4390620000000  0.4797210000000  0.5038480000000 1.0
C      1  0.4828530000000  0.5500290000000  0.5306310000000 1.0
C      1  0.5171490000000  0.5500240000000  0.4693620000000 1.0
C      1  0.4624520000000  0.4632530000000  0.4294630000000 1.0
C      1  0.5375470000000  0.4632610000000  0.5705420000000 1.0
C      1  0.4383840000000  0.4972360000000  0.5276970000000 1.0
C      1  0.5616160000000  0.4972300000000  0.4723030000000 1.0
C      1  0.4672820000000  0.4429740000000  0.4820790000000 1.0
C      1  0.5327160000000  0.4429750000000  0.5179290000000 1.0
C      1  0.4842040000000  0.4755090000000  0.4478690000000 1.0
C      1  0.5157950000000  0.4755150000000  0.5521340000000 1.0
C      1  0.4969000000000  0.5645730000000  0.4855120000000 1.0
C      1  0.5031030000000  0.5645750000000  0.5144790000000 1.0
C      1  0.5184780000000  0.4551510000000  0.4760210000000 1.0
C      1  0.4815200000000  0.4551550000000  0.5239850000000 1.0
C      1  0.5128080000000  0.5219080000000  0.5151630000000 1.0
C      1  0.4871930000000  0.5219060000000  0.4848340000000 1.0
C      1  0.4308430000000  0.5244690000000  0.4795560000000 1.0
C      1  0.5691580000000  0.5244680000000  0.5204410000000 1.0
C      1  0.5512720000000  0.4894470000000  0.5739950000000 1.0
C      1  0.4487270000000  0.4894400000000  0.4260060000000 1.0
C      1  0.5248590000000  0.5137850000000  0.4375650000000 1.0
C      1  0.4751420000000  0.5137940000000  0.5624330000000 1.0
C      1  0.4726760000000  0.4716320000000  0.4757820000000 1.0
C      1  0.5273220000000  0.4716340000000  0.5242220000000 1.0
C      1  0.4604160000000  0.5465360000000  0.4549890000000 1.0
C      1  0.5395860000000  0.5465400000000  0.5450050000000 1.0
C      1  0.4800870000000  0.5295810000000  0.4419610000000 1.0
C      1  0.5199140000000  0.5295880000000  0.5580350000000 1.0
C      1  0.5132800000000  0.4670450000000  0.4483450000000 1.0
C      1  0.4867190000000  0.4670520000000  0.5516590000000 1.0
C      1  0.4968610000000  0.4343650000000  0.4854050000000 1.0
C      1  0.5031360000000  0.4343670000000  0.5146040000000 1.0
C      1  0.4560920000000  0.5226800000000  0.5242920000000 1.0
C      1  0.5439090000000  0.5226750000000  0.4757050000000 1.0
C      1  0.5539790000000  0.5395470000000  0.4990550000000 1.0
C      1  0.4460230000000  0.5395490000000  0.5009390000000 1.0
C      1  0.5198500000000  0.5077170000000  0.4881970000000 1.0
C      1  0.4801500000000  0.5077190000000  0.5118020000000 1.0
C      1  0.4669430000000  0.4871280000000  0.5601980000000 1.0
C      1  0.5330570000000  0.4871180000000  0.4398030000000 1.0
C      1  0.5665230000000  0.5378270000000  0.5454770000000 1.0
C      1  0.4334780000000  0.5378240000000  0.4545180000000 1.0
C      1  0.5082350000000  0.5333930000000  0.4477600000000 1.0
C      1  0.4917670000000  0.5334000000000  0.5522350000000 1.0
C      1  0.5294560000000  0.5481780000000  0.5171640000000 1.0
C      1  0.4705460000000  0.5481770000000  0.4828290000000 1.0
C      1  0.4727160000000  0.5063170000000  0.4273450000000 1.0
C      1  0.5272840000000  0.5063260000000  0.5726540000000 1.0
C      1  0.4366900000000  0.4820990000000  0.4521230000000 1.0
C      1  0.5633100000000  0.4821030000000  0.5478800000000 1.0
C      1  0.5143320000000  0.4785610000000  0.4970120000000 1.0
C      1  0.4856670000000  0.4785620000000  0.5029900000000 1.0
C      1  0.5640550000000  0.4954420000000  0.5218130000000 1.0
C      1  0.4359440000000  0.4954410000000  0.4781870000000 1.0
END
