TITL C-8706-7473-215 -2.52396046136176e-06 125000 -347.843564619731 0 0 60 (C1) n - 1
REM
REM in /home/bkarasulu/CARBON/AIRSS/Generating-Clusters/EDIP-Nigel-Params/Higher-Symm/Box-15A/Only-C60/SD-CG/HFTN-CG
REM
REM
REM
REM
REM
REM ./C.cell (414f73aa93bd7a1190c7fd0f31ff2f98)
REM
REM compiler GCC version 9.2.1 20190827 (Red Hat 9.2.1-1)
REM options -cpp -mtune=generic -march=x86-64 -g -O0 -fpre-include=/usr/include/finclude/math-vector-fortran.h
REM seed 68438174 960325871 428481982 667914485 96629793 -442564159 -1786238464 2075255740 521459792 325068488 1422773519 2127408502 167607350 977004494 -1758608060 1913587453 -603709462 727209612 645086439 556316916 -698484976 -1445071078 -99700973 -1981479430 632865363 -1010766364 -693510034 1660575208 1440981317 15901569 -1678550395 1173077640 1708981518
REM
CELL 1.54180   50.00000   50.00000   50.00000   90.00000   90.00000   90.00000
LATT -1
SFAC C  
C      1  0.5223660000000  0.4436800000000  0.5230200000000 1.0
C      1  0.4464250000000  0.5237900000000  0.5133560000000 1.0
C      1  0.5209690000000  0.5208440000000  0.4473570000000 1.0
C      1  0.4793820000000  0.5590210000000  0.5203640000000 1.0
C      1  0.5189330000000  0.5543950000000  0.4763880000000 1.0
C      1  0.4847660000000  0.4480150000000  0.4785940000000 1.0
C      1  0.5575170000000  0.4793360000000  0.5163330000000 1.0
C      1  0.4292820000000  0.4761310000000  0.4883230000000 1.0
C      1  0.5507910000000  0.5237720000000  0.4802920000000 1.0
C      1  0.4782880000000  0.4833430000000  0.4455140000000 1.0
C      1  0.5226640000000  0.4769240000000  0.5525430000000 1.0
C      1  0.4820080000000  0.5139210000000  0.5725430000000 1.0
C      1  0.5148640000000  0.4544110000000  0.4758020000000 1.0
C      1  0.4522860000000  0.5216730000000  0.4827280000000 1.0
C      1  0.5247460000000  0.5081010000000  0.5460570000000 1.0
C      1  0.4881530000000  0.5453720000000  0.4747530000000 1.0
C      1  0.5092800000000  0.5502700000000  0.5218900000000 1.0
C      1  0.4924030000000  0.4515370000000  0.5254800000000 1.0
C      1  0.5498580000000  0.4772850000000  0.4865140000000 1.0
C      1  0.4370540000000  0.4767630000000  0.5159330000000 1.0
C      1  0.5446100000000  0.5253280000000  0.5122450000000 1.0
C      1  0.4770010000000  0.4861030000000  0.5666990000000 1.0
C      1  0.5247450000000  0.4902290000000  0.4532980000000 1.0
C      1  0.4737580000000  0.5123070000000  0.4517890000000 1.0
C      1  0.4322720000000  0.5487140000000  0.5117560000000 1.0
C      1  0.5446580000000  0.5151660000000  0.4310510000000 1.0
C      1  0.5140980000000  0.4267170000000  0.5458970000000 1.0
C      1  0.5738380000000  0.4563600000000  0.5089240000000 1.0
C      1  0.4320610000000  0.4480620000000  0.4829490000000 1.0
C      1  0.5667790000000  0.5467720000000  0.4885870000000 1.0
C      1  0.4542580000000  0.4783030000000  0.4312340000000 1.0
C      1  0.5481180000000  0.4845180000000  0.5658390000000 1.0
C      1  0.4558830000000  0.5250360000000  0.5686430000000 1.0
C      1  0.4796940000000  0.5649870000000  0.5502610000000 1.0
C      1  0.5095180000000  0.5695320000000  0.4530210000000 1.0
C      1  0.4903750000000  0.4327040000000  0.4545820000000 1.0
C      1  0.4421770000000  0.5589230000000  0.4872990000000 1.0
C      1  0.5617620000000  0.5072490000000  0.5547460000000 1.0
C      1  0.5094640000000  0.4460100000000  0.4384190000000 1.0
C      1  0.5596620000000  0.4399600000000  0.4905800000000 1.0
C      1  0.4469330000000  0.4406210000000  0.5067090000000 1.0
C      1  0.5543940000000  0.5621310000000  0.5089790000000 1.0
C      1  0.4429330000000  0.5018330000000  0.5573260000000 1.0
C      1  0.5614880000000  0.4955470000000  0.4428960000000 1.0
C      1  0.4365210000000  0.4962700000000  0.4430530000000 1.0
C      1  0.4900560000000  0.5556560000000  0.4375120000000 1.0
C      1  0.5072900000000  0.5536210000000  0.5534840000000 1.0
C      1  0.4936840000000  0.4392640000000  0.5617860000000 1.0
C      1  0.4944430000000  0.5270950000000  0.4356900000000 1.0
C      1  0.5310820000000  0.4381640000000  0.4951730000000 1.0
C      1  0.5636160000000  0.5062400000000  0.5259160000000 1.0
C      1  0.5637690000000  0.4989030000000  0.4714910000000 1.0
C      1  0.4986880000000  0.4673710000000  0.5664270000000 1.0
C      1  0.4704230000000  0.5609310000000  0.4923220000000 1.0
C      1  0.4363910000000  0.4990500000000  0.4712550000000 1.0
C      1  0.4366140000000  0.5015810000000  0.5293710000000 1.0
C      1  0.5079300000000  0.5257680000000  0.5637790000000 1.0
C      1  0.5262390000000  0.5645270000000  0.5032080000000 1.0
C      1  0.4755560000000  0.4392910000000  0.5043780000000 1.0
C      1  0.5051860000000  0.4745690000000  0.4376410000000 1.0
END
