TITL C-8703-8361-208 2.59619983782224e-05 125000 -357.267630210847 0 0 60 (C1) n - 1
REM
REM in /home/bkarasulu/CARBON/AIRSS/Generating-Clusters/EDIP-Nigel-Params/Higher-Symm/Box-15A/Only-C60/SD-CG/HFTN-CG
REM
REM
REM
REM
REM
REM ./C.cell (414f73aa93bd7a1190c7fd0f31ff2f98)
REM
REM compiler GCC version 9.2.1 20190827 (Red Hat 9.2.1-1)
REM options -cpp -mtune=generic -march=x86-64 -g -O0 -fpre-include=/usr/include/finclude/math-vector-fortran.h
REM seed -1012161986 -961860252 875981763 1745788389 -2118814068 -1709770091 -1964259436 1618418740 -218883766 1860366402 940870735 -358116739 -1997973306 -105232712 -556307242 1397812677 -1861978817 -217678640 -1091465745 384475866 -776645070 1157859446 212249849 1297417700 902808875 2128881994 2111150296 1591353749 -2001243879 1904564011 1115831283 1964926586 -1262286233
REM
CELL 1.54180   50.00000   50.00000   50.00000   90.00000   90.00000   90.00000
LATT -1
SFAC C  
C      1  0.5401200000000  0.4562540000000  0.5210430000000 1.0
C      1  0.5437860000000  0.5209870000000  0.5468670000000 1.0
C      1  0.5354140000000  0.5418200000000  0.4793080000000 1.0
C      1  0.5469160000000  0.4822810000000  0.4531480000000 1.0
C      1  0.5471060000000  0.5446480000000  0.5296440000000 1.0
C      1  0.5488390000000  0.4703710000000  0.5453910000000 1.0
C      1  0.5424100000000  0.4594580000000  0.4713520000000 1.0
C      1  0.5478170000000  0.5265750000000  0.4557000000000 1.0
C      1  0.4586280000000  0.5179930000000  0.5588620000000 1.0
C      1  0.4588630000000  0.5581340000000  0.4828430000000 1.0
C      1  0.4576800000000  0.4818230000000  0.4410180000000 1.0
C      1  0.4558820000000  0.4388380000000  0.5167880000000 1.0
C      1  0.4550900000000  0.4813870000000  0.5622870000000 1.0
C      1  0.4545350000000  0.4368380000000  0.4847780000000 1.0
C      1  0.4559450000000  0.5144950000000  0.4382790000000 1.0
C      1  0.4574570000000  0.5612390000000  0.5156570000000 1.0
C      1  0.5048380000000  0.5780070000000  0.4835090000000 1.0
C      1  0.5033340000000  0.4828560000000  0.4220970000000 1.0
C      1  0.5034550000000  0.4227500000000  0.5154210000000 1.0
C      1  0.5044560000000  0.5151120000000  0.5769760000000 1.0
C      1  0.5035060000000  0.4246680000000  0.4845800000000 1.0
C      1  0.5038490000000  0.5152200000000  0.4231460000000 1.0
C      1  0.5050110000000  0.5761740000000  0.5144630000000 1.0
C      1  0.5042070000000  0.4840440000000  0.5749440000000 1.0
C      1  0.5338300000000  0.4901920000000  0.4268760000000 1.0
C      1  0.5311120000000  0.4289830000000  0.5228560000000 1.0
C      1  0.5325840000000  0.5227470000000  0.5732830000000 1.0
C      1  0.5332880000000  0.5716870000000  0.4770320000000 1.0
C      1  0.5344120000000  0.5224720000000  0.4291380000000 1.0
C      1  0.5359920000000  0.5711920000000  0.5130710000000 1.0
C      1  0.5350270000000  0.4843860000000  0.5699270000000 1.0
C      1  0.5335700000000  0.4317920000000  0.4846250000000 1.0
C      1  0.4993540000000  0.5133180000000  0.5327500000000 1.0
C      1  0.5050890000000  0.5335230000000  0.4846930000000 1.0
C      1  0.4988690000000  0.4851270000000  0.4679670000000 1.0
C      1  0.4978180000000  0.4668690000000  0.5141570000000 1.0
C      1  0.4884310000000  0.4872550000000  0.5307470000000 1.0
C      1  0.4875030000000  0.4693500000000  0.4881650000000 1.0
C      1  0.4928280000000  0.5127790000000  0.4688420000000 1.0
C      1  0.4946560000000  0.5313940000000  0.5119660000000 1.0
C      1  0.4857350000000  0.5551400000000  0.5266800000000 1.0
C      1  0.4838500000000  0.5265230000000  0.4447210000000 1.0
C      1  0.4823830000000  0.4445080000000  0.4731150000000 1.0
C      1  0.4830400000000  0.4718040000000  0.5552320000000 1.0
C      1  0.4842800000000  0.4434160000000  0.5286610000000 1.0
C      1  0.4860840000000  0.4703390000000  0.4442500000000 1.0
C      1  0.4864870000000  0.5563850000000  0.4699540000000 1.0
C      1  0.4865780000000  0.5287830000000  0.5554040000000 1.0
C      1  0.4451340000000  0.5316390000000  0.4853560000000 1.0
C      1  0.4428720000000  0.4839820000000  0.4674360000000 1.0
C      1  0.4381380000000  0.4636640000000  0.5160540000000 1.0
C      1  0.4447300000000  0.5134500000000  0.5335110000000 1.0
C      1  0.4345230000000  0.4611260000000  0.4848680000000 1.0
C      1  0.4367340000000  0.5136370000000  0.4635140000000 1.0
C      1  0.4380890000000  0.5352880000000  0.5145930000000 1.0
C      1  0.4369240000000  0.4851100000000  0.5381600000000 1.0
C      1  0.5624510000000  0.5034300000000  0.4628310000000 1.0
C      1  0.5549630000000  0.4616510000000  0.4972340000000 1.0
C      1  0.5530570000000  0.5378810000000  0.5025850000000 1.0
C      1  0.5588020000000  0.4972050000000  0.5416490000000 1.0
END
