TITL C-8706-7473-37 -2.91545040188249e-05 125000 -364.291826222876 0 0 60 (C1) n - 1
REM
REM in /home/bkarasulu/CARBON/AIRSS/Generating-Clusters/EDIP-Nigel-Params/Higher-Symm/Box-15A/Only-C60/SD-CG/HFTN-CG
REM
REM
REM
REM
REM
REM ./C.cell (414f73aa93bd7a1190c7fd0f31ff2f98)
REM
REM compiler GCC version 9.2.1 20190827 (Red Hat 9.2.1-1)
REM options -cpp -mtune=generic -march=x86-64 -g -O0 -fpre-include=/usr/include/finclude/math-vector-fortran.h
REM seed 1662144159 1180723564 -697505970 586132611 1992043304 -1445842887 2003086260 1401710123 -779899396 866558055 -1512044641 1219097883 1073623305 644388058 -1536826087 -1857429078 -267052762 -1010755713 -1653883222 413281755 -745120663 1089328931 -1918219926 541346454 879962611 1300305997 -1834951237 1291930804 -1875628438 -278059332 1785873046 1171911122 -679533720
REM
CELL 1.54180   50.00000   50.00000   50.00000   90.00000   90.00000   90.00000
LATT -1
SFAC C  
C      1  0.4756610000000  0.5779250000000  0.4885780000000 1.0
C      1  0.5020340000000  0.5792910000000  0.4733760000000 1.0
C      1  0.5248500000000  0.5804190000000  0.4943460000000 1.0
C      1  0.5118710000000  0.5799850000000  0.5224050000000 1.0
C      1  0.4813640000000  0.5784720000000  0.5188620000000 1.0
C      1  0.4477910000000  0.5351390000000  0.4686870000000 1.0
C      1  0.5143240000000  0.5383090000000  0.4376690000000 1.0
C      1  0.5634820000000  0.5409540000000  0.4936270000000 1.0
C      1  0.5259070000000  0.5393930000000  0.5573450000000 1.0
C      1  0.4542510000000  0.5363820000000  0.5422460000000 1.0
C      1  0.4381400000000  0.5167420000000  0.4894240000000 1.0
C      1  0.4970480000000  0.5140450000000  0.4374820000000 1.0
C      1  0.5602510000000  0.5187730000000  0.4748950000000 1.0
C      1  0.5429190000000  0.5183820000000  0.5460580000000 1.0
C      1  0.4701210000000  0.5150430000000  0.5551520000000 1.0
C      1  0.5184870000000  0.4762100000000  0.5500190000000 1.0
C      1  0.4575670000000  0.4748860000000  0.5315340000000 1.0
C      1  0.4521850000000  0.4738430000000  0.4718310000000 1.0
C      1  0.5209740000000  0.4749280000000  0.4542880000000 1.0
C      1  0.5550950000000  0.4778590000000  0.5006690000000 1.0
C      1  0.4745580000000  0.4897990000000  0.5118760000000 1.0
C      1  0.4783390000000  0.4858790000000  0.4799320000000 1.0
C      1  0.5162250000000  0.4944780000000  0.4761690000000 1.0
C      1  0.5292700000000  0.4926440000000  0.5048560000000 1.0
C      1  0.5049890000000  0.4899890000000  0.5271630000000 1.0
C      1  0.4319540000000  0.4911780000000  0.4799280000000 1.0
C      1  0.5104940000000  0.4889160000000  0.4312550000000 1.0
C      1  0.5702610000000  0.4940370000000  0.4836790000000 1.0
C      1  0.5397690000000  0.4927990000000  0.5573890000000 1.0
C      1  0.4578480000000  0.4897920000000  0.5550340000000 1.0
C      1  0.5061590000000  0.5638850000000  0.4486740000000 1.0
C      1  0.5499380000000  0.5660380000000  0.4887430000000 1.0
C      1  0.5236250000000  0.5653570000000  0.5449180000000 1.0
C      1  0.4660050000000  0.5626090000000  0.5382750000000 1.0
C      1  0.4542700000000  0.5621090000000  0.4769000000000 1.0
C      1  0.5182860000000  0.5395970000000  0.4805260000000 1.0
C      1  0.5225180000000  0.5387760000000  0.5096730000000 1.0
C      1  0.4979850000000  0.5385600000000  0.5253530000000 1.0
C      1  0.4774450000000  0.5365570000000  0.5046440000000 1.0
C      1  0.4880120000000  0.5372530000000  0.4774790000000 1.0
C      1  0.5050540000000  0.4279200000000  0.4562470000000 1.0
C      1  0.5419960000000  0.4265040000000  0.4948080000000 1.0
C      1  0.5159270000000  0.4237610000000  0.5399450000000 1.0
C      1  0.4649080000000  0.4218430000000  0.5279200000000 1.0
C      1  0.4587410000000  0.4208790000000  0.4765080000000 1.0
C      1  0.4813390000000  0.4147140000000  0.4617330000000 1.0
C      1  0.5269400000000  0.4220800000000  0.4721190000000 1.0
C      1  0.5319960000000  0.4168600000000  0.5186210000000 1.0
C      1  0.4896380000000  0.4155000000000  0.5383870000000 1.0
C      1  0.4588600000000  0.4122180000000  0.5027520000000 1.0
C      1  0.4578710000000  0.5165860000000  0.5123190000000 1.0
C      1  0.4788470000000  0.5128590000000  0.4620820000000 1.0
C      1  0.5316100000000  0.5182260000000  0.4648370000000 1.0
C      1  0.5429060000000  0.5190330000000  0.5156590000000 1.0
C      1  0.4986020000000  0.5155760000000  0.5446340000000 1.0
C      1  0.4564560000000  0.4474990000000  0.5327400000000 1.0
C      1  0.4489110000000  0.4464050000000  0.4726920000000 1.0
C      1  0.5018730000000  0.4548610000000  0.4478720000000 1.0
C      1  0.5548720000000  0.4506940000000  0.4965050000000 1.0
C      1  0.5203790000000  0.4487490000000  0.5506610000000 1.0
END
