TITL C-8705-8172-233 -4.86243015797864e-06 125000 -365.998757062369 0 0 60 (C1) n - 1
REM
REM in /home/bkarasulu/CARBON/AIRSS/Generating-Clusters/EDIP-Nigel-Params/Higher-Symm/Box-15A/Only-C60/SD-CG/HFTN-CG
REM
REM
REM
REM
REM
REM ./C.cell (414f73aa93bd7a1190c7fd0f31ff2f98)
REM
REM compiler GCC version 9.2.1 20190827 (Red Hat 9.2.1-1)
REM options -cpp -mtune=generic -march=x86-64 -g -O0 -fpre-include=/usr/include/finclude/math-vector-fortran.h
REM seed 1797136967 1777769985 -1466873315 -1655322814 -324818252 1696862755 2143796492 1246979872 1303944645 1102594665 406818453 1372135027 1186166515 -283651945 -1757106927 -1326685676 280460612 -172109633 -703585764 1050166679 -869086554 1880061966 -856764264 1318824177 462570370 -1041919247 -153746809 -1158505367 -1626092926 -1939357976 1424511991 -1045591972 657554907
REM
CELL 1.54180   50.00000   50.00000   50.00000   90.00000   90.00000   90.00000
LATT -1
SFAC C  
C      1  0.4369590000000  0.5428080000000  0.4986480000000 1.0
C      1  0.5295110000000  0.4936140000000  0.5200760000000 1.0
C      1  0.5740330000000  0.5145620000000  0.4666040000000 1.0
C      1  0.5418430000000  0.4722620000000  0.4511030000000 1.0
C      1  0.5321720000000  0.4983040000000  0.4408790000000 1.0
C      1  0.5438580000000  0.5142140000000  0.5388600000000 1.0
C      1  0.5095820000000  0.4573980000000  0.5426680000000 1.0
C      1  0.4483180000000  0.5079100000000  0.4511050000000 1.0
C      1  0.5516480000000  0.4713630000000  0.5453180000000 1.0
C      1  0.4236590000000  0.5171850000000  0.4931080000000 1.0
C      1  0.5167430000000  0.4610380000000  0.4651950000000 1.0
C      1  0.4712200000000  0.5549670000000  0.5325050000000 1.0
C      1  0.4905710000000  0.4556420000000  0.4479100000000 1.0
C      1  0.4610950000000  0.5459950000000  0.4828730000000 1.0
C      1  0.4961800000000  0.5005050000000  0.5533830000000 1.0
C      1  0.4522600000000  0.5049470000000  0.5145210000000 1.0
C      1  0.4883290000000  0.4140450000000  0.5313600000000 1.0
C      1  0.4823210000000  0.5500190000000  0.5575920000000 1.0
C      1  0.4750260000000  0.5715450000000  0.4866870000000 1.0
C      1  0.4590300000000  0.4767160000000  0.4798670000000 1.0
C      1  0.4673210000000  0.4505660000000  0.4663350000000 1.0
C      1  0.5166990000000  0.4790430000000  0.5611420000000 1.0
C      1  0.5108180000000  0.5443090000000  0.4669930000000 1.0
C      1  0.4708460000000  0.4289620000000  0.4834470000000 1.0
C      1  0.5266180000000  0.5380680000000  0.5425550000000 1.0
C      1  0.4440490000000  0.5463240000000  0.5269770000000 1.0
C      1  0.5677260000000  0.5209870000000  0.5235810000000 1.0
C      1  0.5035980000000  0.5720780000000  0.4760870000000 1.0
C      1  0.5351160000000  0.4511610000000  0.5318040000000 1.0
C      1  0.5281290000000  0.5476090000000  0.5126850000000 1.0
C      1  0.4919910000000  0.5298510000000  0.4483400000000 1.0
C      1  0.5144440000000  0.5747160000000  0.5063330000000 1.0
C      1  0.5292350000000  0.5038000000000  0.4896770000000 1.0
C      1  0.4764770000000  0.4175870000000  0.5068820000000 1.0
C      1  0.4581140000000  0.4890510000000  0.4326760000000 1.0
C      1  0.4492200000000  0.5119170000000  0.5433190000000 1.0
C      1  0.4671510000000  0.4680470000000  0.5346550000000 1.0
C      1  0.4646570000000  0.4415680000000  0.5461140000000 1.0
C      1  0.4819240000000  0.5130980000000  0.5041890000000 1.0
C      1  0.5130550000000  0.5291430000000  0.4933980000000 1.0
C      1  0.4300290000000  0.4990490000000  0.4713330000000 1.0
C      1  0.4513360000000  0.4747890000000  0.5103990000000 1.0
C      1  0.5615480000000  0.4696150000000  0.4976520000000 1.0
C      1  0.5084870000000  0.4834730000000  0.4825980000000 1.0
C      1  0.5018300000000  0.5014000000000  0.4432220000000 1.0
C      1  0.4828860000000  0.4970710000000  0.4770400000000 1.0
C      1  0.5432970000000  0.5149280000000  0.4636450000000 1.0
C      1  0.5025210000000  0.5304480000000  0.5580060000000 1.0
C      1  0.5386480000000  0.4535930000000  0.5032750000000 1.0
C      1  0.4837310000000  0.5755090000000  0.5153940000000 1.0
C      1  0.5246690000000  0.4390840000000  0.4831580000000 1.0
C      1  0.5698310000000  0.4828630000000  0.5229390000000 1.0
C      1  0.4671550000000  0.4913270000000  0.5542730000000 1.0
C      1  0.5584680000000  0.5426350000000  0.5062690000000 1.0
C      1  0.5647180000000  0.4779860000000  0.4698990000000 1.0
C      1  0.4994450000000  0.4965330000000  0.5242680000000 1.0
C      1  0.4921930000000  0.4350770000000  0.5507960000000 1.0
C      1  0.5687170000000  0.5400890000000  0.4794520000000 1.0
C      1  0.4846080000000  0.4800250000000  0.4312570000000 1.0
C      1  0.4643380000000  0.5315780000000  0.4576720000000 1.0
END
