TITL C-8700-8172-151 1.24664451682539e-06 125000 -368.472194153588 0 0 60 (C1) n - 1
REM
REM in /home/bkarasulu/CARBON/AIRSS/Generating-Clusters/EDIP-Nigel-Params/Higher-Symm/Box-15A/Only-C60/SD-CG/HFTN-CG
REM
REM
REM
REM
REM
REM ./C.cell (414f73aa93bd7a1190c7fd0f31ff2f98)
REM
REM compiler GCC version 9.2.1 20190827 (Red Hat 9.2.1-1)
REM options -cpp -mtune=generic -march=x86-64 -g -O0 -fpre-include=/usr/include/finclude/math-vector-fortran.h
REM seed -1896731664 110626747 -666530782 -513016466 -1955286014 -1663979198 1064270761 -175239606 -1696260982 -1548230224 241579198 1551484589 83659939 61998443 -1675452356 -2032847894 -335182565 -409839871 2054049020 1822331741 343066548 995715636 -2132532948 -1114832958 275157408 -129420673 -521223415 1259652959 -984659862 319420361 767544537 420228053 353491110
REM
CELL 1.54180   50.00000   50.00000   50.00000   90.00000   90.00000   90.00000
LATT -1
SFAC C  
C      1  0.5106800000000  0.4334450000000  0.5417370000000 1.0
C      1  0.4649610000000  0.4356050000000  0.5232940000000 1.0
C      1  0.4745150000000  0.4403060000000  0.4762680000000 1.0
C      1  0.5211640000000  0.4340540000000  0.4621330000000 1.0
C      1  0.5442010000000  0.4325950000000  0.5055420000000 1.0
C      1  0.5105770000000  0.5654150000000  0.5412600000000 1.0
C      1  0.4659860000000  0.5645050000000  0.5204100000000 1.0
C      1  0.4696590000000  0.5644570000000  0.4719700000000 1.0
C      1  0.5172330000000  0.5641620000000  0.4633080000000 1.0
C      1  0.5442560000000  0.5672260000000  0.5044350000000 1.0
C      1  0.5209870000000  0.5223370000000  0.5396490000000 1.0
C      1  0.4638510000000  0.5070490000000  0.5353340000000 1.0
C      1  0.4343460000000  0.5217010000000  0.4838410000000 1.0
C      1  0.5094930000000  0.5051840000000  0.4446840000000 1.0
C      1  0.5405980000000  0.5152140000000  0.4900080000000 1.0
C      1  0.5178320000000  0.4920690000000  0.5394560000000 1.0
C      1  0.4655340000000  0.4770460000000  0.5380760000000 1.0
C      1  0.4468580000000  0.4967410000000  0.4778890000000 1.0
C      1  0.4988680000000  0.4802290000000  0.4351600000000 1.0
C      1  0.5426310000000  0.4808140000000  0.4897270000000 1.0
C      1  0.4867290000000  0.5494440000000  0.5348860000000 1.0
C      1  0.4533410000000  0.5530980000000  0.4951890000000 1.0
C      1  0.4929180000000  0.5484750000000  0.4631570000000 1.0
C      1  0.5404510000000  0.5522920000000  0.4776940000000 1.0
C      1  0.5390880000000  0.5563200000000  0.5327270000000 1.0
C      1  0.4821970000000  0.4431620000000  0.5481780000000 1.0
C      1  0.4644200000000  0.4542960000000  0.5001250000000 1.0
C      1  0.4973660000000  0.4521500000000  0.4608320000000 1.0
C      1  0.5455690000000  0.4441070000000  0.4768400000000 1.0
C      1  0.5293410000000  0.4484440000000  0.5250120000000 1.0
C      1  0.4981140000000  0.5166970000000  0.5702660000000 1.0
C      1  0.4352560000000  0.5089670000000  0.5300840000000 1.0
C      1  0.4640920000000  0.5188620000000  0.4395430000000 1.0
C      1  0.5387740000000  0.5079500000000  0.4427410000000 1.0
C      1  0.5612700000000  0.5145980000000  0.5135250000000 1.0
C      1  0.5043370000000  0.4882580000000  0.5654800000000 1.0
C      1  0.4304980000000  0.4814510000000  0.5212750000000 1.0
C      1  0.4550480000000  0.4946340000000  0.4501640000000 1.0
C      1  0.5514270000000  0.4826810000000  0.4414570000000 1.0
C      1  0.5599540000000  0.4841660000000  0.5146220000000 1.0
C      1  0.5122430000000  0.4095710000000  0.4771730000000 1.0
C      1  0.5274320000000  0.4077350000000  0.5035410000000 1.0
C      1  0.5067040000000  0.4083130000000  0.5261670000000 1.0
C      1  0.4788740000000  0.4102860000000  0.5137390000000 1.0
C      1  0.4829480000000  0.4128830000000  0.4840550000000 1.0
C      1  0.5111640000000  0.5901580000000  0.4765490000000 1.0
C      1  0.5266820000000  0.5912550000000  0.5025770000000 1.0
C      1  0.5066080000000  0.5907950000000  0.5252960000000 1.0
C      1  0.4788470000000  0.5902560000000  0.5128120000000 1.0
C      1  0.4814740000000  0.5902990000000  0.4826000000000 1.0
C      1  0.4904260000000  0.5271430000000  0.4440590000000 1.0
C      1  0.5524440000000  0.5244560000000  0.4635570000000 1.0
C      1  0.5503510000000  0.5276310000000  0.5377810000000 1.0
C      1  0.4785470000000  0.5269920000000  0.5513340000000 1.0
C      1  0.4275530000000  0.5284180000000  0.5101870000000 1.0
C      1  0.4717760000000  0.4734430000000  0.4408580000000 1.0
C      1  0.5583770000000  0.4709380000000  0.4659840000000 1.0
C      1  0.5398560000000  0.4739330000000  0.5336260000000 1.0
C      1  0.4799540000000  0.4710680000000  0.5636550000000 1.0
C      1  0.4433200000000  0.4742190000000  0.4964690000000 1.0
END
