TITL C-8704-7456-282 -5.95399794099792e-07 125000 -375.939388876542 0 0 60 (C1) n - 1
REM
REM in /home/bkarasulu/CARBON/AIRSS/Generating-Clusters/EDIP-Nigel-Params/Higher-Symm/Box-15A/Only-C60/SD-CG/HFTN-CG
REM
REM
REM
REM
REM
REM ./C.cell (414f73aa93bd7a1190c7fd0f31ff2f98)
REM
REM compiler GCC version 9.2.1 20190827 (Red Hat 9.2.1-1)
REM options -cpp -mtune=generic -march=x86-64 -g -O0 -fpre-include=/usr/include/finclude/math-vector-fortran.h
REM seed 302585840 156149139 1517944184 -1184816024 -1135432648 -896829732 1882193955 1789867695 969378796 770014772 1639418589 -256903413 -384681992 -870167749 -1203951334 1366603665 -99230541 1666390394 2067348177 -526947100 -372522617 -680495445 706960953 1355918499 1286134189 -2005603072 -12950853 -255804036 -1788286186 807024186 -1348742735 -1496766712 684120323
REM
CELL 1.54180   50.00000   50.00000   50.00000   90.00000   90.00000   90.00000
LATT -1
SFAC C  
C      1  0.5328760000000  0.5093030000000  0.5493790000000 1.0
C      1  0.4551330000000  0.5420060000000  0.5331410000000 1.0
C      1  0.5482880000000  0.5496420000000  0.5075490000000 1.0
C      1  0.4421720000000  0.5483210000000  0.4757440000000 1.0
C      1  0.5491350000000  0.5224800000000  0.4561640000000 1.0
C      1  0.4547480000000  0.4985670000000  0.4474370000000 1.0
C      1  0.5330990000000  0.4664160000000  0.4620460000000 1.0
C      1  0.4753900000000  0.4603350000000  0.4861340000000 1.0
C      1  0.5299040000000  0.4585930000000  0.5201850000000 1.0
C      1  0.4750530000000  0.4868430000000  0.5404030000000 1.0
C      1  0.4343750000000  0.4607410000000  0.5379810000000 1.0
C      1  0.5756900000000  0.4871090000000  0.5532050000000 1.0
C      1  0.4174800000000  0.5169760000000  0.5486990000000 1.0
C      1  0.5895450000000  0.5383360000000  0.5283930000000 1.0
C      1  0.4000020000000  0.5417250000000  0.4966530000000 1.0
C      1  0.5956980000000  0.5292180000000  0.4674920000000 1.0
C      1  0.4067680000000  0.4998630000000  0.4532220000000 1.0
C      1  0.5812490000000  0.4706470000000  0.4588190000000 1.0
C      1  0.4286660000000  0.4504210000000  0.4790330000000 1.0
C      1  0.5734540000000  0.4441320000000  0.5101360000000 1.0
C      1  0.5892020000000  0.4886830000000  0.5287180000000 1.0
C      1  0.4084480000000  0.5023250000000  0.5265540000000 1.0
C      1  0.5958880000000  0.5138880000000  0.5160450000000 1.0
C      1  0.4002100000000  0.5140320000000  0.5012530000000 1.0
C      1  0.5972870000000  0.5091660000000  0.4872530000000 1.0
C      1  0.4036590000000  0.4939130000000  0.4804890000000 1.0
C      1  0.5923530000000  0.4808690000000  0.4823910000000 1.0
C      1  0.4140400000000  0.4698450000000  0.4929710000000 1.0
C      1  0.5874750000000  0.4683170000000  0.5079980000000 1.0
C      1  0.4169210000000  0.4750770000000  0.5213800000000 1.0
C      1  0.4543870000000  0.4706200000000  0.4441020000000 1.0
C      1  0.5392740000000  0.4434880000000  0.4771590000000 1.0
C      1  0.4720590000000  0.4491350000000  0.5113130000000 1.0
C      1  0.5366390000000  0.4610480000000  0.5473230000000 1.0
C      1  0.4616000000000  0.5026320000000  0.5590680000000 1.0
C      1  0.5481750000000  0.5326300000000  0.5518830000000 1.0
C      1  0.4363420000000  0.5594100000000  0.5212620000000 1.0
C      1  0.5624960000000  0.5583820000000  0.4849130000000 1.0
C      1  0.4311500000000  0.5405860000000  0.4510410000000 1.0
C      1  0.5537570000000  0.5023800000000  0.4370680000000 1.0
C      1  0.5284010000000  0.5285890000000  0.5023620000000 1.0
C      1  0.4617880000000  0.5293090000000  0.4860070000000 1.0
C      1  0.5278010000000  0.5168330000000  0.4754200000000 1.0
C      1  0.4718840000000  0.5080710000000  0.4693940000000 1.0
C      1  0.5187640000000  0.4880330000000  0.4791130000000 1.0
C      1  0.4876470000000  0.4880470000000  0.4859660000000 1.0
C      1  0.5283840000000  0.4841890000000  0.5069880000000 1.0
C      1  0.4876220000000  0.5024590000000  0.5176310000000 1.0
C      1  0.5187260000000  0.5075520000000  0.5220730000000 1.0
C      1  0.4720070000000  0.5282370000000  0.5130050000000 1.0
C      1  0.4538260000000  0.4545760000000  0.4671180000000 1.0
C      1  0.5461810000000  0.4399130000000  0.5041990000000 1.0
C      1  0.4622260000000  0.4613730000000  0.5342250000000 1.0
C      1  0.5478780000000  0.4848920000000  0.5571920000000 1.0
C      1  0.4442710000000  0.5240090000000  0.5540830000000 1.0
C      1  0.5630260000000  0.5469040000000  0.5329080000000 1.0
C      1  0.4232160000000  0.5578320000000  0.4964600000000 1.0
C      1  0.5704630000000  0.5414180000000  0.4640530000000 1.0
C      1  0.4293290000000  0.5135790000000  0.4432460000000 1.0
C      1  0.5564710000000  0.4760860000000  0.4465560000000 1.0
END
