TITL C-8704-7456-190 9.54525110951332e-06 125000 -373.43205023693 0 0 60 (C1) n - 1
REM
REM in /home/bkarasulu/CARBON/AIRSS/Generating-Clusters/EDIP-Nigel-Params/Higher-Symm/Box-15A/Only-C60/SD-CG/HFTN-CG
REM
REM
REM
REM
REM
REM ./C.cell (414f73aa93bd7a1190c7fd0f31ff2f98)
REM
REM compiler GCC version 9.2.1 20190827 (Red Hat 9.2.1-1)
REM options -cpp -mtune=generic -march=x86-64 -g -O0 -fpre-include=/usr/include/finclude/math-vector-fortran.h
REM seed -1576670034 -904458957 37415410 565390211 -937935427 1836405646 -471580033 -338112463 -1956897931 -162496536 -1865308350 -1607247173 65794976 -1311387911 1625205836 1735639316 -201109867 658095503 -1545836737 -2120917752 1424634782 133271247 -1713241474 1390792798 -279398933 1046679160 1080341831 -68949285 2111716059 1814250961 -1105020274 -985851283 -1513808195
REM
CELL 1.54180   50.00000   50.00000   50.00000   90.00000   90.00000   90.00000
LATT -1
SFAC C  
C      1  0.5604380000000  0.5225850000000  0.4722380000000 1.0
C      1  0.4807090000000  0.5664230000000  0.5213780000000 1.0
C      1  0.5057340000000  0.4682370000000  0.5743920000000 1.0
C      1  0.4430060000000  0.4831670000000  0.4782970000000 1.0
C      1  0.4289270000000  0.5194950000000  0.5186970000000 1.0
C      1  0.5669350000000  0.4897720000000  0.5173620000000 1.0
C      1  0.5207560000000  0.4311100000000  0.5152140000000 1.0
C      1  0.5236730000000  0.5759630000000  0.4883390000000 1.0
C      1  0.4729350000000  0.4226060000000  0.4925580000000 1.0
C      1  0.4887080000000  0.5217330000000  0.5748220000000 1.0
C      1  0.4894550000000  0.4728630000000  0.4260950000000 1.0
C      1  0.5175730000000  0.5184170000000  0.4192500000000 1.0
C      1  0.5592100000000  0.5178280000000  0.5191540000000 1.0
C      1  0.4756820000000  0.5711020000000  0.4931730000000 1.0
C      1  0.5184300000000  0.4750520000000  0.4281560000000 1.0
C      1  0.4285460000000  0.4910380000000  0.5234530000000 1.0
C      1  0.4408960000000  0.5116450000000  0.4709960000000 1.0
C      1  0.5707330000000  0.4956960000000  0.4681160000000 1.0
C      1  0.5160760000000  0.4312270000000  0.4863150000000 1.0
C      1  0.5272150000000  0.5753710000000  0.5171310000000 1.0
C      1  0.4772880000000  0.4241830000000  0.5212150000000 1.0
C      1  0.4884760000000  0.5168490000000  0.4200260000000 1.0
C      1  0.4786630000000  0.4767390000000  0.5681390000000 1.0
C      1  0.5167400000000  0.5148840000000  0.5764390000000 1.0
C      1  0.4420910000000  0.5380150000000  0.5343650000000 1.0
C      1  0.5310660000000  0.4517820000000  0.5326690000000 1.0
C      1  0.5326570000000  0.5366460000000  0.4336360000000 1.0
C      1  0.5520250000000  0.4691280000000  0.5279560000000 1.0
C      1  0.5480200000000  0.5427740000000  0.4557510000000 1.0
C      1  0.4537260000000  0.4602350000000  0.4645570000000 1.0
C      1  0.4649300000000  0.5521730000000  0.5407670000000 1.0
C      1  0.4530350000000  0.4368320000000  0.4794100000000 1.0
C      1  0.5417890000000  0.5658910000000  0.4698190000000 1.0
C      1  0.4736160000000  0.4616880000000  0.4455990000000 1.0
C      1  0.4784240000000  0.5449960000000  0.5638420000000 1.0
C      1  0.5197890000000  0.4510790000000  0.5579180000000 1.0
C      1  0.4613310000000  0.5306870000000  0.4631040000000 1.0
C      1  0.5298270000000  0.4461310000000  0.4676370000000 1.0
C      1  0.5366950000000  0.5280190000000  0.5625730000000 1.0
C      1  0.5602470000000  0.4778780000000  0.4497520000000 1.0
C      1  0.5510420000000  0.5356770000000  0.5402580000000 1.0
C      1  0.4361960000000  0.4780760000000  0.5467820000000 1.0
C      1  0.4600290000000  0.5542980000000  0.4776710000000 1.0
C      1  0.4626180000000  0.4396360000000  0.5389690000000 1.0
C      1  0.5471950000000  0.5614410000000  0.5305590000000 1.0
C      1  0.4579850000000  0.4624780000000  0.5539280000000 1.0
C      1  0.4734600000000  0.5311110000000  0.4382940000000 1.0
C      1  0.5365210000000  0.4638530000000  0.4475890000000 1.0
C      1  0.4262510000000  0.4765110000000  0.4997620000000 1.0
C      1  0.5298310000000  0.4944440000000  0.4109130000000 1.0
C      1  0.5212750000000  0.4887800000000  0.5852270000000 1.0
C      1  0.4712040000000  0.5007460000000  0.5804930000000 1.0
C      1  0.5686930000000  0.5320690000000  0.4970870000000 1.0
C      1  0.5786040000000  0.4844470000000  0.4924690000000 1.0
C      1  0.4265690000000  0.5246480000000  0.4914060000000 1.0
C      1  0.4775320000000  0.4927650000000  0.4102210000000 1.0
C      1  0.4953000000000  0.4144650000000  0.4775140000000 1.0
C      1  0.4977230000000  0.5824690000000  0.4802430000000 1.0
C      1  0.5024470000000  0.4147380000000  0.5292300000000 1.0
C      1  0.5034500000000  0.5794080000000  0.5310760000000 1.0
END
