TITL C-8706-7473-56 -1.13433469290518e-07 125000 -364.572830203082 0 0 60 (C1) n - 1
REM
REM in /home/bkarasulu/CARBON/AIRSS/Generating-Clusters/EDIP-Nigel-Params/Higher-Symm/Box-15A/Only-C60/SD-CG/HFTN-CG
REM
REM
REM
REM
REM
REM ./C.cell (414f73aa93bd7a1190c7fd0f31ff2f98)
REM
REM compiler GCC version 9.2.1 20190827 (Red Hat 9.2.1-1)
REM options -cpp -mtune=generic -march=x86-64 -g -O0 -fpre-include=/usr/include/finclude/math-vector-fortran.h
REM seed 1000076437 -1791930261 2015587609 2060207469 -529124465 -1683468812 1941111867 -482638851 -812206482 -249202063 -2067415631 2123168984 -1004372887 -618799201 -502093130 989803288 621674713 1442942536 1513433668 1431621192 -1362566006 1172954935 543540394 -1186188745 -1652137722 343913071 -1581766839 -365461125 -1580797531 2099717075 -1940673283 1454717219 1108731615
REM
CELL 1.54180   50.00000   50.00000   50.00000   90.00000   90.00000   90.00000
LATT -1
SFAC C  
C      1  0.4775740000000  0.4532180000000  0.5013090000000 1.0
C      1  0.4741860000000  0.4735400000000  0.4456500000000 1.0
C      1  0.4543070000000  0.4809350000000  0.4646710000000 1.0
C      1  0.5271230000000  0.4605670000000  0.5125130000000 1.0
C      1  0.4713770000000  0.5477820000000  0.5069580000000 1.0
C      1  0.5235590000000  0.5476920000000  0.4771940000000 1.0
C      1  0.4956220000000  0.4849360000000  0.5360320000000 1.0
C      1  0.4697650000000  0.5222490000000  0.5566020000000 1.0
C      1  0.5125240000000  0.5281850000000  0.4586100000000 1.0
C      1  0.5464170000000  0.4819570000000  0.5253350000000 1.0
C      1  0.4466400000000  0.5171910000000  0.5388270000000 1.0
C      1  0.5531210000000  0.5021730000000  0.4648820000000 1.0
C      1  0.4698060000000  0.5518850000000  0.4711620000000 1.0
C      1  0.4863930000000  0.5369440000000  0.4494880000000 1.0
C      1  0.4524080000000  0.5241730000000  0.4746190000000 1.0
C      1  0.5182990000000  0.5393410000000  0.5059200000000 1.0
C      1  0.4717050000000  0.4437860000000  0.5296110000000 1.0
C      1  0.5357240000000  0.4531690000000  0.4848140000000 1.0
C      1  0.5184520000000  0.5242430000000  0.5499390000000 1.0
C      1  0.4699940000000  0.4716840000000  0.5440660000000 1.0
C      1  0.5019570000000  0.4737770000000  0.4572270000000 1.0
C      1  0.5413840000000  0.5130970000000  0.5135970000000 1.0
C      1  0.4517590000000  0.4900860000000  0.5289240000000 1.0
C      1  0.5575100000000  0.4705610000000  0.4728400000000 1.0
C      1  0.4694250000000  0.5042670000000  0.5796270000000 1.0
C      1  0.5739260000000  0.4751820000000  0.5190400000000 1.0
C      1  0.5133990000000  0.5742210000000  0.4707530000000 1.0
C      1  0.5318180000000  0.5103210000000  0.4447980000000 1.0
C      1  0.4769140000000  0.4929130000000  0.4233820000000 1.0
C      1  0.5159190000000  0.4780800000000  0.5571880000000 1.0
C      1  0.4516610000000  0.4646350000000  0.4884810000000 1.0
C      1  0.5749820000000  0.5184920000000  0.4787110000000 1.0
C      1  0.4438920000000  0.5381160000000  0.5170030000000 1.0
C      1  0.4850490000000  0.5703540000000  0.5210490000000 1.0
C      1  0.5223380000000  0.4371380000000  0.5301780000000 1.0
C      1  0.4917770000000  0.4322860000000  0.4848520000000 1.0
C      1  0.4704720000000  0.4757380000000  0.5741590000000 1.0
C      1  0.5674570000000  0.5249030000000  0.5063570000000 1.0
C      1  0.5120640000000  0.4468100000000  0.4678380000000 1.0
C      1  0.5191150000000  0.4856380000000  0.4346760000000 1.0
C      1  0.4727090000000  0.5190490000000  0.4329080000000 1.0
C      1  0.5262310000000  0.5032090000000  0.5663200000000 1.0
C      1  0.4296420000000  0.5267270000000  0.4929590000000 1.0
C      1  0.5812190000000  0.4706210000000  0.4913320000000 1.0
C      1  0.4355980000000  0.4803300000000  0.5075900000000 1.0
C      1  0.4951790000000  0.4247210000000  0.5327560000000 1.0
C      1  0.5137040000000  0.5644640000000  0.5216430000000 1.0
C      1  0.4848170000000  0.5794270000000  0.4727460000000 1.0
C      1  0.5026560000000  0.4898340000000  0.4118850000000 1.0
C      1  0.4995670000000  0.4794460000000  0.5825010000000 1.0
C      1  0.5927610000000  0.4984450000000  0.4937030000000 1.0
C      1  0.4191110000000  0.5008150000000  0.4972330000000 1.0
C      1  0.5030470000000  0.4148610000000  0.5053690000000 1.0
C      1  0.4931250000000  0.5898150000000  0.5002800000000 1.0
C      1  0.5001420000000  0.4737900000000  0.5075250000000 1.0
C      1  0.4907180000000  0.5250810000000  0.5096480000000 1.0
C      1  0.4932770000000  0.5151570000000  0.5383420000000 1.0
C      1  0.5023500000000  0.4922570000000  0.4822600000000 1.0
C      1  0.4692850000000  0.5038130000000  0.4910450000000 1.0
C      1  0.5329310000000  0.4976890000000  0.4874500000000 1.0
END
