TITL C-8700-8172-47 -4.46558410912362e-06 125000 -364.043987953694 0 0 60 (C2h) n - 1
REM
REM in /home/bkarasulu/CARBON/AIRSS/Generating-Clusters/EDIP-Nigel-Params/Higher-Symm/Box-15A/Only-C60/SD-CG/HFTN-CG
REM
REM
REM
REM
REM
REM ./C.cell (414f73aa93bd7a1190c7fd0f31ff2f98)
REM
REM compiler GCC version 9.2.1 20190827 (Red Hat 9.2.1-1)
REM options -cpp -mtune=generic -march=x86-64 -g -O0 -fpre-include=/usr/include/finclude/math-vector-fortran.h
REM seed 85755010 -381635818 550830379 537112457 1538881610 -1860570067 -1818852856 1387697753 -1558985904 591072456 -1831235778 -859862909 -1908840360 23341661 1024444551 -1016468223 -158818565 1878869390 -1564477215 2121267546 594973633 -1551054195 -1084818941 -1800120878 1495625471 651021167 918830326 -2004789002 -906901910 -327432018 1493951493 -1965875742 -419810041
REM
CELL 1.54180   50.00000   50.00000   50.00000   90.00000   90.00000   90.00000
LATT -1
SFAC C  
C      1  0.5568880000000  0.4657190000000  0.4616270000000 1.0
C      1  0.4432290000000  0.4659270000000  0.5376540000000 1.0
C      1  0.5567710000000  0.5340730000000  0.4623460000000 1.0
C      1  0.4431120000000  0.5342810000000  0.5383730000000 1.0
C      1  0.5568880000000  0.4657160000000  0.5383690000000 1.0
C      1  0.4432290000000  0.4659300000000  0.4623430000000 1.0
C      1  0.5567710000000  0.5340700000000  0.5376570000000 1.0
C      1  0.4431120000000  0.5342840000000  0.4616310000000 1.0
C      1  0.4376880000000  0.5449270000000  0.5133650000000 1.0
C      1  0.5631620000000  0.5453070000000  0.4866880000000 1.0
C      1  0.4368380000000  0.4546930000000  0.5133120000000 1.0
C      1  0.5623120000000  0.4550730000000  0.4866350000000 1.0
C      1  0.4376880000000  0.5449280000000  0.4866390000000 1.0
C      1  0.5631620000000  0.5453060000000  0.5133160000000 1.0
C      1  0.4368380000000  0.4546940000000  0.4866840000000 1.0
C      1  0.5623120000000  0.4550720000000  0.5133610000000 1.0
C      1  0.5730260000000  0.4865770000000  0.5464650000000 1.0
C      1  0.4273580000000  0.4867660000000  0.4538200000000 1.0
C      1  0.5726420000000  0.5132340000000  0.5461800000000 1.0
C      1  0.4269740000000  0.5134230000000  0.4535350000000 1.0
C      1  0.5730260000000  0.4865810000000  0.4535340000000 1.0
C      1  0.4273580000000  0.4867610000000  0.5461790000000 1.0
C      1  0.5726420000000  0.5132390000000  0.4538210000000 1.0
C      1  0.4269740000000  0.5134190000000  0.5464660000000 1.0
C      1  0.5217670000000  0.5151470000000  0.4311410000000 1.0
C      1  0.4774770000000  0.5146050000000  0.5699950000000 1.0
C      1  0.5225230000000  0.4853950000000  0.4300050000000 1.0
C      1  0.4782330000000  0.4848530000000  0.5688590000000 1.0
C      1  0.5217680000000  0.5151400000000  0.5688610000000 1.0
C      1  0.4774760000000  0.5146120000000  0.4300060000000 1.0
C      1  0.5225240000000  0.4853880000000  0.5699940000000 1.0
C      1  0.4782320000000  0.4848600000000  0.4311390000000 1.0
C      1  0.4723260000000  0.4693070000000  0.5429440000000 1.0
C      1  0.5278360000000  0.4697930000000  0.4554080000000 1.0
C      1  0.4721640000000  0.5302070000000  0.5445920000000 1.0
C      1  0.5276740000000  0.5306930000000  0.4570560000000 1.0
C      1  0.4723250000000  0.4693110000000  0.4570530000000 1.0
C      1  0.5278370000000  0.4697890000000  0.5445890000000 1.0
C      1  0.4721630000000  0.5302110000000  0.4554110000000 1.0
C      1  0.5276750000000  0.5306890000000  0.5429470000000 1.0
C      1  0.5158670000000  0.4846460000000  0.4779600000000 1.0
C      1  0.4846850000000  0.4841170000000  0.5182750000000 1.0
C      1  0.5153150000000  0.5158830000000  0.4817250000000 1.0
C      1  0.4841330000000  0.5153540000000  0.5220400000000 1.0
C      1  0.5158670000000  0.4846440000000  0.5220380000000 1.0
C      1  0.4846850000000  0.4841180000000  0.4817240000000 1.0
C      1  0.5153150000000  0.5158820000000  0.5182760000000 1.0
C      1  0.4841330000000  0.5153560000000  0.4779620000000 1.0
C      1  0.5131710000000  0.4448610000000  0.5459370000000 1.0
C      1  0.4860750000000  0.4439410000000  0.4554080000000 1.0
C      1  0.5139250000000  0.5560590000000  0.5445920000000 1.0
C      1  0.4868290000000  0.5551390000000  0.4540630000000 1.0
C      1  0.5131710000000  0.4448650000000  0.4540580000000 1.0
C      1  0.4860750000000  0.4439370000000  0.5445870000000 1.0
C      1  0.5139250000000  0.5560630000000  0.4554130000000 1.0
C      1  0.4868290000000  0.5551350000000  0.5459420000000 1.0
C      1  0.5001340000000  0.4751120000000  0.4156250000000 1.0
C      1  0.5001350000000  0.4751040000000  0.5843730000000 1.0
C      1  0.4998650000000  0.5248960000000  0.4156270000000 1.0
C      1  0.4998660000000  0.5248880000000  0.5843750000000 1.0
END
