TITL C-8706-7473-164 -3.4518974809681e-06 125000 -353.08152243058 0 0 60 (C1) n - 1
REM
REM in /home/bkarasulu/CARBON/AIRSS/Generating-Clusters/EDIP-Nigel-Params/Higher-Symm/Box-15A/Only-C60/SD-CG/HFTN-CG
REM
REM
REM
REM
REM
REM ./C.cell (414f73aa93bd7a1190c7fd0f31ff2f98)
REM
REM compiler GCC version 9.2.1 20190827 (Red Hat 9.2.1-1)
REM options -cpp -mtune=generic -march=x86-64 -g -O0 -fpre-include=/usr/include/finclude/math-vector-fortran.h
REM seed -871588173 605189847 -1870969407 1685522538 1818267072 -592319605 -1606653482 -559157930 304913632 -1817372217 -1796789601 499662055 -841429411 59941210 -1802029862 -783342833 1315609176 1121694201 -587005201 2077397985 -484672837 1225332646 -592621334 -640576655 1549154526 -166511610 -1258844686 1781995539 466813102 -973285961 -2023320522 819919020 19282722
REM
CELL 1.54180   50.00000   50.00000   50.00000   90.00000   90.00000   90.00000
LATT -1
SFAC C  
C      1  0.5605540000000  0.5022550000000  0.5384230000000 1.0
C      1  0.5629760000000  0.4643380000000  0.4815710000000 1.0
C      1  0.5606470000000  0.5315800000000  0.4793490000000 1.0
C      1  0.4380150000000  0.5022990000000  0.5393770000000 1.0
C      1  0.4398430000000  0.4671510000000  0.4831630000000 1.0
C      1  0.4380410000000  0.5334720000000  0.4780560000000 1.0
C      1  0.5139660000000  0.4393800000000  0.4428020000000 1.0
C      1  0.5156590000000  0.5785060000000  0.4779760000000 1.0
C      1  0.5131250000000  0.4799300000000  0.5785390000000 1.0
C      1  0.4856340000000  0.4412700000000  0.4435910000000 1.0
C      1  0.4868430000000  0.5788060000000  0.4783200000000 1.0
C      1  0.4847040000000  0.4805680000000  0.5804490000000 1.0
C      1  0.5172810000000  0.4682660000000  0.5367350000000 1.0
C      1  0.5158190000000  0.4820520000000  0.4521500000000 1.0
C      1  0.5139530000000  0.5481320000000  0.5087300000000 1.0
C      1  0.4860640000000  0.4685900000000  0.5386940000000 1.0
C      1  0.4842300000000  0.4837480000000  0.4529520000000 1.0
C      1  0.4828110000000  0.5478880000000  0.5086420000000 1.0
C      1  0.5520890000000  0.4512140000000  0.5364610000000 1.0
C      1  0.5515090000000  0.4907630000000  0.4394140000000 1.0
C      1  0.5494310000000  0.5569040000000  0.5220600000000 1.0
C      1  0.4503850000000  0.4530700000000  0.5384490000000 1.0
C      1  0.4488000000000  0.4918540000000  0.4393410000000 1.0
C      1  0.4480010000000  0.5567320000000  0.5233080000000 1.0
C      1  0.5309410000000  0.5134270000000  0.5429890000000 1.0
C      1  0.5328030000000  0.4546690000000  0.4884750000000 1.0
C      1  0.5313710000000  0.5294820000000  0.4682540000000 1.0
C      1  0.4676470000000  0.5131000000000  0.5443530000000 1.0
C      1  0.4693230000000  0.4582970000000  0.4900620000000 1.0
C      1  0.4678170000000  0.5312930000000  0.4661240000000 1.0
C      1  0.5176240000000  0.5554340000000  0.4592340000000 1.0
C      1  0.5167320000000  0.5076420000000  0.5695650000000 1.0
C      1  0.5180340000000  0.4339430000000  0.4713710000000 1.0
C      1  0.4837240000000  0.5565110000000  0.4588810000000 1.0
C      1  0.4814490000000  0.5084820000000  0.5713640000000 1.0
C      1  0.4823940000000  0.4368840000000  0.4723390000000 1.0
C      1  0.4317410000000  0.4738280000000  0.5318490000000 1.0
C      1  0.4320680000000  0.4872840000000  0.4621610000000 1.0
C      1  0.4313730000000  0.5398370000000  0.5070090000000 1.0
C      1  0.5681770000000  0.4741240000000  0.5299810000000 1.0
C      1  0.5695130000000  0.4857420000000  0.4612090000000 1.0
C      1  0.5672750000000  0.5399330000000  0.5074090000000 1.0
C      1  0.5772590000000  0.5201470000000  0.5247140000000 1.0
C      1  0.5787900000000  0.4698550000000  0.5042500000000 1.0
C      1  0.5775730000000  0.5106040000000  0.4716180000000 1.0
C      1  0.4219340000000  0.5190160000000  0.5234350000000 1.0
C      1  0.4230350000000  0.4698430000000  0.5054180000000 1.0
C      1  0.4215030000000  0.5120120000000  0.4704990000000 1.0
C      1  0.5294200000000  0.4469140000000  0.5179260000000 1.0
C      1  0.5290140000000  0.5090400000000  0.4452320000000 1.0
C      1  0.5275950000000  0.5431450000000  0.5361650000000 1.0
C      1  0.4723660000000  0.4488850000000  0.5192460000000 1.0
C      1  0.4711340000000  0.5104670000000  0.4439790000000 1.0
C      1  0.4705340000000  0.5426730000000  0.5364710000000 1.0
C      1  0.5147110000000  0.5213760000000  0.4933130000000 1.0
C      1  0.5153530000000  0.4979530000000  0.5218060000000 1.0
C      1  0.5170650000000  0.4787780000000  0.4823420000000 1.0
C      1  0.4816430000000  0.5207540000000  0.4906780000000 1.0
C      1  0.4843700000000  0.4960170000000  0.5269390000000 1.0
C      1  0.4863160000000  0.4838390000000  0.4847820000000 1.0
END
