TITL C-8704-7456-266 -2.96754717735387e-06 125000 -353.414367879078 0 0 60 (C1) n - 1
REM
REM in /home/bkarasulu/CARBON/AIRSS/Generating-Clusters/EDIP-Nigel-Params/Higher-Symm/Box-15A/Only-C60/SD-CG/HFTN-CG
REM
REM
REM
REM
REM
REM ./C.cell (414f73aa93bd7a1190c7fd0f31ff2f98)
REM
REM compiler GCC version 9.2.1 20190827 (Red Hat 9.2.1-1)
REM options -cpp -mtune=generic -march=x86-64 -g -O0 -fpre-include=/usr/include/finclude/math-vector-fortran.h
REM seed 733424259 1108888449 1363599014 -544194939 -149276449 314174156 -1445488216 -875869588 -245173014 -1562848930 1319370734 -915519545 826562511 -1719665112 -82540274 1318461226 -901798935 1420335050 1595314324 3249631 2109573244 333857682 1614452939 970715077 938643076 1956325417 -973048442 -279079437 -1103802622 1542073874 -1108709285 -372512749 1099465201
REM
CELL 1.54180   50.00000   50.00000   50.00000   90.00000   90.00000   90.00000
LATT -1
SFAC C  
C      1  0.4864380000000  0.4571420000000  0.5680850000000 1.0
C      1  0.4847830000000  0.4411400000000  0.4794500000000 1.0
C      1  0.4846910000000  0.4998560000000  0.4339660000000 1.0
C      1  0.4813060000000  0.5717050000000  0.4733190000000 1.0
C      1  0.4800040000000  0.5387260000000  0.5578660000000 1.0
C      1  0.4880070000000  0.5556790000000  0.5356140000000 1.0
C      1  0.4932800000000  0.4844550000000  0.5728160000000 1.0
C      1  0.4881030000000  0.4355340000000  0.5070580000000 1.0
C      1  0.4862570000000  0.4713860000000  0.4376810000000 1.0
C      1  0.4870350000000  0.5529900000000  0.4528010000000 1.0
C      1  0.5372690000000  0.4721830000000  0.5609370000000 1.0
C      1  0.5341170000000  0.4255450000000  0.5012370000000 1.0
C      1  0.5331950000000  0.4759610000000  0.4349550000000 1.0
C      1  0.5348760000000  0.5551700000000  0.4592420000000 1.0
C      1  0.5354650000000  0.5588560000000  0.5419200000000 1.0
C      1  0.4488760000000  0.4583750000000  0.4980060000000 1.0
C      1  0.4451710000000  0.4910340000000  0.4513190000000 1.0
C      1  0.4452020000000  0.5422630000000  0.4744070000000 1.0
C      1  0.4492810000000  0.5371540000000  0.5257840000000 1.0
C      1  0.4609660000000  0.4871770000000  0.5425490000000 1.0
C      1  0.4713070000000  0.5251840000000  0.4827670000000 1.0
C      1  0.4711120000000  0.5223060000000  0.5121130000000 1.0
C      1  0.4790430000000  0.4949630000000  0.5201980000000 1.0
C      1  0.4765090000000  0.4765480000000  0.4950440000000 1.0
C      1  0.4752120000000  0.4969650000000  0.4715800000000 1.0
C      1  0.5233280000000  0.4404660000000  0.4524070000000 1.0
C      1  0.5261680000000  0.5282240000000  0.4326030000000 1.0
C      1  0.5251880000000  0.5729480000000  0.5073970000000 1.0
C      1  0.5281850000000  0.5172950000000  0.5678460000000 1.0
C      1  0.5270020000000  0.4299910000000  0.5389210000000 1.0
C      1  0.5615520000000  0.4983480000000  0.5226830000000 1.0
C      1  0.5529890000000  0.4753040000000  0.5083480000000 1.0
C      1  0.5551280000000  0.4817450000000  0.4800610000000 1.0
C      1  0.5512750000000  0.5099020000000  0.4795650000000 1.0
C      1  0.5502060000000  0.5193090000000  0.5071700000000 1.0
C      1  0.5353860000000  0.5025490000000  0.4295390000000 1.0
C      1  0.5361630000000  0.5688680000000  0.4827340000000 1.0
C      1  0.5381200000000  0.5413690000000  0.5625250000000 1.0
C      1  0.5402020000000  0.4460380000000  0.5565410000000 1.0
C      1  0.5332310000000  0.4272520000000  0.4739730000000 1.0
C      1  0.5148830000000  0.5510390000000  0.5233910000000 1.0
C      1  0.5177610000000  0.4927980000000  0.5577510000000 1.0
C      1  0.5156580000000  0.4426250000000  0.5153950000000 1.0
C      1  0.5128980000000  0.4667210000000  0.4519650000000 1.0
C      1  0.5127220000000  0.5371150000000  0.4567210000000 1.0
C      1  0.5138750000000  0.5155990000000  0.4807550000000 1.0
C      1  0.5209490000000  0.5221580000000  0.5116890000000 1.0
C      1  0.5100100000000  0.4957430000000  0.5269520000000 1.0
C      1  0.5230620000000  0.4725120000000  0.5094920000000 1.0
C      1  0.5163210000000  0.4830190000000  0.4789770000000 1.0
C      1  0.4573860000000  0.4453360000000  0.4710950000000 1.0
C      1  0.4584600000000  0.5118890000000  0.4343930000000 1.0
C      1  0.4565510000000  0.5671720000000  0.4869290000000 1.0
C      1  0.4519710000000  0.5347760000000  0.5547380000000 1.0
C      1  0.4666240000000  0.4592710000000  0.5476140000000 1.0
C      1  0.4702930000000  0.5026700000000  0.5659630000000 1.0
C      1  0.4633340000000  0.4437880000000  0.5214990000000 1.0
C      1  0.4580060000000  0.4642550000000  0.4474120000000 1.0
C      1  0.4600190000000  0.5393320000000  0.4477430000000 1.0
C      1  0.4575880000000  0.5642770000000  0.5165030000000 1.0
END
