TITL C-8700-8172-268 6.58282526599468e-06 125000 -363.809408955545 0 0 60 (C1) n - 1
REM
REM in /home/bkarasulu/CARBON/AIRSS/Generating-Clusters/EDIP-Nigel-Params/Higher-Symm/Box-15A/Only-C60/SD-CG/HFTN-CG
REM
REM
REM
REM
REM
REM ./C.cell (414f73aa93bd7a1190c7fd0f31ff2f98)
REM
REM compiler GCC version 9.2.1 20190827 (Red Hat 9.2.1-1)
REM options -cpp -mtune=generic -march=x86-64 -g -O0 -fpre-include=/usr/include/finclude/math-vector-fortran.h
REM seed -1933523520 911160947 1770944160 -732406749 199768690 -1822887101 596078281 -1144216122 1474932866 905981787 129971819 -753195506 -1183752340 -262520058 -650065189 -25662082 979426481 -1691364373 -556970037 -1063695203 -884789117 -1541956657 -1457766116 1170518310 1163598775 1181485223 501923253 -272422704 1924791374 1627544596 1531270423 -2135125854 129423303
REM
CELL 1.54180   50.00000   50.00000   50.00000   90.00000   90.00000   90.00000
LATT -1
SFAC C  
C      1  0.5075520000000  0.4433000000000  0.4273520000000 1.0
C      1  0.5014790000000  0.5892760000000  0.4836330000000 1.0
C      1  0.5036050000000  0.4706200000000  0.5859320000000 1.0
C      1  0.5073140000000  0.4329030000000  0.4738660000000 1.0
C      1  0.5139610000000  0.5595180000000  0.4618210000000 1.0
C      1  0.5097500000000  0.5073860000000  0.5744710000000 1.0
C      1  0.5059340000000  0.4192110000000  0.5200420000000 1.0
C      1  0.5071870000000  0.5280800000000  0.4238330000000 1.0
C      1  0.4965550000000  0.5517130000000  0.5570860000000 1.0
C      1  0.5054310000000  0.4475540000000  0.5683940000000 1.0
C      1  0.5086110000000  0.4701520000000  0.4183660000000 1.0
C      1  0.5005040000000  0.5866760000000  0.5126570000000 1.0
C      1  0.5105960000000  0.4750300000000  0.4869850000000 1.0
C      1  0.5071990000000  0.5187300000000  0.4935610000000 1.0
C      1  0.5108130000000  0.4945500000000  0.5082970000000 1.0
C      1  0.5462580000000  0.4562580000000  0.5337700000000 1.0
C      1  0.5479490000000  0.4943210000000  0.4465890000000 1.0
C      1  0.5413100000000  0.5510420000000  0.5227160000000 1.0
C      1  0.5221610000000  0.5370960000000  0.4458530000000 1.0
C      1  0.5131130000000  0.5282740000000  0.5556090000000 1.0
C      1  0.5203250000000  0.4305550000000  0.4987500000000 1.0
C      1  0.4928100000000  0.4412180000000  0.4512530000000 1.0
C      1  0.4874040000000  0.5672660000000  0.4706380000000 1.0
C      1  0.4863770000000  0.4909610000000  0.5745930000000 1.0
C      1  0.4351990000000  0.4803770000000  0.5126770000000 1.0
C      1  0.4357610000000  0.4951070000000  0.4763270000000 1.0
C      1  0.4331820000000  0.5190940000000  0.5073570000000 1.0
C      1  0.5568760000000  0.4610950000000  0.4855420000000 1.0
C      1  0.5579770000000  0.5313500000000  0.4779330000000 1.0
C      1  0.5547030000000  0.5073850000000  0.5410920000000 1.0
C      1  0.5415150000000  0.4495190000000  0.5057980000000 1.0
C      1  0.5438330000000  0.5211860000000  0.4563150000000 1.0
C      1  0.5386130000000  0.5300710000000  0.5422960000000 1.0
C      1  0.4718290000000  0.5579570000000  0.5431280000000 1.0
C      1  0.4847320000000  0.4372120000000  0.5245920000000 1.0
C      1  0.4869920000000  0.5121380000000  0.4353020000000 1.0
C      1  0.5580370000000  0.4808040000000  0.5392160000000 1.0
C      1  0.5601320000000  0.4762210000000  0.4636400000000 1.0
C      1  0.5570760000000  0.5457940000000  0.5005080000000 1.0
C      1  0.4808650000000  0.4486930000000  0.5514760000000 1.0
C      1  0.4831460000000  0.4833610000000  0.4270340000000 1.0
C      1  0.4729880000000  0.5741460000000  0.5174900000000 1.0
C      1  0.4758830000000  0.5278600000000  0.5339120000000 1.0
C      1  0.4803830000000  0.4603500000000  0.5058920000000 1.0
C      1  0.4819380000000  0.5139420000000  0.4651190000000 1.0
C      1  0.4887010000000  0.4850120000000  0.4710120000000 1.0
C      1  0.4846610000000  0.5309840000000  0.5053570000000 1.0
C      1  0.4858330000000  0.4862400000000  0.5219900000000 1.0
C      1  0.4451380000000  0.5401600000000  0.4871640000000 1.0
C      1  0.4458540000000  0.4876240000000  0.5412830000000 1.0
C      1  0.4481390000000  0.4673720000000  0.4678520000000 1.0
C      1  0.4759420000000  0.4666770000000  0.4525310000000 1.0
C      1  0.4715460000000  0.5543170000000  0.4937730000000 1.0
C      1  0.4744630000000  0.4785940000000  0.5491400000000 1.0
C      1  0.5224910000000  0.5718420000000  0.5226710000000 1.0
C      1  0.5291940000000  0.4457150000000  0.5532220000000 1.0
C      1  0.5315470000000  0.4844950000000  0.4262210000000 1.0
C      1  0.4472050000000  0.5166480000000  0.5341790000000 1.0
C      1  0.4515000000000  0.4602840000000  0.4970030000000 1.0
C      1  0.4519280000000  0.5186850000000  0.4678910000000 1.0
END
