TITL C-8700-8172-134 2.46284328506325e-06 125000 -376.564311948455 0 0 60 (C2h) n - 1
REM
REM in /home/bkarasulu/CARBON/AIRSS/Generating-Clusters/EDIP-Nigel-Params/Higher-Symm/Box-15A/Only-C60/SD-CG/HFTN-CG
REM
REM
REM
REM
REM
REM ./C.cell (414f73aa93bd7a1190c7fd0f31ff2f98)
REM
REM compiler GCC version 9.2.1 20190827 (Red Hat 9.2.1-1)
REM options -cpp -mtune=generic -march=x86-64 -g -O0 -fpre-include=/usr/include/finclude/math-vector-fortran.h
REM seed -687837057 1344056600 -2000339271 453316497 1897953399 -860501248 -504332629 -406803763 -1997286080 -1100693883 -410031129 2144198990 790344052 1606936727 -704300545 -59962713 -1190125171 -723799845 1404603907 1131407465 -357753143 -1230543610 228674988 302984152 -1662934740 -531419201 -96244077 1205816111 375074502 2029637680 681302786 1971106142 753659135
REM
CELL 1.54180   50.00000   50.00000   50.00000   90.00000   90.00000   90.00000
LATT -1
SFAC C  
C      1  0.5289320000000  0.5441220000000  0.5406690000000 1.0
C      1  0.5275840000000  0.4473340000000  0.5518460000000 1.0
C      1  0.4436500000000  0.4984450000000  0.5444840000000 1.0
C      1  0.4710960000000  0.5441390000000  0.5406700000000 1.0
C      1  0.4723850000000  0.4473510000000  0.5518470000000 1.0
C      1  0.5563500000000  0.4984100000000  0.5444830000000 1.0
C      1  0.4349870000000  0.4826730000000  0.4745080000000 1.0
C      1  0.5146610000000  0.5671300000000  0.4685850000000 1.0
C      1  0.5518470000000  0.4569470000000  0.4753360000000 1.0
C      1  0.5650020000000  0.4826330000000  0.4745070000000 1.0
C      1  0.4853790000000  0.5671390000000  0.4685850000000 1.0
C      1  0.4481260000000  0.4569790000000  0.4753370000000 1.0
C      1  0.4253380000000  0.5564620000000  0.4820980000000 1.0
C      1  0.5893040000000  0.5347660000000  0.4883630000000 1.0
C      1  0.4865260000000  0.4174970000000  0.4855070000000 1.0
C      1  0.5746960000000  0.5564160000000  0.4820970000000 1.0
C      1  0.4107170000000  0.5348210000000  0.4883650000000 1.0
C      1  0.5134230000000  0.4174890000000  0.4855070000000 1.0
C      1  0.4857600000000  0.5213020000000  0.5469830000000 1.0
C      1  0.5287960000000  0.4968330000000  0.5492620000000 1.0
C      1  0.4855670000000  0.4721260000000  0.5522700000000 1.0
C      1  0.5142540000000  0.5212930000000  0.5469830000000 1.0
C      1  0.4712030000000  0.4968500000000  0.5492620000000 1.0
C      1  0.5144170000000  0.4721170000000  0.5522700000000 1.0
C      1  0.5746620000000  0.4435380000000  0.5179020000000 1.0
C      1  0.4106960000000  0.4652340000000  0.5116370000000 1.0
C      1  0.5134740000000  0.5825030000000  0.5144930000000 1.0
C      1  0.4253040000000  0.4435840000000  0.5179030000000 1.0
C      1  0.5892830000000  0.4651790000000  0.5116350000000 1.0
C      1  0.4865770000000  0.5825110000000  0.5144930000000 1.0
C      1  0.4481530000000  0.5430530000000  0.5246640000000 1.0
C      1  0.5650130000000  0.5173270000000  0.5254920000000 1.0
C      1  0.4853390000000  0.4328700000000  0.5314150000000 1.0
C      1  0.5518740000000  0.5430210000000  0.5246630000000 1.0
C      1  0.4349980000000  0.5173670000000  0.5254930000000 1.0
C      1  0.5146210000000  0.4328610000000  0.5314150000000 1.0
C      1  0.5563500000000  0.5015550000000  0.4555160000000 1.0
C      1  0.4710680000000  0.4558780000000  0.4593310000000 1.0
C      1  0.4724160000000  0.5526660000000  0.4481540000000 1.0
C      1  0.4436500000000  0.5015900000000  0.4555170000000 1.0
C      1  0.5289040000000  0.4558610000000  0.4593300000000 1.0
C      1  0.5276150000000  0.5526490000000  0.4481530000000 1.0
C      1  0.4707220000000  0.5740880000000  0.4930440000000 1.0
C      1  0.5868560000000  0.4865570000000  0.4937250000000 1.0
C      1  0.4472980000000  0.4422540000000  0.5005470000000 1.0
C      1  0.5293230000000  0.5740700000000  0.4930440000000 1.0
C      1  0.4131350000000  0.4866110000000  0.4937270000000 1.0
C      1  0.5526660000000  0.4422220000000  0.5005460000000 1.0
C      1  0.5868650000000  0.5133890000000  0.5062730000000 1.0
C      1  0.4706770000000  0.4259300000000  0.5069560000000 1.0
C      1  0.4473340000000  0.5577780000000  0.4994540000000 1.0
C      1  0.4131440000000  0.5134430000000  0.5062750000000 1.0
C      1  0.5292780000000  0.4259120000000  0.5069560000000 1.0
C      1  0.5527020000000  0.5577460000000  0.4994530000000 1.0
C      1  0.5144330000000  0.5278740000000  0.4477300000000 1.0
C      1  0.5142400000000  0.4786980000000  0.4530170000000 1.0
C      1  0.4712040000000  0.5031670000000  0.4507380000000 1.0
C      1  0.4855830000000  0.5278830000000  0.4477300000000 1.0
C      1  0.4857460000000  0.4787070000000  0.4530170000000 1.0
C      1  0.5287970000000  0.5031500000000  0.4507380000000 1.0
END
