TITL C-8700-8172-137 -1.07146052765132e-06 125000 -365.755416479982 0 0 60 (C1) n - 1
REM
REM in /home/bkarasulu/CARBON/AIRSS/Generating-Clusters/EDIP-Nigel-Params/Higher-Symm/Box-15A/Only-C60/SD-CG/HFTN-CG
REM
REM
REM
REM
REM
REM ./C.cell (414f73aa93bd7a1190c7fd0f31ff2f98)
REM
REM compiler GCC version 9.2.1 20190827 (Red Hat 9.2.1-1)
REM options -cpp -mtune=generic -march=x86-64 -g -O0 -fpre-include=/usr/include/finclude/math-vector-fortran.h
REM seed 1600183912 139680800 -1120774987 -1201038062 -1547914904 -950697277 -1496325862 811688545 -521015226 1072828541 918394624 -1168701572 1272295675 -1034791906 509242158 -1669390743 -994341804 -384725317 -945957736 -987490456 1744741128 -375865421 871537143 885903721 1902142027 502832432 1722348798 1965994788 1223184076 1691536463 -776966294 77327033 873006198
REM
CELL 1.54180   50.00000   50.00000   50.00000   90.00000   90.00000   90.00000
LATT -1
SFAC C  
C      1  0.5022600000000  0.5345500000000  0.5023370000000 1.0
C      1  0.5076250000000  0.5074460000000  0.4842410000000 1.0
C      1  0.5005060000000  0.4832530000000  0.4640430000000 1.0
C      1  0.4975650000000  0.4563180000000  0.4789140000000 1.0
C      1  0.4989860000000  0.4617800000000  0.5082070000000 1.0
C      1  0.4992730000000  0.5012490000000  0.5379040000000 1.0
C      1  0.4977740000000  0.5307540000000  0.5316140000000 1.0
C      1  0.5151590000000  0.5632810000000  0.4690350000000 1.0
C      1  0.5110060000000  0.5153460000000  0.4283610000000 1.0
C      1  0.5099720000000  0.4471410000000  0.4345560000000 1.0
C      1  0.5134820000000  0.4177370000000  0.4974930000000 1.0
C      1  0.5141410000000  0.4580050000000  0.5529240000000 1.0
C      1  0.5117880000000  0.5207890000000  0.5783090000000 1.0
C      1  0.5074670000000  0.5741910000000  0.5348110000000 1.0
C      1  0.5220070000000  0.4266080000000  0.4492270000000 1.0
C      1  0.5264700000000  0.4231800000000  0.5215030000000 1.0
C      1  0.5294710000000  0.4750640000000  0.5685090000000 1.0
C      1  0.5203120000000  0.5469670000000  0.5736440000000 1.0
C      1  0.5205320000000  0.5817020000000  0.5117730000000 1.0
C      1  0.5327150000000  0.5514770000000  0.4513240000000 1.0
C      1  0.5205870000000  0.4911450000000  0.4190750000000 1.0
C      1  0.5226360000000  0.4520360000000  0.5244060000000 1.0
C      1  0.5239840000000  0.5012220000000  0.5575390000000 1.0
C      1  0.5192030000000  0.5485240000000  0.5444320000000 1.0
C      1  0.5228010000000  0.5566430000000  0.4967660000000 1.0
C      1  0.5254200000000  0.5236280000000  0.4531340000000 1.0
C      1  0.5202140000000  0.4742350000000  0.4426440000000 1.0
C      1  0.5221340000000  0.4375780000000  0.4761890000000 1.0
C      1  0.4796900000000  0.5716370000000  0.5316090000000 1.0
C      1  0.4882450000000  0.5559410000000  0.4662670000000 1.0
C      1  0.4832470000000  0.5185400000000  0.4281380000000 1.0
C      1  0.4820370000000  0.4477540000000  0.4333770000000 1.0
C      1  0.4854050000000  0.4203610000000  0.4996080000000 1.0
C      1  0.4862430000000  0.4600070000000  0.5565710000000 1.0
C      1  0.4834870000000  0.5213390000000  0.5782170000000 1.0
C      1  0.5461850000000  0.4668190000000  0.5107900000000 1.0
C      1  0.5473310000000  0.5102670000000  0.5401500000000 1.0
C      1  0.5467440000000  0.5393900000000  0.5334300000000 1.0
C      1  0.5501970000000  0.5426550000000  0.5032840000000 1.0
C      1  0.5475950000000  0.5062670000000  0.4656190000000 1.0
C      1  0.5459850000000  0.4767630000000  0.4593480000000 1.0
C      1  0.5461940000000  0.4566170000000  0.4821280000000 1.0
C      1  0.4573770000000  0.5590580000000  0.5226820000000 1.0
C      1  0.4682320000000  0.5398430000000  0.4755000000000 1.0
C      1  0.4589420000000  0.5141910000000  0.4391060000000 1.0
C      1  0.4595000000000  0.4601290000000  0.4418290000000 1.0
C      1  0.4653770000000  0.4382070000000  0.4911320000000 1.0
C      1  0.4767740000000  0.4863610000000  0.5523990000000 1.0
C      1  0.4603220000000  0.5256900000000  0.5641110000000 1.0
C      1  0.4557250000000  0.4660440000000  0.4896000000000 1.0
C      1  0.4534980000000  0.4899110000000  0.5342470000000 1.0
C      1  0.4451730000000  0.5170330000000  0.5413890000000 1.0
C      1  0.4449800000000  0.5343360000000  0.5171840000000 1.0
C      1  0.4524290000000  0.5190230000000  0.4895420000000 1.0
C      1  0.4459430000000  0.5038540000000  0.4617790000000 1.0
C      1  0.4476650000000  0.4744810000000  0.4630890000000 1.0
C      1  0.4941330000000  0.4906080000000  0.5091770000000 1.0
C      1  0.4637820000000  0.4909190000000  0.5058170000000 1.0
C      1  0.5489320000000  0.4959220000000  0.5147140000000 1.0
C      1  0.5558890000000  0.5142360000000  0.4932310000000 1.0
END
