TITL C-8701-7969-38 0.000419347261921667 125000 -361.287163861713 0 0 60 (C1) n - 1
REM
REM in /home/bkarasulu/CARBON/AIRSS/Generating-Clusters/EDIP-Nigel-Params/Higher-Symm/Box-15A/Only-C60/SD-CG/HFTN-CG
REM
REM
REM
REM
REM
REM ./C.cell (414f73aa93bd7a1190c7fd0f31ff2f98)
REM
REM compiler GCC version 9.2.1 20190827 (Red Hat 9.2.1-1)
REM options -cpp -mtune=generic -march=x86-64 -g -O0 -fpre-include=/usr/include/finclude/math-vector-fortran.h
REM seed 1185571659 183433852 -1162091626 159772436 -857552913 1250591226 950877994 1976017133 1308293450 -504800734 -1484125216 301059613 -728186900 1585000353 -863361988 -1107091678 721627805 -382850033 954715040 -1385752947 1320534366 17963159 -346236780 -1763883179 -1533644978 -2136003139 -1167822772 2076428861 1678488012 -2106793348 -85681024 -1522686014 1089512766
REM
CELL 1.54180   50.00000   50.00000   50.00000   90.00000   90.00000   90.00000
LATT -1
SFAC C  
C      1  0.4535980000000  0.5528280000000  0.5172800000000 1.0
C      1  0.4800390000000  0.4308180000000  0.5158640000000 1.0
C      1  0.5698500000000  0.5178540000000  0.5118870000000 1.0
C      1  0.4517620000000  0.5537460000000  0.4874600000000 1.0
C      1  0.4832740000000  0.4322340000000  0.4866920000000 1.0
C      1  0.5693450000000  0.5143430000000  0.4823710000000 1.0
C      1  0.5351200000000  0.5454560000000  0.5299950000000 1.0
C      1  0.4455120000000  0.5128300000000  0.5345830000000 1.0
C      1  0.5124550000000  0.4496630000000  0.5395540000000 1.0
C      1  0.5385410000000  0.5377750000000  0.4610320000000 1.0
C      1  0.4488680000000  0.5132370000000  0.4629040000000 1.0
C      1  0.5229100000000  0.4449710000000  0.4711810000000 1.0
C      1  0.5582830000000  0.4829850000000  0.4439060000000 1.0
C      1  0.4750030000000  0.5659800000000  0.4444770000000 1.0
C      1  0.4619290000000  0.4472000000000  0.4431180000000 1.0
C      1  0.5659470000000  0.4944130000000  0.5564180000000 1.0
C      1  0.4851070000000  0.5573180000000  0.5576210000000 1.0
C      1  0.4526110000000  0.4456110000000  0.5555050000000 1.0
C      1  0.5663530000000  0.5360280000000  0.4642920000000 1.0
C      1  0.4358890000000  0.5365780000000  0.4719090000000 1.0
C      1  0.5058820000000  0.4228680000000  0.4734790000000 1.0
C      1  0.5623820000000  0.5415630000000  0.5246150000000 1.0
C      1  0.4353090000000  0.5388790000000  0.5335990000000 1.0
C      1  0.5011870000000  0.4246780000000  0.5333670000000 1.0
C      1  0.4375730000000  0.4928020000000  0.4476730000000 1.0
C      1  0.5375080000000  0.4505950000000  0.4466880000000 1.0
C      1  0.5256320000000  0.5572100000000  0.4461110000000 1.0
C      1  0.4338040000000  0.4926480000000  0.5494840000000 1.0
C      1  0.5354770000000  0.4527540000000  0.5547850000000 1.0
C      1  0.5236620000000  0.5559190000000  0.5547570000000 1.0
C      1  0.5042440000000  0.4731510000000  0.5246970000000 1.0
C      1  0.5153080000000  0.5217540000000  0.5288690000000 1.0
C      1  0.4700690000000  0.5071760000000  0.5203640000000 1.0
C      1  0.5126760000000  0.4741960000000  0.4739290000000 1.0
C      1  0.5226780000000  0.5211190000000  0.4784100000000 1.0
C      1  0.4765300000000  0.5083130000000  0.4704150000000 1.0
C      1  0.5698520000000  0.4873590000000  0.4703760000000 1.0
C      1  0.4734670000000  0.5660070000000  0.4725120000000 1.0
C      1  0.4615750000000  0.4431480000000  0.4708900000000 1.0
C      1  0.5688420000000  0.4941780000000  0.5285140000000 1.0
C      1  0.4766260000000  0.5657250000000  0.5308890000000 1.0
C      1  0.4572810000000  0.4439310000000  0.5279630000000 1.0
C      1  0.4477740000000  0.4637830000000  0.4843960000000 1.0
C      1  0.5601520000000  0.4676940000000  0.4883000000000 1.0
C      1  0.4980900000000  0.5677340000000  0.4859530000000 1.0
C      1  0.4428390000000  0.4617320000000  0.5118980000000 1.0
C      1  0.5575660000000  0.4716830000000  0.5158750000000 1.0
C      1  0.4994180000000  0.5664810000000  0.5139320000000 1.0
C      1  0.4901130000000  0.5288190000000  0.5130640000000 1.0
C      1  0.4771510000000  0.4795310000000  0.5115390000000 1.0
C      1  0.5257720000000  0.4929440000000  0.5202430000000 1.0
C      1  0.4946380000000  0.5295680000000  0.4827860000000 1.0
C      1  0.4820920000000  0.4805600000000  0.4800150000000 1.0
C      1  0.5311080000000  0.4935100000000  0.4894720000000 1.0
C      1  0.5012200000000  0.5648030000000  0.4378630000000 1.0
C      1  0.4464160000000  0.4690510000000  0.4382400000000 1.0
C      1  0.5301430000000  0.4778150000000  0.4405200000000 1.0
C      1  0.5039850000000  0.5362290000000  0.5622390000000 1.0
C      1  0.4389070000000  0.4684940000000  0.5600380000000 1.0
C      1  0.5526540000000  0.4717270000000  0.5631870000000 1.0
END
