TITL C-8701-7969-166 1.66142534398172e-06 125000 -366.605623680699 0 0 60 (C1) n - 1
REM
REM in /home/bkarasulu/CARBON/AIRSS/Generating-Clusters/EDIP-Nigel-Params/Higher-Symm/Box-15A/Only-C60/SD-CG/HFTN-CG
REM
REM
REM
REM
REM
REM ./C.cell (414f73aa93bd7a1190c7fd0f31ff2f98)
REM
REM compiler GCC version 9.2.1 20190827 (Red Hat 9.2.1-1)
REM options -cpp -mtune=generic -march=x86-64 -g -O0 -fpre-include=/usr/include/finclude/math-vector-fortran.h
REM seed 1658358643 -839987934 -193791309 -164354586 -369814889 43819679 -2066252117 -163656204 1460342357 -870850459 -275627241 -1261712619 -1775091351 -1904358269 540704075 -71257542 1801405390 -1977645885 1886932226 -556437950 -2018710919 -1003472375 -1207245402 -1374133297 -1921890205 -1860596768 -318363305 -1065663388 -438319066 373216361 1759458299 -1906594459 1925615717
REM
CELL 1.54180   50.00000   50.00000   50.00000   90.00000   90.00000   90.00000
LATT -1
SFAC C  
C      1  0.4717290000000  0.5002380000000  0.4520970000000 1.0
C      1  0.4708500000000  0.4590030000000  0.5240610000000 1.0
C      1  0.4709290000000  0.5419210000000  0.5249900000000 1.0
C      1  0.5283870000000  0.5003310000000  0.4515640000000 1.0
C      1  0.5323570000000  0.4453810000000  0.5266660000000 1.0
C      1  0.5283330000000  0.5410990000000  0.5244580000000 1.0
C      1  0.5149760000000  0.5286200000000  0.4488970000000 1.0
C      1  0.5155940000000  0.4483740000000  0.5021120000000 1.0
C      1  0.5148730000000  0.5303180000000  0.5504990000000 1.0
C      1  0.4846780000000  0.5284690000000  0.4490730000000 1.0
C      1  0.4861700000000  0.4436780000000  0.5020710000000 1.0
C      1  0.4844280000000  0.5303720000000  0.5506290000000 1.0
C      1  0.4304460000000  0.5269680000000  0.5467110000000 1.0
C      1  0.4312810000000  0.5265070000000  0.4526200000000 1.0
C      1  0.4310790000000  0.4450290000000  0.5000060000000 1.0
C      1  0.5692910000000  0.5244450000000  0.5450310000000 1.0
C      1  0.5680990000000  0.5276710000000  0.4520000000000 1.0
C      1  0.5715750000000  0.4460420000000  0.5000900000000 1.0
C      1  0.5207810000000  0.4911730000000  0.5113130000000 1.0
C      1  0.5146530000000  0.5218450000000  0.5038430000000 1.0
C      1  0.5148700000000  0.4914430000000  0.4792830000000 1.0
C      1  0.4817530000000  0.4890770000000  0.5156800000000 1.0
C      1  0.4837300000000  0.5217470000000  0.5043670000000 1.0
C      1  0.4841300000000  0.4922930000000  0.4803480000000 1.0
C      1  0.5572760000000  0.5407800000000  0.4746940000000 1.0
C      1  0.5595000000000  0.4589210000000  0.4780300000000 1.0
C      1  0.5552970000000  0.4999580000000  0.5463750000000 1.0
C      1  0.4423620000000  0.5398630000000  0.4749830000000 1.0
C      1  0.4430070000000  0.4578620000000  0.4778070000000 1.0
C      1  0.4425020000000  0.5013710000000  0.5472410000000 1.0
C      1  0.4365350000000  0.4870380000000  0.4801130000000 1.0
C      1  0.4390460000000  0.4896970000000  0.5191850000000 1.0
C      1  0.4360250000000  0.5232300000000  0.4989450000000 1.0
C      1  0.5646380000000  0.4887610000000  0.4806420000000 1.0
C      1  0.5515350000000  0.4880170000000  0.5177820000000 1.0
C      1  0.5635020000000  0.5237330000000  0.4977930000000 1.0
C      1  0.4722360000000  0.4505160000000  0.4760630000000 1.0
C      1  0.4710460000000  0.5036830000000  0.5556740000000 1.0
C      1  0.4712870000000  0.5457860000000  0.4700470000000 1.0
C      1  0.5303520000000  0.4509140000000  0.4760860000000 1.0
C      1  0.5282940000000  0.5039970000000  0.5581570000000 1.0
C      1  0.5281940000000  0.5458890000000  0.4700820000000 1.0
C      1  0.4760020000000  0.4536210000000  0.5525590000000 1.0
C      1  0.4760530000000  0.5691900000000  0.5151250000000 1.0
C      1  0.4774220000000  0.4781310000000  0.4334670000000 1.0
C      1  0.5243320000000  0.4542920000000  0.5520220000000 1.0
C      1  0.5237750000000  0.5687180000000  0.5151620000000 1.0
C      1  0.5245910000000  0.4779130000000  0.4326320000000 1.0
C      1  0.5140110000000  0.5635830000000  0.4889320000000 1.0
C      1  0.5157390000000  0.4578020000000  0.4509420000000 1.0
C      1  0.5135220000000  0.4788990000000  0.5595900000000 1.0
C      1  0.4856050000000  0.5633540000000  0.4889880000000 1.0
C      1  0.4871390000000  0.4586030000000  0.4517410000000 1.0
C      1  0.4855130000000  0.4788020000000  0.5609440000000 1.0
C      1  0.5578960000000  0.5368010000000  0.5225780000000 1.0
C      1  0.5578950000000  0.5014900000000  0.4549660000000 1.0
C      1  0.5583540000000  0.4579780000000  0.5221200000000 1.0
C      1  0.4413480000000  0.5382860000000  0.5233700000000 1.0
C      1  0.4421810000000  0.5006400000000  0.4550160000000 1.0
C      1  0.4409970000000  0.4598360000000  0.5217370000000 1.0
END
