TITL C-8705-8172-129 -7.56375253162104e-06 125000 -365.930908776865 0 0 60 (C1) n - 1
REM
REM in /home/bkarasulu/CARBON/AIRSS/Generating-Clusters/EDIP-Nigel-Params/Higher-Symm/Box-15A/Only-C60/SD-CG/HFTN-CG
REM
REM
REM
REM
REM
REM ./C.cell (414f73aa93bd7a1190c7fd0f31ff2f98)
REM
REM compiler GCC version 9.2.1 20190827 (Red Hat 9.2.1-1)
REM options -cpp -mtune=generic -march=x86-64 -g -O0 -fpre-include=/usr/include/finclude/math-vector-fortran.h
REM seed -814541701 -465109822 526256985 -743698621 -1932306834 -982356676 -998378134 -677912356 1883253229 262589438 1994402412 -1424220910 -726018576 -1182047622 -1976345741 872979963 2068087372 -142626939 -740875592 -1528812756 -1649945247 2125215091 -402671808 -64034811 -2110226038 -569063273 -1328476747 2100897403 378638653 -845071910 1430073292 746875902 1224644340
REM
CELL 1.54180   50.00000   50.00000   50.00000   90.00000   90.00000   90.00000
LATT -1
SFAC C  
C      1  0.4870520000000  0.5474770000000  0.5498480000000 1.0
C      1  0.4282990000000  0.5238520000000  0.5233730000000 1.0
C      1  0.5047760000000  0.5541650000000  0.4822960000000 1.0
C      1  0.4630610000000  0.4915520000000  0.5343820000000 1.0
C      1  0.4655060000000  0.4533200000000  0.5043910000000 1.0
C      1  0.5513510000000  0.5438830000000  0.4844340000000 1.0
C      1  0.5063540000000  0.4682610000000  0.5117970000000 1.0
C      1  0.4553770000000  0.4439430000000  0.4788770000000 1.0
C      1  0.4819750000000  0.4867010000000  0.4428800000000 1.0
C      1  0.5293700000000  0.4895970000000  0.4324290000000 1.0
C      1  0.4590770000000  0.5339460000000  0.5032440000000 1.0
C      1  0.5291930000000  0.5183820000000  0.5581160000000 1.0
C      1  0.5262170000000  0.4900520000000  0.5237910000000 1.0
C      1  0.5449090000000  0.4384820000000  0.5165630000000 1.0
C      1  0.4812830000000  0.5109450000000  0.4618000000000 1.0
C      1  0.4926940000000  0.5385420000000  0.4369630000000 1.0
C      1  0.5323530000000  0.4392480000000  0.4698510000000 1.0
C      1  0.5172270000000  0.4404780000000  0.5043770000000 1.0
C      1  0.4776300000000  0.4760120000000  0.5537740000000 1.0
C      1  0.4414820000000  0.5371470000000  0.4774500000000 1.0
C      1  0.4779100000000  0.4362510000000  0.5235290000000 1.0
C      1  0.4411900000000  0.4900440000000  0.4900930000000 1.0
C      1  0.5385930000000  0.4705880000000  0.5581760000000 1.0
C      1  0.4390440000000  0.4700630000000  0.4681040000000 1.0
C      1  0.5311890000000  0.5536900000000  0.5269520000000 1.0
C      1  0.4979400000000  0.4195110000000  0.5124760000000 1.0
C      1  0.4895090000000  0.4528430000000  0.5431810000000 1.0
C      1  0.5066570000000  0.4562170000000  0.4639570000000 1.0
C      1  0.4226710000000  0.5114200000000  0.4974390000000 1.0
C      1  0.4801360000000  0.5089240000000  0.4973600000000 1.0
C      1  0.4542190000000  0.5234970000000  0.4546770000000 1.0
C      1  0.4641460000000  0.5330240000000  0.5566960000000 1.0
C      1  0.4803890000000  0.5699700000000  0.4846560000000 1.0
C      1  0.5505870000000  0.4593490000000  0.5356900000000 1.0
C      1  0.5495550000000  0.4982500000000  0.5033310000000 1.0
C      1  0.5576650000000  0.4381600000000  0.4878190000000 1.0
C      1  0.5702100000000  0.4788590000000  0.4996920000000 1.0
C      1  0.5079530000000  0.4729230000000  0.4382220000000 1.0
C      1  0.4652020000000  0.5466920000000  0.4411270000000 1.0
C      1  0.5390780000000  0.5312750000000  0.4592670000000 1.0
C      1  0.5116520000000  0.5426130000000  0.4571920000000 1.0
C      1  0.5778450000000  0.4576980000000  0.4849300000000 1.0
C      1  0.5566460000000  0.5225260000000  0.5538790000000 1.0
C      1  0.5112680000000  0.5332340000000  0.5384370000000 1.0
C      1  0.5574920000000  0.5399110000000  0.5315880000000 1.0
C      1  0.4618780000000  0.5666860000000  0.4623560000000 1.0
C      1  0.5049850000000  0.5123710000000  0.5173380000000 1.0
C      1  0.5041620000000  0.4816890000000  0.4833960000000 1.0
C      1  0.5219210000000  0.4919020000000  0.5675290000000 1.0
C      1  0.4672210000000  0.5631660000000  0.5098960000000 1.0
C      1  0.5442230000000  0.5012730000000  0.4523500000000 1.0
C      1  0.4531360000000  0.4772710000000  0.5122830000000 1.0
C      1  0.4809700000000  0.5690540000000  0.5335550000000 1.0
C      1  0.5293960000000  0.5592520000000  0.4975760000000 1.0
C      1  0.4944220000000  0.4882510000000  0.5720900000000 1.0
C      1  0.4488380000000  0.5151020000000  0.5418380000000 1.0
C      1  0.4618300000000  0.4645040000000  0.4462580000000 1.0
C      1  0.4796710000000  0.4412500000000  0.4595190000000 1.0
C      1  0.5623370000000  0.5260660000000  0.5056090000000 1.0
C      1  0.5310760000000  0.4986460000000  0.4792990000000 1.0
END
