TITL C-8706-7473-45 -1.4505049860767e-05 125000 -342.761641886026 0 0 60 (S10) n - 1
REM
REM in /home/bkarasulu/CARBON/AIRSS/Generating-Clusters/EDIP-Nigel-Params/Higher-Symm/Box-15A/Only-C60/SD-CG/HFTN-CG
REM
REM
REM
REM
REM
REM ./C.cell (414f73aa93bd7a1190c7fd0f31ff2f98)
REM
REM compiler GCC version 9.2.1 20190827 (Red Hat 9.2.1-1)
REM options -cpp -mtune=generic -march=x86-64 -g -O0 -fpre-include=/usr/include/finclude/math-vector-fortran.h
REM seed -2117185221 -736282251 1695994856 -465872245 -1340567009 90653072 -2022798967 -423158307 -671258936 -1030558779 -920826740 816177843 -1795480483 -1029295253 -876012155 547198690 535425142 -1107062708 638977810 597448077 18243665 560903304 1403283742 982155874 623291451 -139298368 -855077562 489678512 -1226348829 -1110302192 812078327 195692675 -1823401736
REM
CELL 1.54180   50.00000   50.00000   50.00000   90.00000   90.00000   90.00000
LATT -1
SFAC C  
C      1  0.4756840000000  0.4893710000000  0.5194580000000 1.0
C      1  0.4865750000000  0.4771030000000  0.4805490000000 1.0
C      1  0.5025980000000  0.4735900000000  0.5194590000000 1.0
C      1  0.5176250000000  0.4801550000000  0.4805460000000 1.0
C      1  0.5259240000000  0.4943100000000  0.5194550000000 1.0
C      1  0.5243160000000  0.5106290000000  0.4805420000000 1.0
C      1  0.5134250000000  0.5228970000000  0.5194510000000 1.0
C      1  0.4974020000000  0.5264100000000  0.4805410000000 1.0
C      1  0.4823750000000  0.5198450000000  0.5194540000000 1.0
C      1  0.4740760000000  0.5056900000000  0.4805450000000 1.0
C      1  0.4793250000000  0.4623990000000  0.4556260000000 1.0
C      1  0.5053770000000  0.4574410000000  0.5443860000000 1.0
C      1  0.5293640000000  0.4687170000000  0.4556220000000 1.0
C      1  0.5421450000000  0.4919630000000  0.5443790000000 1.0
C      1  0.5388190000000  0.5182580000000  0.4556140000000 1.0
C      1  0.5206750000000  0.5376010000000  0.5443740000000 1.0
C      1  0.4946230000000  0.5425590000000  0.4556140000000 1.0
C      1  0.4706360000000  0.5312830000000  0.5443780000000 1.0
C      1  0.4578550000000  0.5080370000000  0.4556210000000 1.0
C      1  0.4611810000000  0.4817420000000  0.5443860000000 1.0
C      1  0.5406320000000  0.5626310000000  0.4724300000000 1.0
C      1  0.4960590000000  0.5745600000000  0.5275490000000 1.0
C      1  0.4529850000000  0.5579970000000  0.4724360000000 1.0
C      1  0.4278760000000  0.5192940000000  0.5275610000000 1.0
C      1  0.4303090000000  0.4732070000000  0.4724490000000 1.0
C      1  0.4593680000000  0.4373690000000  0.5275700000000 1.0
C      1  0.5039410000000  0.4254400000000  0.4724510000000 1.0
C      1  0.5470150000000  0.4420030000000  0.5275640000000 1.0
C      1  0.5721240000000  0.4807060000000  0.4724390000000 1.0
C      1  0.5696910000000  0.5267930000000  0.5275510000000 1.0
C      1  0.5340020000000  0.4557980000000  0.5498890000000 1.0
C      1  0.5534880000000  0.4842110000000  0.4501140000000 1.0
C      1  0.5525540000000  0.5186800000000  0.5498790000000 1.0
C      1  0.5315360000000  0.5459890000000  0.4501070000000 1.0
C      1  0.4984830000000  0.5557560000000  0.5498770000000 1.0
C      1  0.4659980000000  0.5442020000000  0.4501110000000 1.0
C      1  0.4465120000000  0.5157890000000  0.5498860000000 1.0
C      1  0.4474460000000  0.4813200000000  0.4501210000000 1.0
C      1  0.4684640000000  0.4540110000000  0.5498930000000 1.0
C      1  0.5015170000000  0.4442440000000  0.4501230000000 1.0
C      1  0.5156910000000  0.4395210000000  0.4968040000000 1.0
C      1  0.5482430000000  0.4602960000000  0.5032050000000 1.0
C      1  0.5623670000000  0.4962340000000  0.4967940000000 1.0
C      1  0.5526700000000  0.5336130000000  0.5031950000000 1.0
C      1  0.5228530000000  0.5581510000000  0.4967880000000 1.0
C      1  0.4843090000000  0.5604790000000  0.5031960000000 1.0
C      1  0.4517570000000  0.5397040000000  0.4967950000000 1.0
C      1  0.4376330000000  0.5037660000000  0.5032060000000 1.0
C      1  0.4473300000000  0.4663870000000  0.4968050000000 1.0
C      1  0.4771470000000  0.4418490000000  0.5032120000000 1.0
C      1  0.5294460000000  0.4224950000000  0.5162800000000 1.0
C      1  0.5693780000000  0.4546000000000  0.4837310000000 1.0
C      1  0.5828140000000  0.5040550000000  0.5162650000000 1.0
C      1  0.5646140000000  0.5519530000000  0.4837180000000 1.0
C      1  0.5217370000000  0.5800140000000  0.5162590000000 1.0
C      1  0.4705540000000  0.5775050000000  0.4837200000000 1.0
C      1  0.4306220000000  0.5454000000000  0.5162690000000 1.0
C      1  0.4171860000000  0.4959450000000  0.4837350000000 1.0
C      1  0.4353860000000  0.4480470000000  0.5162820000000 1.0
C      1  0.4782630000000  0.4199860000000  0.4837410000000 1.0
END
