TITL C-8702-7969-35 -4.58549281912478e-07 125000 -371.796068744824 0 0 60 (C1) n - 1
REM
REM in /home/bkarasulu/CARBON/AIRSS/Generating-Clusters/EDIP-Nigel-Params/Higher-Symm/Box-15A/Only-C60/SD-CG/HFTN-CG
REM
REM
REM
REM
REM
REM ./C.cell (414f73aa93bd7a1190c7fd0f31ff2f98)
REM
REM compiler GCC version 9.2.1 20190827 (Red Hat 9.2.1-1)
REM options -cpp -mtune=generic -march=x86-64 -g -O0 -fpre-include=/usr/include/finclude/math-vector-fortran.h
REM seed 474159014 1185696849 1972396050 1107108111 -1829593304 1225753456 1567598062 1311570237 1576649663 -1511000285 -97011288 -1147866719 -664226873 -1558541176 1476469644 826669362 -681447889 -85748286 -580165371 -1504941439 -1134803532 -141104800 -2139734162 -45720854 2138609545 142339666 -422814040 1856013963 1853530100 1237399508 -706785666 458911872 -56789316
REM
CELL 1.54180   50.00000   50.00000   50.00000   90.00000   90.00000   90.00000
LATT -1
SFAC C  
C      1  0.5858730000000  0.4849130000000  0.5185390000000 1.0
C      1  0.4439570000000  0.4318300000000  0.5148840000000 1.0
C      1  0.4735570000000  0.5831770000000  0.5146890000000 1.0
C      1  0.4923530000000  0.4675970000000  0.4885720000000 1.0
C      1  0.4731460000000  0.5153540000000  0.4982220000000 1.0
C      1  0.5325100000000  0.5095290000000  0.4909260000000 1.0
C      1  0.5425790000000  0.4812570000000  0.4583060000000 1.0
C      1  0.4634430000000  0.4714490000000  0.4550580000000 1.0
C      1  0.4930690000000  0.5414390000000  0.4602230000000 1.0
C      1  0.4505680000000  0.4844180000000  0.5036230000000 1.0
C      1  0.5111380000000  0.5458230000000  0.5085270000000 1.0
C      1  0.5350240000000  0.4667070000000  0.5084380000000 1.0
C      1  0.5273650000000  0.5721180000000  0.4705360000000 1.0
C      1  0.5492670000000  0.4367540000000  0.4719860000000 1.0
C      1  0.4197210000000  0.4886360000000  0.4661790000000 1.0
C      1  0.4865430000000  0.5440060000000  0.4896680000000 1.0
C      1  0.5487780000000  0.4857490000000  0.4878600000000 1.0
C      1  0.4635550000000  0.4641080000000  0.4845070000000 1.0
C      1  0.5475710000000  0.5323140000000  0.4811140000000 1.0
C      1  0.5047100000000  0.4423620000000  0.4807010000000 1.0
C      1  0.4461450000000  0.5234540000000  0.4836430000000 1.0
C      1  0.4420950000000  0.5505340000000  0.4987340000000 1.0
C      1  0.5740070000000  0.5249660000000  0.4951940000000 1.0
C      1  0.4851160000000  0.4227090000000  0.4933210000000 1.0
C      1  0.5224050000000  0.5017350000000  0.4483930000000 1.0
C      1  0.4923510000000  0.4768350000000  0.4453740000000 1.0
C      1  0.4854870000000  0.5153360000000  0.4486930000000 1.0
C      1  0.5771310000000  0.4950900000000  0.4937430000000 1.0
C      1  0.4578620000000  0.4346800000000  0.4904750000000 1.0
C      1  0.4665010000000  0.5661270000000  0.4934670000000 1.0
C      1  0.4958670000000  0.4719970000000  0.5393560000000 1.0
C      1  0.4792080000000  0.5273980000000  0.5546980000000 1.0
C      1  0.5266040000000  0.5117390000000  0.5427690000000 1.0
C      1  0.4840590000000  0.4431180000000  0.5398550000000 1.0
C      1  0.4623810000000  0.5520930000000  0.5480690000000 1.0
C      1  0.5571640000000  0.5153720000000  0.5422560000000 1.0
C      1  0.4719530000000  0.4900180000000  0.5460890000000 1.0
C      1  0.5091800000000  0.5340450000000  0.5553780000000 1.0
C      1  0.5215320000000  0.4822470000000  0.5529210000000 1.0
C      1  0.4427170000000  0.4918910000000  0.4496700000000 1.0
C      1  0.5190520000000  0.5521520000000  0.4518110000000 1.0
C      1  0.5372860000000  0.4531630000000  0.4518270000000 1.0
C      1  0.5080340000000  0.5574880000000  0.5367720000000 1.0
C      1  0.5444190000000  0.4692300000000  0.5382590000000 1.0
C      1  0.4492030000000  0.4760780000000  0.5330760000000 1.0
C      1  0.5144990000000  0.5142490000000  0.5136130000000 1.0
C      1  0.5066300000000  0.4792160000000  0.5110900000000 1.0
C      1  0.4726450000000  0.5136060000000  0.5284170000000 1.0
C      1  0.4558090000000  0.5179610000000  0.4540690000000 1.0
C      1  0.5374290000000  0.5285760000000  0.4512740000000 1.0
C      1  0.5074600000000  0.4503400000000  0.4506410000000 1.0
C      1  0.4428630000000  0.5493080000000  0.5272180000000 1.0
C      1  0.5706620000000  0.5310410000000  0.5228220000000 1.0
C      1  0.4910700000000  0.4228480000000  0.5212270000000 1.0
C      1  0.5346110000000  0.5566430000000  0.4929370000000 1.0
C      1  0.5319040000000  0.4403640000000  0.4938770000000 1.0
C      1  0.4274880000000  0.4999560000000  0.4906190000000 1.0
C      1  0.5676840000000  0.4876160000000  0.5401530000000 1.0
C      1  0.4545720000000  0.4471100000000  0.5363710000000 1.0
C      1  0.4821940000000  0.5721280000000  0.5392720000000 1.0
END
