TITL C-8705-8172-8 -3.94547606146901e-06 125000 -359.30538292388 0 0 60 (C1) n - 1
REM
REM in /home/bkarasulu/CARBON/AIRSS/Generating-Clusters/EDIP-Nigel-Params/Higher-Symm/Box-15A/Only-C60/SD-CG/HFTN-CG
REM
REM
REM
REM
REM
REM ./C.cell (414f73aa93bd7a1190c7fd0f31ff2f98)
REM
REM compiler GCC version 9.2.1 20190827 (Red Hat 9.2.1-1)
REM options -cpp -mtune=generic -march=x86-64 -g -O0 -fpre-include=/usr/include/finclude/math-vector-fortran.h
REM seed 623039174 484168523 1314626949 -1056041709 1472097992 -131502560 -2144217197 254255118 -633533636 -2125713861 988773434 -1282044070 -1666143772 -768214114 -1295917703 -1270968143 -37171245 -863878174 1255481203 896596945 1469737963 -1537540349 1526188186 2068806488 -1410705700 1699213539 -190522284 173066649 1561160814 -1154121945 678411115 498621839 1730348769
REM
CELL 1.54180   50.00000   50.00000   50.00000   90.00000   90.00000   90.00000
LATT -1
SFAC C  
C      1  0.5650240000000  0.4673060000000  0.4799740000000 1.0
C      1  0.4606860000000  0.4860680000000  0.5551050000000 1.0
C      1  0.4808190000000  0.5583470000000  0.4627700000000 1.0
C      1  0.4305290000000  0.4582650000000  0.5283680000000 1.0
C      1  0.4368750000000  0.5382260000000  0.4740770000000 1.0
C      1  0.5652530000000  0.5406460000000  0.5236190000000 1.0
C      1  0.5396640000000  0.4751790000000  0.4360740000000 1.0
C      1  0.5427740000000  0.5208350000000  0.5622980000000 1.0
C      1  0.4603930000000  0.5178780000000  0.4360420000000 1.0
C      1  0.5165670000000  0.5489330000000  0.5279540000000 1.0
C      1  0.5312770000000  0.4357810000000  0.4620730000000 1.0
C      1  0.4706990000000  0.4400990000000  0.5413290000000 1.0
C      1  0.4810150000000  0.4624090000000  0.5564530000000 1.0
C      1  0.5606850000000  0.4846990000000  0.4558220000000 1.0
C      1  0.4582970000000  0.5569910000000  0.4815500000000 1.0
C      1  0.5186010000000  0.4564380000000  0.4458870000000 1.0
C      1  0.4759710000000  0.5420650000000  0.4387370000000 1.0
C      1  0.5217880000000  0.5394550000000  0.5573680000000 1.0
C      1  0.4346800000000  0.4809660000000  0.5436770000000 1.0
C      1  0.5621200000000  0.5167840000000  0.5404850000000 1.0
C      1  0.4411190000000  0.5139350000000  0.4581940000000 1.0
C      1  0.5431000000000  0.5588130000000  0.5162110000000 1.0
C      1  0.4511210000000  0.4408250000000  0.5205390000000 1.0
C      1  0.5558190000000  0.4397870000000  0.4762880000000 1.0
C      1  0.5170170000000  0.4450910000000  0.5311280000000 1.0
C      1  0.4459710000000  0.5372260000000  0.5213410000000 1.0
C      1  0.5418190000000  0.5259240000000  0.4407450000000 1.0
C      1  0.4815770000000  0.4439380000000  0.4771470000000 1.0
C      1  0.4859580000000  0.5559660000000  0.5377460000000 1.0
C      1  0.5152790000000  0.5534730000000  0.4735480000000 1.0
C      1  0.5555930000000  0.5270420000000  0.4887710000000 1.0
C      1  0.5610120000000  0.4708320000000  0.5168310000000 1.0
C      1  0.4387390000000  0.4679340000000  0.4823380000000 1.0
C      1  0.4625320000000  0.5145130000000  0.5619730000000 1.0
C      1  0.4713620000000  0.4825930000000  0.4473400000000 1.0
C      1  0.5228400000000  0.4919180000000  0.5465730000000 1.0
C      1  0.5425560000000  0.4478530000000  0.5117550000000 1.0
C      1  0.5184760000000  0.5408190000000  0.4475950000000 1.0
C      1  0.4429960000000  0.5287810000000  0.5481320000000 1.0
C      1  0.4567090000000  0.4480470000000  0.4922300000000 1.0
C      1  0.5415230000000  0.5545050000000  0.4868200000000 1.0
C      1  0.4642650000000  0.5594580000000  0.5185130000000 1.0
C      1  0.4885870000000  0.5264000000000  0.5542120000000 1.0
C      1  0.5120200000000  0.4639240000000  0.5535290000000 1.0
C      1  0.4907910000000  0.4624950000000  0.4564720000000 1.0
C      1  0.5599700000000  0.5149110000000  0.4600850000000 1.0
C      1  0.4514620000000  0.4883240000000  0.4674120000000 1.0
C      1  0.5466770000000  0.4951750000000  0.5259860000000 1.0
C      1  0.4837590000000  0.4832660000000  0.5175210000000 1.0
C      1  0.5262160000000  0.4886800000000  0.4832940000000 1.0
C      1  0.5187510000000  0.4994960000000  0.4566740000000 1.0
C      1  0.4929600000000  0.5165420000000  0.4630830000000 1.0
C      1  0.4545120000000  0.4878810000000  0.5114350000000 1.0
C      1  0.4565860000000  0.5179200000000  0.4999310000000 1.0
C      1  0.4865790000000  0.5251210000000  0.4915500000000 1.0
C      1  0.4960980000000  0.4562990000000  0.5102350000000 1.0
C      1  0.5202820000000  0.4601380000000  0.4898240000000 1.0
C      1  0.4992350000000  0.5049670000000  0.5332400000000 1.0
C      1  0.5096520000000  0.5230830000000  0.5119500000000 1.0
C      1  0.5347590000000  0.5087380000000  0.5021450000000 1.0
END
