TITL C-8703-8361-79 0.838449696258942 125000 -342.929740795964 0 0 60 (C1) n - 1
REM
REM in /home/bkarasulu/CARBON/AIRSS/Generating-Clusters/EDIP-Nigel-Params/Higher-Symm/Box-15A/Only-C60/SD-CG/HFTN-CG
REM
REM
REM
REM
REM
REM ./C.cell (414f73aa93bd7a1190c7fd0f31ff2f98)
REM
REM compiler GCC version 9.2.1 20190827 (Red Hat 9.2.1-1)
REM options -cpp -mtune=generic -march=x86-64 -g -O0 -fpre-include=/usr/include/finclude/math-vector-fortran.h
REM seed -517778783 1312987876 -2906769 724473743 149527784 -982179808 -2028841744 -1628280417 2066146165 836806751 -233027646 -64113025 2061626225 -716323386 -962420237 1314381277 1424296545 829355429 -1630778260 -212430537 1195104796 -1914231492 1886044154 -117558181 -1491866889 -22116281 -8556781 -823602247 -1504579662 1516921219 1084158390 -2073923572 -211379438
REM
CELL 1.54180   50.00000   50.00000   50.00000   90.00000   90.00000   90.00000
LATT -1
SFAC C  
C      1  0.5524350000000  0.4761350000000  0.5334590000000 1.0
C      1  0.4594830000000  0.4650320000000  0.5168340000000 1.0
C      1  0.5447910000000  0.4607360000000  0.4846230000000 1.0
C      1  0.4540010000000  0.4726590000000  0.4741670000000 1.0
C      1  0.5500190000000  0.4941390000000  0.4470310000000 1.0
C      1  0.4469200000000  0.5208280000000  0.4719680000000 1.0
C      1  0.5389340000000  0.5327620000000  0.4794990000000 1.0
C      1  0.4545940000000  0.5395980000000  0.5175850000000 1.0
C      1  0.5445660000000  0.5234420000000  0.5280640000000 1.0
C      1  0.4434630000000  0.5041120000000  0.5475940000000 1.0
C      1  0.5631210000000  0.5030530000000  0.5390960000000 1.0
C      1  0.4416170000000  0.4784160000000  0.5379160000000 1.0
C      1  0.5627420000000  0.4623300000000  0.5099290000000 1.0
C      1  0.4425100000000  0.4522250000000  0.4951750000000 1.0
C      1  0.5582520000000  0.4701530000000  0.4598100000000 1.0
C      1  0.4344770000000  0.4939130000000  0.4666390000000 1.0
C      1  0.5561270000000  0.5196100000000  0.4578870000000 1.0
C      1  0.4353230000000  0.5368750000000  0.4934950000000 1.0
C      1  0.5551090000000  0.5392880000000  0.5038340000000 1.0
C      1  0.4425690000000  0.5311970000000  0.5432820000000 1.0
C      1  0.5502580000000  0.5616800000000  0.5229170000000 1.0
C      1  0.4458070000000  0.5477160000000  0.5649410000000 1.0
C      1  0.5591680000000  0.4981580000000  0.5667380000000 1.0
C      1  0.4469210000000  0.4551060000000  0.5530090000000 1.0
C      1  0.5599540000000  0.4331370000000  0.5077970000000 1.0
C      1  0.4489190000000  0.4341290000000  0.4724910000000 1.0
C      1  0.5537740000000  0.4574180000000  0.4348610000000 1.0
C      1  0.4342310000000  0.5034340000000  0.4392110000000 1.0
C      1  0.5520430000000  0.5442880000000  0.4441890000000 1.0
C      1  0.4386840000000  0.5661750000000  0.4937980000000 1.0
C      1  0.5218940000000  0.4686830000000  0.5563920000000 1.0
C      1  0.4895050000000  0.4336000000000  0.5359750000000 1.0
C      1  0.5145770000000  0.4239480000000  0.4891030000000 1.0
C      1  0.4871700000000  0.4529070000000  0.4461570000000 1.0
C      1  0.5892080000000  0.4383510000000  0.4009900000000 1.0
C      1  0.4774080000000  0.5259380000000  0.4412710000000 1.0
C      1  0.5083850000000  0.5641590000000  0.4610940000000 1.0
C      1  0.4856070000000  0.5746910000000  0.5084210000000 1.0
C      1  0.5113880000000  0.5469610000000  0.5514880000000 1.0
C      1  0.4470560000000  0.5817690000000  0.6041800000000 1.0
C      1  0.4961040000000  0.5485940000000  0.5051570000000 1.0
C      1  0.5013060000000  0.5326440000000  0.5291790000000 1.0
C      1  0.5054140000000  0.5049790000000  0.5270200000000 1.0
C      1  0.5081350000000  0.4778590000000  0.5329820000000 1.0
C      1  0.4911600000000  0.4573050000000  0.5191260000000 1.0
C      1  0.5027040000000  0.4494280000000  0.4924480000000 1.0
C      1  0.4974790000000  0.4660030000000  0.4690690000000 1.0
C      1  0.4923170000000  0.4931060000000  0.4729830000000 1.0
C      1  0.4905910000000  0.5196320000000  0.4649860000000 1.0
C      1  0.5073640000000  0.5406190000000  0.4781810000000 1.0
C      1  0.4647720000000  0.4352050000000  0.5471360000000 1.0
C      1  0.5415820000000  0.4296720000000  0.4849770000000 1.0
C      1  0.4595620000000  0.4517260000000  0.4511510000000 1.0
C      1  0.5735450000000  0.4483430000000  0.4185780000000 1.0
C      1  0.4509770000000  0.5255490000000  0.4333610000000 1.0
C      1  0.5332490000000  0.5634060000000  0.4501630000000 1.0
C      1  0.4588370000000  0.5703470000000  0.5151060000000 1.0
C      1  0.5390770000000  0.5477180000000  0.5469150000000 1.0
C      1  0.4457400000000  0.5653880000000  0.5845900000000 1.0
C      1  0.5370720000000  0.4837270000000  0.5739860000000 1.0
END
