TITL C-8702-7969-55 3.06819979784741e-07 125000 -362.68834935594 0 0 60 (C1) n - 1
REM
REM in /home/bkarasulu/CARBON/AIRSS/Generating-Clusters/EDIP-Nigel-Params/Higher-Symm/Box-15A/Only-C60/SD-CG/HFTN-CG
REM
REM
REM
REM
REM
REM ./C.cell (414f73aa93bd7a1190c7fd0f31ff2f98)
REM
REM compiler GCC version 9.2.1 20190827 (Red Hat 9.2.1-1)
REM options -cpp -mtune=generic -march=x86-64 -g -O0 -fpre-include=/usr/include/finclude/math-vector-fortran.h
REM seed 545274085 -2068108127 549074907 831467628 334103690 1158956106 1366421129 -1499358167 -333407977 246558877 1823887873 2037713088 -1659507319 1357119939 392218945 -1918284860 -84491435 499923275 408043866 17022287 -14505116 1222856988 1375902146 219961988 578007299 -394555598 1041622091 190605579 -2132447424 -1592206065 -1725889233 -2034248060 628622889
REM
CELL 1.54180   50.00000   50.00000   50.00000   90.00000   90.00000   90.00000
LATT -1
SFAC C  
C      1  0.5207930000000  0.4264520000000  0.5102100000000 1.0
C      1  0.5653550000000  0.5047940000000  0.5037580000000 1.0
C      1  0.5297060000000  0.5657860000000  0.5091590000000 1.0
C      1  0.4390550000000  0.5478460000000  0.5086740000000 1.0
C      1  0.4532450000000  0.4593660000000  0.5005130000000 1.0
C      1  0.5194360000000  0.5203850000000  0.5176140000000 1.0
C      1  0.4906200000000  0.5271370000000  0.5136790000000 1.0
C      1  0.4713750000000  0.5034720000000  0.5087720000000 1.0
C      1  0.4993740000000  0.4704910000000  0.5157650000000 1.0
C      1  0.5279070000000  0.4776510000000  0.5120480000000 1.0
C      1  0.5194250000000  0.5765520000000  0.4630050000000 1.0
C      1  0.4227490000000  0.5500490000000  0.4624340000000 1.0
C      1  0.4376460000000  0.4534890000000  0.4558150000000 1.0
C      1  0.5305790000000  0.4194740000000  0.4625780000000 1.0
C      1  0.5818720000000  0.5005170000000  0.4584550000000 1.0
C      1  0.4944330000000  0.4556110000000  0.5407580000000 1.0
C      1  0.5411300000000  0.4788100000000  0.5398350000000 1.0
C      1  0.5316830000000  0.5320990000000  0.5418170000000 1.0
C      1  0.4803330000000  0.5404190000000  0.5390850000000 1.0
C      1  0.4580570000000  0.4943540000000  0.5354930000000 1.0
C      1  0.4829560000000  0.5707660000000  0.4517800000000 1.0
C      1  0.4207260000000  0.5122790000000  0.4546060000000 1.0
C      1  0.4746100000000  0.4440260000000  0.4502230000000 1.0
C      1  0.5595700000000  0.4441360000000  0.4559100000000 1.0
C      1  0.5544130000000  0.5265470000000  0.4510630000000 1.0
C      1  0.5230540000000  0.4896830000000  0.5625990000000 1.0
C      1  0.5173910000000  0.5190010000000  0.5645250000000 1.0
C      1  0.4880290000000  0.5226590000000  0.5623590000000 1.0
C      1  0.4762940000000  0.4959660000000  0.5598100000000 1.0
C      1  0.4972940000000  0.4755790000000  0.5627960000000 1.0
C      1  0.4492080000000  0.4652640000000  0.5296540000000 1.0
C      1  0.5190630000000  0.4372290000000  0.5377970000000 1.0
C      1  0.5649820000000  0.4980280000000  0.5333160000000 1.0
C      1  0.5229310000000  0.5607340000000  0.5359550000000 1.0
C      1  0.4495440000000  0.5397490000000  0.5348060000000 1.0
C      1  0.5758230000000  0.4853480000000  0.4824240000000 1.0
C      1  0.5327490000000  0.5592900000000  0.4817950000000 1.0
C      1  0.4438510000000  0.5567530000000  0.4810880000000 1.0
C      1  0.4339200000000  0.4700690000000  0.4794660000000 1.0
C      1  0.5111560000000  0.4291030000000  0.4819060000000 1.0
C      1  0.5418070000000  0.4563740000000  0.4982410000000 1.0
C      1  0.5363210000000  0.5095090000000  0.4954330000000 1.0
C      1  0.4879430000000  0.5458700000000  0.4923370000000 1.0
C      1  0.4496240000000  0.5142580000000  0.4928650000000 1.0
C      1  0.4806710000000  0.4696820000000  0.4926940000000 1.0
C      1  0.4268580000000  0.5348720000000  0.4396680000000 1.0
C      1  0.4568400000000  0.4607240000000  0.4370940000000 1.0
C      1  0.5394420000000  0.4331970000000  0.4402770000000 1.0
C      1  0.5622040000000  0.5028600000000  0.4389650000000 1.0
C      1  0.5076960000000  0.5673810000000  0.4396790000000 1.0
C      1  0.5438460000000  0.4500290000000  0.5457560000000 1.0
C      1  0.5598810000000  0.5241340000000  0.5435610000000 1.0
C      1  0.4954160000000  0.5653410000000  0.5416560000000 1.0
C      1  0.4376660000000  0.5144890000000  0.5413630000000 1.0
C      1  0.4666960000000  0.4460810000000  0.5414070000000 1.0
C      1  0.5559800000000  0.4646120000000  0.4755940000000 1.0
C      1  0.5370090000000  0.5311080000000  0.4735310000000 1.0
C      1  0.4713840000000  0.5540020000000  0.4717920000000 1.0
C      1  0.4384360000000  0.4984510000000  0.4723520000000 1.0
C      1  0.4919390000000  0.4500660000000  0.4723930000000 1.0
END
