TITL C-8705-8172-262 7.67924613041273e-05 125000 -360.714805924679 0 0 60 (C1) n - 1
REM
REM in /home/bkarasulu/CARBON/AIRSS/Generating-Clusters/EDIP-Nigel-Params/Higher-Symm/Box-15A/Only-C60/SD-CG/HFTN-CG
REM
REM
REM
REM
REM
REM ./C.cell (414f73aa93bd7a1190c7fd0f31ff2f98)
REM
REM compiler GCC version 9.2.1 20190827 (Red Hat 9.2.1-1)
REM options -cpp -mtune=generic -march=x86-64 -g -O0 -fpre-include=/usr/include/finclude/math-vector-fortran.h
REM seed -1263809829 -160602167 608336893 943367838 -721472312 1935927475 -599737986 1031693439 -1139059467 -453095731 -188881434 -673581072 1904148248 -1167531035 -303629374 1371209408 1983346331 1456865088 -712725104 777184085 -974026961 -674443973 984649838 37936156 899704170 -650931409 1700933785 2114114725 1493488485 -460540677 1259170958 683846983 661072875
REM
CELL 1.54180   50.00000   50.00000   50.00000   90.00000   90.00000   90.00000
LATT -1
SFAC C  
C      1  0.5742560000000  0.5181040000000  0.4990110000000 1.0
C      1  0.4352330000000  0.4521710000000  0.4915990000000 1.0
C      1  0.5510750000000  0.4684310000000  0.4826350000000 1.0
C      1  0.4317440000000  0.5164740000000  0.4923610000000 1.0
C      1  0.4657670000000  0.4798030000000  0.5522550000000 1.0
C      1  0.5248340000000  0.5291400000000  0.5568940000000 1.0
C      1  0.4657530000000  0.5295590000000  0.5611440000000 1.0
C      1  0.5248160000000  0.4812530000000  0.5497000000000 1.0
C      1  0.5102500000000  0.4577100000000  0.5541850000000 1.0
C      1  0.4833540000000  0.5507840000000  0.5674010000000 1.0
C      1  0.5103280000000  0.5513710000000  0.5659800000000 1.0
C      1  0.4826900000000  0.4557220000000  0.5486030000000 1.0
C      1  0.4485980000000  0.4831870000000  0.5282670000000 1.0
C      1  0.5465410000000  0.5337920000000  0.5372880000000 1.0
C      1  0.4495430000000  0.5338010000000  0.5363170000000 1.0
C      1  0.5453890000000  0.4820210000000  0.5285030000000 1.0
C      1  0.5144230000000  0.4463220000000  0.4240490000000 1.0
C      1  0.4860410000000  0.5510310000000  0.4555740000000 1.0
C      1  0.5241580000000  0.5566530000000  0.4571610000000 1.0
C      1  0.4765410000000  0.4449590000000  0.4311840000000 1.0
C      1  0.5318840000000  0.4634830000000  0.4384380000000 1.0
C      1  0.4698940000000  0.5273460000000  0.4582530000000 1.0
C      1  0.5444770000000  0.5364230000000  0.4617780000000 1.0
C      1  0.4645610000000  0.4569040000000  0.4540550000000 1.0
C      1  0.4146140000000  0.4704340000000  0.4881240000000 1.0
C      1  0.5835650000000  0.5031300000000  0.4763340000000 1.0
C      1  0.4128410000000  0.4970840000000  0.4872200000000 1.0
C      1  0.5763730000000  0.4762540000000  0.4734440000000 1.0
C      1  0.4742310000000  0.4425980000000  0.5241000000000 1.0
C      1  0.5268340000000  0.5488910000000  0.5005350000000 1.0
C      1  0.4757160000000  0.5477450000000  0.5034790000000 1.0
C      1  0.5238040000000  0.4408460000000  0.5116510000000 1.0
C      1  0.4740670000000  0.4802120000000  0.4659970000000 1.0
C      1  0.5429190000000  0.5121300000000  0.4463300000000 1.0
C      1  0.4836790000000  0.5062570000000  0.4738310000000 1.0
C      1  0.5248140000000  0.4913150000000  0.4393270000000 1.0
C      1  0.4578410000000  0.5575800000000  0.5231530000000 1.0
C      1  0.5439500000000  0.4599980000000  0.5091370000000 1.0
C      1  0.4550910000000  0.4605480000000  0.5109610000000 1.0
C      1  0.5421080000000  0.5578410000000  0.5229070000000 1.0
C      1  0.4443320000000  0.5288040000000  0.4703020000000 1.0
C      1  0.5484770000000  0.4530970000000  0.4592320000000 1.0
C      1  0.4458290000000  0.4418770000000  0.4680630000000 1.0
C      1  0.5673040000000  0.5386850000000  0.4795800000000 1.0
C      1  0.5057420000000  0.5546010000000  0.4365130000000 1.0
C      1  0.4920690000000  0.4567440000000  0.4114800000000 1.0
C      1  0.5005460000000  0.5895390000000  0.5101480000000 1.0
C      1  0.4978970000000  0.3994700000000  0.5137370000000 1.0
C      1  0.5245280000000  0.5183060000000  0.5005620000000 1.0
C      1  0.4776400000000  0.5172060000000  0.5033620000000 1.0
C      1  0.5004380000000  0.5631890000000  0.4959740000000 1.0
C      1  0.4975610000000  0.4288650000000  0.5105130000000 1.0
C      1  0.4922600000000  0.4091780000000  0.4889920000000 1.0
C      1  0.4987940000000  0.5905280000000  0.4831390000000 1.0
C      1  0.4499160000000  0.5110500000000  0.5160820000000 1.0
C      1  0.5500580000000  0.5107170000000  0.5167510000000 1.0
C      1  0.4808990000000  0.5037020000000  0.5619350000000 1.0
C      1  0.5022920000000  0.5102470000000  0.5182860000000 1.0
C      1  0.5146820000000  0.5062310000000  0.4726790000000 1.0
C      1  0.5080920000000  0.5060440000000  0.5475420000000 1.0
END
