TITL C-8700-8172-81 9.08787070485805e-05 125000 -357.134353943644 0 0 60 (Ci) n - 1
REM
REM in /home/bkarasulu/CARBON/AIRSS/Generating-Clusters/EDIP-Nigel-Params/Higher-Symm/Box-15A/Only-C60/SD-CG/HFTN-CG
REM
REM
REM
REM
REM
REM ./C.cell (414f73aa93bd7a1190c7fd0f31ff2f98)
REM
REM compiler GCC version 9.2.1 20190827 (Red Hat 9.2.1-1)
REM options -cpp -mtune=generic -march=x86-64 -g -O0 -fpre-include=/usr/include/finclude/math-vector-fortran.h
REM seed 1504123055 -1083863582 -1983452950 -1591594734 -1365166688 -734217819 1013998866 645989373 -799769079 -1802309344 407103969 1790176001 1388508338 120020887 1808789905 14610295 186375686 994665040 -8020176 120049093 1708326798 1443841584 256275430 -50201438 -1324454258 207577458 172466893 -828369014 1296011516 -2046336904 -159253377 1393209765 -1132528470
REM
CELL 1.54180   50.00000   50.00000   50.00000   90.00000   90.00000   90.00000
LATT -1
SFAC C  
C      1  0.4548920000000  0.5181600000000  0.4744890000000 1.0
C      1  0.5451080000000  0.4818400000000  0.5255110000000 1.0
C      1  0.5371160000000  0.5064260000000  0.5067990000000 1.0
C      1  0.4628840000000  0.4935740000000  0.4932010000000 1.0
C      1  0.5085060000000  0.5600340000000  0.4958670000000 1.0
C      1  0.4914940000000  0.4399660000000  0.5041330000000 1.0
C      1  0.4325030000000  0.4870360000000  0.5481310000000 1.0
C      1  0.5674970000000  0.5129640000000  0.4518690000000 1.0
C      1  0.5573160000000  0.4746830000000  0.4831710000000 1.0
C      1  0.4426840000000  0.5253170000000  0.5168290000000 1.0
C      1  0.4236540000000  0.5040430000000  0.5263360000000 1.0
C      1  0.5763460000000  0.4959570000000  0.4736640000000 1.0
C      1  0.5087890000000  0.4863540000000  0.5570760000000 1.0
C      1  0.4912110000000  0.5136460000000  0.4429240000000 1.0
C      1  0.5503920000000  0.5297680000000  0.5209860000000 1.0
C      1  0.4496080000000  0.4702320000000  0.4790140000000 1.0
C      1  0.4272300000000  0.4630570000000  0.4967100000000 1.0
C      1  0.5727700000000  0.5369430000000  0.5032900000000 1.0
C      1  0.4919800000000  0.4902290000000  0.4926310000000 1.0
C      1  0.5080200000000  0.5097710000000  0.5073690000000 1.0
C      1  0.4632220000000  0.4319760000000  0.5050630000000 1.0
C      1  0.5367780000000  0.5680240000000  0.4949370000000 1.0
C      1  0.5624490000000  0.4633460000000  0.5099010000000 1.0
C      1  0.4375510000000  0.5366540000000  0.4900990000000 1.0
C      1  0.4981300000000  0.5372250000000  0.5141490000000 1.0
C      1  0.5018700000000  0.4627750000000  0.4858510000000 1.0
C      1  0.5034840000000  0.5482000000000  0.5501060000000 1.0
C      1  0.4965160000000  0.4518000000000  0.4498940000000 1.0
C      1  0.4414030000000  0.4779950000000  0.4523150000000 1.0
C      1  0.5585970000000  0.5220050000000  0.5476850000000 1.0
C      1  0.5587980000000  0.5533820000000  0.4821720000000 1.0
C      1  0.4412020000000  0.4466180000000  0.5178280000000 1.0
C      1  0.5857430000000  0.5137290000000  0.4932860000000 1.0
C      1  0.4142570000000  0.4862710000000  0.5067140000000 1.0
C      1  0.4441980000000  0.5062550000000  0.4489110000000 1.0
C      1  0.5558020000000  0.4937450000000  0.5510890000000 1.0
C      1  0.4794920000000  0.5333920000000  0.4629350000000 1.0
C      1  0.5205080000000  0.4666080000000  0.5370650000000 1.0
C      1  0.5321070000000  0.4297040000000  0.5310420000000 1.0
C      1  0.4678930000000  0.5702960000000  0.4689580000000 1.0
C      1  0.5052690000000  0.4397500000000  0.5306480000000 1.0
C      1  0.4947310000000  0.5602500000000  0.4693520000000 1.0
C      1  0.4984740000000  0.4261500000000  0.4606620000000 1.0
C      1  0.5015260000000  0.5738500000000  0.5393380000000 1.0
C      1  0.5349660000000  0.5100450000000  0.4723620000000 1.0
C      1  0.4650340000000  0.4899550000000  0.5276380000000 1.0
C      1  0.4804400000000  0.5304010000000  0.5526900000000 1.0
C      1  0.5195600000000  0.4695990000000  0.4473100000000 1.0
C      1  0.4865760000000  0.5023310000000  0.5454040000000 1.0
C      1  0.5134240000000  0.4976690000000  0.4545960000000 1.0
C      1  0.5492310000000  0.5353980000000  0.4598250000000 1.0
C      1  0.4507690000000  0.4646020000000  0.5401750000000 1.0
C      1  0.5363640000000  0.4599270000000  0.4691050000000 1.0
C      1  0.4636360000000  0.5400730000000  0.5308950000000 1.0
C      1  0.5057950000000  0.5828250000000  0.5135020000000 1.0
C      1  0.4942050000000  0.4171750000000  0.4864980000000 1.0
C      1  0.4478600000000  0.5621400000000  0.4859210000000 1.0
C      1  0.5521400000000  0.4378600000000  0.5140790000000 1.0
C      1  0.4677750000000  0.4991540000000  0.4332100000000 1.0
C      1  0.5322250000000  0.5008460000000  0.5667900000000 1.0
END
