TITL C-8706-7473-19 -9.32795911669531e-06 125000 -369.690987103135 0 0 60 (C1) n - 1
REM
REM in /home/bkarasulu/CARBON/AIRSS/Generating-Clusters/EDIP-Nigel-Params/Higher-Symm/Box-15A/Only-C60/SD-CG/HFTN-CG
REM
REM
REM
REM
REM
REM ./C.cell (414f73aa93bd7a1190c7fd0f31ff2f98)
REM
REM compiler GCC version 9.2.1 20190827 (Red Hat 9.2.1-1)
REM options -cpp -mtune=generic -march=x86-64 -g -O0 -fpre-include=/usr/include/finclude/math-vector-fortran.h
REM seed -787368502 -1478939358 166688981 672548211 -497940573 2116855088 -1269452379 58737704 -1256610638 -1447652864 -1953660301 -412343226 -256331546 -246296641 605655064 55960190 -891921663 1791857326 1812263623 103448911 -2093822391 595668338 821225107 705753452 -120752256 851456695 1094551986 655493602 -954792575 544807872 93401729 485557409 1748666110
REM
CELL 1.54180   50.00000   50.00000   50.00000   90.00000   90.00000   90.00000
LATT -1
SFAC C  
C      1  0.4969890000000  0.4826020000000  0.5108040000000 1.0
C      1  0.4415990000000  0.4914340000000  0.4480110000000 1.0
C      1  0.4945030000000  0.5543980000000  0.4896910000000 1.0
C      1  0.4703210000000  0.4511800000000  0.5533070000000 1.0
C      1  0.5561340000000  0.4997400000000  0.4693350000000 1.0
C      1  0.5164740000000  0.4740980000000  0.4897550000000 1.0
C      1  0.4821910000000  0.5099480000000  0.5084550000000 1.0
C      1  0.5241500000000  0.4318340000000  0.5114780000000 1.0
C      1  0.5533320000000  0.5447750000000  0.4912910000000 1.0
C      1  0.4928690000000  0.5081100000000  0.4231790000000 1.0
C      1  0.4658120000000  0.5556790000000  0.4780010000000 1.0
C      1  0.4570870000000  0.4735640000000  0.4324000000000 1.0
C      1  0.5380720000000  0.5696940000000  0.4868270000000 1.0
C      1  0.5093770000000  0.5162430000000  0.4673020000000 1.0
C      1  0.4913540000000  0.5380370000000  0.4329260000000 1.0
C      1  0.4972040000000  0.5477680000000  0.5372380000000 1.0
C      1  0.4284030000000  0.4775090000000  0.4714940000000 1.0
C      1  0.4893370000000  0.4327750000000  0.4843790000000 1.0
C      1  0.4869620000000  0.4997020000000  0.4539960000000 1.0
C      1  0.4478020000000  0.5407780000000  0.4970150000000 1.0
C      1  0.4648670000000  0.5404650000000  0.4510060000000 1.0
C      1  0.5170170000000  0.4446430000000  0.4837760000000 1.0
C      1  0.5603040000000  0.5272890000000  0.4704890000000 1.0
C      1  0.5243590000000  0.4445610000000  0.4550650000000 1.0
C      1  0.4547200000000  0.5121620000000  0.4910000000000 1.0
C      1  0.4709040000000  0.4752090000000  0.5674200000000 1.0
C      1  0.5380850000000  0.5318100000000  0.5634010000000 1.0
C      1  0.5066430000000  0.4621300000000  0.4408280000000 1.0
C      1  0.5485970000000  0.4595120000000  0.5451700000000 1.0
C      1  0.5161090000000  0.4879340000000  0.4293920000000 1.0
C      1  0.4661480000000  0.4441230000000  0.5256400000000 1.0
C      1  0.5772650000000  0.4927800000000  0.5128050000000 1.0
C      1  0.4757010000000  0.5289470000000  0.5320860000000 1.0
C      1  0.4927860000000  0.4903390000000  0.5766950000000 1.0
C      1  0.5356700000000  0.5499380000000  0.5387130000000 1.0
C      1  0.5543960000000  0.5075870000000  0.5557870000000 1.0
C      1  0.4306560000000  0.4940700000000  0.4963330000000 1.0
C      1  0.5117640000000  0.4877870000000  0.5557950000000 1.0
C      1  0.5279030000000  0.5778620000000  0.5134190000000 1.0
C      1  0.4699880000000  0.4489110000000  0.4706330000000 1.0
C      1  0.5141550000000  0.5647380000000  0.4687750000000 1.0
C      1  0.4296260000000  0.4776890000000  0.5195850000000 1.0
C      1  0.5244040000000  0.4490320000000  0.5349220000000 1.0
C      1  0.5162000000000  0.5411950000000  0.4501960000000 1.0
C      1  0.5272760000000  0.4915450000000  0.4666140000000 1.0
C      1  0.4531840000000  0.5445490000000  0.5244360000000 1.0
C      1  0.5010780000000  0.4679090000000  0.5372310000000 1.0
C      1  0.4937300000000  0.5151340000000  0.5894830000000 1.0
C      1  0.4601020000000  0.5116060000000  0.4607690000000 1.0
C      1  0.4773660000000  0.4580510000000  0.4444900000000 1.0
C      1  0.5399980000000  0.4819550000000  0.5605500000000 1.0
C      1  0.4859980000000  0.4274220000000  0.5126280000000 1.0
C      1  0.5012600000000  0.5670990000000  0.5163980000000 1.0
C      1  0.4427750000000  0.4541740000000  0.5111450000000 1.0
C      1  0.5626770000000  0.5111320000000  0.5279140000000 1.0
C      1  0.4433150000000  0.4530100000000  0.4816210000000 1.0
C      1  0.5164820000000  0.5277090000000  0.5812200000000 1.0
C      1  0.5535160000000  0.5367200000000  0.5190100000000 1.0
C      1  0.5718250000000  0.4856610000000  0.4874400000000 1.0
C      1  0.5011750000000  0.5257460000000  0.4932370000000 1.0
END
