TITL C-8702-7969-321 4.393595142614e-06 125000 -351.499806215011 0 0 60 (C1) n - 1
REM
REM in /home/bkarasulu/CARBON/AIRSS/Generating-Clusters/EDIP-Nigel-Params/Higher-Symm/Box-15A/Only-C60/SD-CG/HFTN-CG
REM
REM
REM
REM
REM
REM ./C.cell (414f73aa93bd7a1190c7fd0f31ff2f98)
REM
REM compiler GCC version 9.2.1 20190827 (Red Hat 9.2.1-1)
REM options -cpp -mtune=generic -march=x86-64 -g -O0 -fpre-include=/usr/include/finclude/math-vector-fortran.h
REM seed -1037160421 -1455231630 99961692 -962364286 58543010 -938060855 -438045538 -1682239532 -776780253 -1153740539 719591440 -1630709609 -2066250312 517893166 -1795164667 -770501793 -292452101 -1311504362 1291471154 -2147275610 -182115975 477996518 -408239033 977617000 -1193582784 -505489898 1630909826 1267908414 -1860503757 1670120864 1394334230 197382537 868121784
REM
CELL 1.54180   50.00000   50.00000   50.00000   90.00000   90.00000   90.00000
LATT -1
SFAC C  
C      1  0.4685780000000  0.4242370000000  0.4752430000000 1.0
C      1  0.5639790000000  0.4461820000000  0.4746990000000 1.0
C      1  0.5700520000000  0.5453220000000  0.4760620000000 1.0
C      1  0.4787160000000  0.5803910000000  0.4743440000000 1.0
C      1  0.4188440000000  0.5044420000000  0.4748230000000 1.0
C      1  0.5176450000000  0.5155310000000  0.4932180000000 1.0
C      1  0.4891620000000  0.5221460000000  0.4859700000000 1.0
C      1  0.4750920000000  0.4971280000000  0.4943590000000 1.0
C      1  0.4940760000000  0.4755860000000  0.4937780000000 1.0
C      1  0.5209610000000  0.4867990000000  0.4857270000000 1.0
C      1  0.5022570000000  0.5657490000000  0.5160010000000 1.0
C      1  0.4378110000000  0.5220970000000  0.5178050000000 1.0
C      1  0.4590160000000  0.4475710000000  0.5188700000000 1.0
C      1  0.5364600000000  0.4448700000000  0.5165450000000 1.0
C      1  0.5627470000000  0.5180420000000  0.5169320000000 1.0
C      1  0.4774230000000  0.4961680000000  0.4424560000000 1.0
C      1  0.4985470000000  0.4763110000000  0.4410280000000 1.0
C      1  0.5228730000000  0.4890080000000  0.4532500000000 1.0
C      1  0.5172980000000  0.5178770000000  0.4449540000000 1.0
C      1  0.4887830000000  0.5219240000000  0.4535340000000 1.0
C      1  0.4518080000000  0.4347820000000  0.4941700000000 1.0
C      1  0.5464780000000  0.4341790000000  0.4919670000000 1.0
C      1  0.5762830000000  0.5245520000000  0.4926730000000 1.0
C      1  0.5000670000000  0.5800620000000  0.4914030000000 1.0
C      1  0.4232550000000  0.5242790000000  0.4931800000000 1.0
C      1  0.4555090000000  0.5100590000000  0.5630720000000 1.0
C      1  0.4776590000000  0.4606780000000  0.5632370000000 1.0
C      1  0.5308950000000  0.4659070000000  0.5617220000000 1.0
C      1  0.5414940000000  0.5184590000000  0.5618090000000 1.0
C      1  0.4952700000000  0.5461010000000  0.5615350000000 1.0
C      1  0.4570740000000  0.5437110000000  0.5241890000000 1.0
C      1  0.4442820000000  0.4722740000000  0.5264970000000 1.0
C      1  0.5087890000000  0.4383800000000  0.5250870000000 1.0
C      1  0.5598300000000  0.4894400000000  0.5237000000000 1.0
C      1  0.5285500000000  0.5545940000000  0.5239910000000 1.0
C      1  0.4964180000000  0.5266290000000  0.5361440000000 1.0
C      1  0.4740040000000  0.5052200000000  0.5377370000000 1.0
C      1  0.4869320000000  0.4768930000000  0.5373920000000 1.0
C      1  0.5180270000000  0.4803070000000  0.5359820000000 1.0
C      1  0.5234700000000  0.5109890000000  0.5366890000000 1.0
C      1  0.4694900000000  0.5688820000000  0.4520780000000 1.0
C      1  0.4278320000000  0.4927500000000  0.4525520000000 1.0
C      1  0.4832790000000  0.4289140000000  0.4534470000000 1.0
C      1  0.5653850000000  0.4621700000000  0.4533680000000 1.0
C      1  0.5553260000000  0.5516660000000  0.4547580000000 1.0
C      1  0.5392420000000  0.5340920000000  0.5032670000000 1.0
C      1  0.4793490000000  0.5480280000000  0.5022620000000 1.0
C      1  0.4472120000000  0.4948120000000  0.5049850000000 1.0
C      1  0.4877420000000  0.4482970000000  0.5045270000000 1.0
C      1  0.5443610000000  0.4724030000000  0.5021570000000 1.0
C      1  0.5474660000000  0.4788760000000  0.4430410000000 1.0
C      1  0.5355340000000  0.5384170000000  0.4431520000000 1.0
C      1  0.4765210000000  0.5451090000000  0.4424580000000 1.0
C      1  0.4506300000000  0.4905790000000  0.4391310000000 1.0
C      1  0.4938500000000  0.4491740000000  0.4399480000000 1.0
C      1  0.5058880000000  0.4455010000000  0.5556360000000 1.0
C      1  0.5536420000000  0.4882560000000  0.5546500000000 1.0
C      1  0.5274800000000  0.5475940000000  0.5546800000000 1.0
C      1  0.4633200000000  0.5416400000000  0.5551900000000 1.0
C      1  0.4500350000000  0.4779640000000  0.5569390000000 1.0
END
