TITL C-8701-7969-46 -4.28542970772516e-08 125000 -368.095341976156 0 0 60 (C2) n - 1
REM
REM in /home/bkarasulu/CARBON/AIRSS/Generating-Clusters/EDIP-Nigel-Params/Higher-Symm/Box-15A/Only-C60/SD-CG/HFTN-CG
REM
REM
REM
REM
REM
REM ./C.cell (414f73aa93bd7a1190c7fd0f31ff2f98)
REM
REM compiler GCC version 9.2.1 20190827 (Red Hat 9.2.1-1)
REM options -cpp -mtune=generic -march=x86-64 -g -O0 -fpre-include=/usr/include/finclude/math-vector-fortran.h
REM seed 1866404808 -511098671 -1658150974 1403969342 -1678953563 -727793881 145169637 1751457572 599531876 549739752 -1702321083 1328012151 -978823772 392323625 -1798289711 1941102789 1649769910 -438506067 1362607010 -1437464927 -413951036 1463478055 -272482336 -1223387587 -811366926 1425962944 -858565473 901458850 -295420284 1911843497 86431371 -349493299 2001144494
REM
CELL 1.54180   50.00000   50.00000   50.00000   90.00000   90.00000   90.00000
LATT -1
SFAC C  
C      1  0.4539770000000  0.4686140000000  0.4800060000000 1.0
C      1  0.5078030000000  0.5580500000000  0.4810900000000 1.0
C      1  0.5471480000000  0.4603770000000  0.4822410000000 1.0
C      1  0.4538780000000  0.5308160000000  0.5206410000000 1.0
C      1  0.5087860000000  0.4420530000000  0.5187930000000 1.0
C      1  0.5468990000000  0.5402050000000  0.5170980000000 1.0
C      1  0.5687890000000  0.4584690000000  0.4997180000000 1.0
C      1  0.4405830000000  0.4524040000000  0.4981380000000 1.0
C      1  0.4978380000000  0.5762920000000  0.5000430000000 1.0
C      1  0.5682670000000  0.5423800000000  0.4993180000000 1.0
C      1  0.4400310000000  0.5468570000000  0.5027010000000 1.0
C      1  0.4987830000000  0.4236870000000  0.4999800000000 1.0
C      1  0.5622190000000  0.5213130000000  0.4521880000000 1.0
C      1  0.4912660000000  0.4336220000000  0.4475600000000 1.0
C      1  0.4468790000000  0.5457060000000  0.4507360000000 1.0
C      1  0.5631440000000  0.4794630000000  0.5469310000000 1.0
C      1  0.4911830000000  0.5662700000000  0.5525630000000 1.0
C      1  0.4481470000000  0.4536440000000  0.5500020000000 1.0
C      1  0.5401360000000  0.4699240000000  0.5593570000000 1.0
C      1  0.4442810000000  0.4797190000000  0.5636420000000 1.0
C      1  0.5131850000000  0.5525070000000  0.5628680000000 1.0
C      1  0.5389220000000  0.5305650000000  0.4400870000000 1.0
C      1  0.4431450000000  0.5195840000000  0.4371500000000 1.0
C      1  0.5129490000000  0.4476550000000  0.4369480000000 1.0
C      1  0.4366200000000  0.4506930000000  0.5246260000000 1.0
C      1  0.4936840000000  0.5765280000000  0.5266960000000 1.0
C      1  0.5727100000000  0.4651970000000  0.5253070000000 1.0
C      1  0.4356740000000  0.5485170000000  0.4762720000000 1.0
C      1  0.4942570000000  0.4233980000000  0.4733890000000 1.0
C      1  0.5719100000000  0.5356980000000  0.4736760000000 1.0
C      1  0.4610460000000  0.5047550000000  0.5610350000000 1.0
C      1  0.5258120000000  0.5279690000000  0.5572130000000 1.0
C      1  0.5121200000000  0.4685650000000  0.5582210000000 1.0
C      1  0.4602540000000  0.4947580000000  0.4395180000000 1.0
C      1  0.5253490000000  0.4723470000000  0.4424270000000 1.0
C      1  0.5109100000000  0.5315780000000  0.4416170000000 1.0
C      1  0.5668890000000  0.5070240000000  0.5462670000000 1.0
C      1  0.4732350000000  0.4413520000000  0.5529130000000 1.0
C      1  0.4667030000000  0.5546110000000  0.5593650000000 1.0
C      1  0.5663140000000  0.4938010000000  0.4527970000000 1.0
C      1  0.4717690000000  0.5583070000000  0.4474730000000 1.0
C      1  0.4665500000000  0.4449750000000  0.4411040000000 1.0
C      1  0.5526970000000  0.4690690000000  0.4541590000000 1.0
C      1  0.4533700000000  0.4675910000000  0.4508830000000 1.0
C      1  0.4995290000000  0.5575910000000  0.4518940000000 1.0
C      1  0.5529500000000  0.5315860000000  0.5450980000000 1.0
C      1  0.4536680000000  0.5318330000000  0.5497700000000 1.0
C      1  0.5009190000000  0.4424120000000  0.5481030000000 1.0
C      1  0.5002330000000  0.5139630000000  0.4643110000000 1.0
C      1  0.5119530000000  0.4861040000000  0.4652630000000 1.0
C      1  0.4691360000000  0.5111080000000  0.4643870000000 1.0
C      1  0.5009080000000  0.4860440000000  0.5356810000000 1.0
C      1  0.5122670000000  0.5140460000000  0.5345660000000 1.0
C      1  0.4697800000000  0.4885140000000  0.5360430000000 1.0
C      1  0.4586320000000  0.5040020000000  0.5137970000000 1.0
C      1  0.5254460000000  0.5217470000000  0.5099120000000 1.0
C      1  0.5074620000000  0.4699970000000  0.5110610000000 1.0
C      1  0.4584950000000  0.4954850000000  0.4867860000000 1.0
C      1  0.5255710000000  0.4785690000000  0.4897290000000 1.0
C      1  0.5069340000000  0.5300920000000  0.4888380000000 1.0
END
