TITL C-8705-8172-4 -4.47350105933653e-05 125000 -365.91553391028 0 0 60 (C1) n - 1
REM
REM in /home/bkarasulu/CARBON/AIRSS/Generating-Clusters/EDIP-Nigel-Params/Higher-Symm/Box-15A/Only-C60/SD-CG/HFTN-CG
REM
REM
REM
REM
REM
REM ./C.cell (414f73aa93bd7a1190c7fd0f31ff2f98)
REM
REM compiler GCC version 9.2.1 20190827 (Red Hat 9.2.1-1)
REM options -cpp -mtune=generic -march=x86-64 -g -O0 -fpre-include=/usr/include/finclude/math-vector-fortran.h
REM seed -698766231 2129795323 122424004 -1871285398 -460156460 372324919 558249116 2057505889 -137944239 1635266528 -1995491366 -1335434072 -1790213996 1085469968 -2054875083 -836101032 1948945774 880314503 -1074966477 1590590597 185175051 -57198753 655400561 -367453233 1389251035 -909621186 139813270 -2100153371 394116198 -1408442755 -591402277 1476101274 1205808182
REM
CELL 1.54180   50.00000   50.00000   50.00000   90.00000   90.00000   90.00000
LATT -1
SFAC C  
C      1  0.4299040000000  0.4956110000000  0.4750880000000 1.0
C      1  0.4564570000000  0.5139270000000  0.5136010000000 1.0
C      1  0.4431630000000  0.4513640000000  0.5165250000000 1.0
C      1  0.5457370000000  0.5750070000000  0.4940250000000 1.0
C      1  0.4553900000000  0.5433890000000  0.5086500000000 1.0
C      1  0.4695790000000  0.5260560000000  0.5634520000000 1.0
C      1  0.5523150000000  0.5298970000000  0.4774370000000 1.0
C      1  0.5534210000000  0.5058880000000  0.5386560000000 1.0
C      1  0.5023750000000  0.5114100000000  0.4306530000000 1.0
C      1  0.5357690000000  0.5381050000000  0.4543150000000 1.0
C      1  0.4635420000000  0.4781480000000  0.4820060000000 1.0
C      1  0.5216320000000  0.5300140000000  0.5087650000000 1.0
C      1  0.5059290000000  0.4557030000000  0.5654020000000 1.0
C      1  0.5301000000000  0.4649270000000  0.4558090000000 1.0
C      1  0.4846740000000  0.5471510000000  0.5495340000000 1.0
C      1  0.4610470000000  0.4543830000000  0.4518440000000 1.0
C      1  0.4999660000000  0.4859790000000  0.5201050000000 1.0
C      1  0.4903880000000  0.4865080000000  0.4388370000000 1.0
C      1  0.4701790000000  0.5575880000000  0.5277360000000 1.0
C      1  0.5071020000000  0.5437840000000  0.4637380000000 1.0
C      1  0.4818630000000  0.4875050000000  0.5463600000000 1.0
C      1  0.4652210000000  0.5280820000000  0.4612270000000 1.0
C      1  0.5285620000000  0.5028100000000  0.5189800000000 1.0
C      1  0.4293420000000  0.4760110000000  0.5195390000000 1.0
C      1  0.4885700000000  0.4422160000000  0.4523240000000 1.0
C      1  0.4583750000000  0.5065930000000  0.5428390000000 1.0
C      1  0.5019760000000  0.5721950000000  0.4705110000000 1.0
C      1  0.4877160000000  0.5346360000000  0.4427690000000 1.0
C      1  0.5588880000000  0.5505050000000  0.4982850000000 1.0
C      1  0.5322150000000  0.5139640000000  0.4370460000000 1.0
C      1  0.5001370000000  0.5258100000000  0.4886380000000 1.0
C      1  0.5114290000000  0.5334010000000  0.5466760000000 1.0
C      1  0.5530020000000  0.4759810000000  0.5444120000000 1.0
C      1  0.4616550000000  0.4826790000000  0.4392700000000 1.0
C      1  0.4750130000000  0.5742400000000  0.4775290000000 1.0
C      1  0.4918770000000  0.4451050000000  0.5081760000000 1.0
C      1  0.5158020000000  0.5079500000000  0.5647000000000 1.0
C      1  0.4589690000000  0.5508640000000  0.4802590000000 1.0
C      1  0.5190210000000  0.4701760000000  0.4850180000000 1.0
C      1  0.5058380000000  0.4621460000000  0.4391180000000 1.0
C      1  0.5572620000000  0.5005280000000  0.4769050000000 1.0
C      1  0.5340690000000  0.5509510000000  0.5389610000000 1.0
C      1  0.5419730000000  0.4851320000000  0.4984190000000 1.0
C      1  0.5012910000000  0.4347750000000  0.4800730000000 1.0
C      1  0.4468050000000  0.5059240000000  0.4532830000000 1.0
C      1  0.5410060000000  0.4405530000000  0.5092800000000 1.0
C      1  0.4815520000000  0.5012250000000  0.4990070000000 1.0
C      1  0.4320870000000  0.4995080000000  0.5038830000000 1.0
C      1  0.5328970000000  0.4350080000000  0.4805060000000 1.0
C      1  0.5150000000000  0.4340430000000  0.5495910000000 1.0
C      1  0.5165180000000  0.4495430000000  0.5242740000000 1.0
C      1  0.5571170000000  0.4647810000000  0.5154400000000 1.0
C      1  0.5221880000000  0.5842670000000  0.4850180000000 1.0
C      1  0.5462610000000  0.4904870000000  0.4508660000000 1.0
C      1  0.5237540000000  0.4792650000000  0.5564050000000 1.0
C      1  0.5583730000000  0.5419180000000  0.5264230000000 1.0
C      1  0.4895860000000  0.5087290000000  0.5770370000000 1.0
C      1  0.4697170000000  0.4452220000000  0.5295000000000 1.0
C      1  0.4761550000000  0.4595710000000  0.5560180000000 1.0
C      1  0.4522470000000  0.4508600000000  0.4892560000000 1.0
END
