TITL C-8701-7969-25 2.61146347353465e-07 125000 -368.471554617031 0 0 60 (C1) n - 1
REM
REM in /home/bkarasulu/CARBON/AIRSS/Generating-Clusters/EDIP-Nigel-Params/Higher-Symm/Box-15A/Only-C60/SD-CG/HFTN-CG
REM
REM
REM
REM
REM
REM ./C.cell (414f73aa93bd7a1190c7fd0f31ff2f98)
REM
REM compiler GCC version 9.2.1 20190827 (Red Hat 9.2.1-1)
REM options -cpp -mtune=generic -march=x86-64 -g -O0 -fpre-include=/usr/include/finclude/math-vector-fortran.h
REM seed 2144936343 -1608805839 180296748 1897332236 1886929871 -430993845 1200144536 -2073868998 -902356992 1930357120 -2077968588 -427920295 621611842 -617614571 1554650966 2061842092 1702407545 1412725462 1896287365 -1968145181 -1243384381 -1938640524 -218201794 -969228398 402746826 389421542 1294963341 854402831 646169466 -787119864 -2008022130 -1094260600 1834939372
REM
CELL 1.54180   50.00000   50.00000   50.00000   90.00000   90.00000   90.00000
LATT -1
SFAC C  
C      1  0.4444490000000  0.5114140000000  0.4589020000000 1.0
C      1  0.5645150000000  0.5133360000000  0.4753850000000 1.0
C      1  0.4912070000000  0.5112360000000  0.5707260000000 1.0
C      1  0.5571630000000  0.4873640000000  0.4578110000000 1.0
C      1  0.4343450000000  0.4862600000000  0.4751420000000 1.0
C      1  0.5109140000000  0.4858490000000  0.5696700000000 1.0
C      1  0.5623500000000  0.5055450000000  0.5036220000000 1.0
C      1  0.4658750000000  0.5038370000000  0.5571750000000 1.0
C      1  0.4676700000000  0.5030350000000  0.4431170000000 1.0
C      1  0.4341150000000  0.4950920000000  0.5035280000000 1.0
C      1  0.5348440000000  0.4945940000000  0.5540920000000 1.0
C      1  0.5350250000000  0.4956870000000  0.4404320000000 1.0
C      1  0.5322890000000  0.5589460000000  0.5092800000000 1.0
C      1  0.4733110000000  0.5614850000000  0.5243560000000 1.0
C      1  0.4943770000000  0.5621150000000  0.4626260000000 1.0
C      1  0.4648930000000  0.4421540000000  0.5093810000000 1.0
C      1  0.5237100000000  0.4418270000000  0.5248910000000 1.0
C      1  0.5103700000000  0.4421550000000  0.4656860000000 1.0
C      1  0.5625760000000  0.4561040000000  0.4969240000000 1.0
C      1  0.4718470000000  0.4548180000000  0.5576110000000 1.0
C      1  0.4643630000000  0.4539980000000  0.4481950000000 1.0
C      1  0.4348550000000  0.5439970000000  0.4966520000000 1.0
C      1  0.5300080000000  0.5434450000000  0.5578690000000 1.0
C      1  0.5387190000000  0.5451000000000  0.4448480000000 1.0
C      1  0.5375710000000  0.5602480000000  0.5367160000000 1.0
C      1  0.4470150000000  0.5612110000000  0.5150080000000 1.0
C      1  0.5159690000000  0.5616440000000  0.4446970000000 1.0
C      1  0.4621230000000  0.4386970000000  0.5369200000000 1.0
C      1  0.5492670000000  0.4388000000000  0.5143070000000 1.0
C      1  0.4873840000000  0.4380180000000  0.4503960000000 1.0
C      1  0.4500270000000  0.5376190000000  0.4727710000000 1.0
C      1  0.5509590000000  0.5398420000000  0.4706330000000 1.0
C      1  0.5014810000000  0.5379790000000  0.5603680000000 1.0
C      1  0.5501330000000  0.4612890000000  0.4712810000000 1.0
C      1  0.4484070000000  0.4594320000000  0.4720280000000 1.0
C      1  0.5004400000000  0.4599830000000  0.5579560000000 1.0
C      1  0.4230470000000  0.5208850000000  0.5069550000000 1.0
C      1  0.5379730000000  0.5216710000000  0.4296580000000 1.0
C      1  0.5445870000000  0.5199990000000  0.5617150000000 1.0
C      1  0.5725920000000  0.4796210000000  0.5080970000000 1.0
C      1  0.4667600000000  0.4768890000000  0.4326900000000 1.0
C      1  0.4572200000000  0.4777700000000  0.5633050000000 1.0
C      1  0.5160640000000  0.5349350000000  0.5027950000000 1.0
C      1  0.4877380000000  0.5351190000000  0.5188410000000 1.0
C      1  0.4938280000000  0.5356660000000  0.4771860000000 1.0
C      1  0.4794950000000  0.4670090000000  0.5026330000000 1.0
C      1  0.5107520000000  0.4667180000000  0.5151830000000 1.0
C      1  0.5071390000000  0.4675510000000  0.4796450000000 1.0
C      1  0.4440330000000  0.4389660000000  0.4911930000000 1.0
C      1  0.5368760000000  0.4405650000000  0.4569940000000 1.0
C      1  0.5185160000000  0.4389850000000  0.5520880000000 1.0
C      1  0.5525050000000  0.5601640000000  0.4901750000000 1.0
C      1  0.4657200000000  0.5580220000000  0.4594700000000 1.0
C      1  0.4825820000000  0.5579010000000  0.5513610000000 1.0
C      1  0.5216300000000  0.4924600000000  0.5270960000000 1.0
C      1  0.4635920000000  0.4926080000000  0.5080320000000 1.0
C      1  0.5130890000000  0.4922260000000  0.4604890000000 1.0
C      1  0.4748450000000  0.5091450000000  0.5291430000000 1.0
C      1  0.5327980000000  0.5091730000000  0.5064290000000 1.0
C      1  0.4920530000000  0.5117980000000  0.4578230000000 1.0
END
