TITL C-8700-8172-208 1.33869675432523e-06 125000 -378.227314574831 0 0 60 (C4) n - 1
REM
REM in /home/bkarasulu/CARBON/AIRSS/Generating-Clusters/EDIP-Nigel-Params/Higher-Symm/Box-15A/Only-C60/SD-CG/HFTN-CG
REM
REM
REM
REM
REM
REM ./C.cell (414f73aa93bd7a1190c7fd0f31ff2f98)
REM
REM compiler GCC version 9.2.1 20190827 (Red Hat 9.2.1-1)
REM options -cpp -mtune=generic -march=x86-64 -g -O0 -fpre-include=/usr/include/finclude/math-vector-fortran.h
REM seed 899945743 1447966801 1462946688 -815492875 572698008 -434880120 48651678 -2118259342 445013843 1724528832 68773198 -1522263618 -94104034 -2058214198 -1644046602 -1780853825 314828636 1383943773 -1223198239 -1014188022 -1843616669 244590403 635706588 1065560488 1731199479 555609610 840922257 -1484947252 -816996671 1092366062 1455328372 685843419 -1833203598
REM
CELL 1.54180   50.00000   50.00000   50.00000   90.00000   90.00000   90.00000
LATT -1
SFAC C  
C      1  0.4622510000000  0.4816810000000  0.5604160000000 1.0
C      1  0.4493640000000  0.5013600000000  0.5449970000000 1.0
C      1  0.4578490000000  0.5290350000000  0.5445880000000 1.0
C      1  0.4798250000000  0.5386960000000  0.5592140000000 1.0
C      1  0.4999690000000  0.5513470000000  0.5442040000000 1.0
C      1  0.5276450000000  0.5428720000000  0.5447850000000 1.0
C      1  0.5368510000000  0.5211360000000  0.5600490000000 1.0
C      1  0.5499590000000  0.5007630000000  0.5457600000000 1.0
C      1  0.5414720000000  0.4730950000000  0.5465200000000 1.0
C      1  0.5192770000000  0.4641220000000  0.5612520000000 1.0
C      1  0.4993540000000  0.4507760000000  0.5465520000000 1.0
C      1  0.4716760000000  0.4592590000000  0.5463230000000 1.0
C      1  0.4504370000000  0.4308140000000  0.4797040000000 1.0
C      1  0.4230280000000  0.4716530000000  0.4685680000000 1.0
C      1  0.4207060000000  0.5004140000000  0.4722320000000 1.0
C      1  0.4314700000000  0.5491950000000  0.4767940000000 1.0
C      1  0.4726310000000  0.5764460000000  0.4664860000000 1.0
C      1  0.5012660000000  0.5788420000000  0.4709980000000 1.0
C      1  0.5498840000000  0.5681790000000  0.4772320000000 1.0
C      1  0.5774420000000  0.5268730000000  0.4684270000000 1.0
C      1  0.5796990000000  0.4983160000000  0.4734650000000 1.0
C      1  0.5688510000000  0.4497970000000  0.4801420000000 1.0
C      1  0.5278380000000  0.4220800000000  0.4705080000000 1.0
C      1  0.4991390000000  0.4198880000000  0.4746990000000 1.0
C      1  0.5803440000000  0.5418380000000  0.4922300000000 1.0
C      1  0.5756070000000  0.4906400000000  0.5022630000000 1.0
C      1  0.5700420000000  0.4626350000000  0.5052170000000 1.0
C      1  0.5420630000000  0.4195650000000  0.4948050000000 1.0
C      1  0.4905790000000  0.4244330000000  0.5031770000000 1.0
C      1  0.4624950000000  0.4300300000000  0.5051780000000 1.0
C      1  0.4197660000000  0.4578160000000  0.4929990000000 1.0
C      1  0.4243710000000  0.5094300000000  0.5006960000000 1.0
C      1  0.4299010000000  0.5375440000000  0.5024210000000 1.0
C      1  0.4580470000000  0.5800890000000  0.4904240000000 1.0
C      1  0.5093990000000  0.5756360000000  0.4997810000000 1.0
C      1  0.5374480000000  0.5701490000000  0.5024600000000 1.0
C      1  0.4470120000000  0.5375730000000  0.4562480000000 1.0
C      1  0.4725650000000  0.5505590000000  0.4528050000000 1.0
C      1  0.5104700000000  0.5570830000000  0.4535470000000 1.0
C      1  0.5389010000000  0.5523050000000  0.4565880000000 1.0
C      1  0.5519880000000  0.5267070000000  0.4539550000000 1.0
C      1  0.5584880000000  0.4888220000000  0.4555020000000 1.0
C      1  0.5536210000000  0.4604420000000  0.4588470000000 1.0
C      1  0.5281170000000  0.4473000000000  0.4556340000000 1.0
C      1  0.4902030000000  0.4408040000000  0.4561160000000 1.0
C      1  0.4617320000000  0.4457090000000  0.4585070000000 1.0
C      1  0.4486940000000  0.4711510000000  0.4544850000000 1.0
C      1  0.4421850000000  0.5090650000000  0.4541620000000 1.0
C      1  0.4495350000000  0.5451430000000  0.5220150000000 1.0
C      1  0.4633290000000  0.5695370000000  0.5159260000000 1.0
C      1  0.4914710000000  0.5676820000000  0.5216290000000 1.0
C      1  0.5444400000000  0.5508340000000  0.5225890000000 1.0
C      1  0.5690110000000  0.5369580000000  0.5174760000000 1.0
C      1  0.5669830000000  0.5089100000000  0.5235660000000 1.0
C      1  0.5501160000000  0.4559530000000  0.5248500000000 1.0
C      1  0.5364060000000  0.4312960000000  0.5197040000000 1.0
C      1  0.5081830000000  0.4334060000000  0.5248930000000 1.0
C      1  0.4552110000000  0.4502620000000  0.5242760000000 1.0
C      1  0.4307230000000  0.4638750000000  0.5181550000000 1.0
C      1  0.4326710000000  0.4921780000000  0.5229560000000 1.0
END
