TITL C-8706-7473-48 5.06639797595481e-06 125000 -359.738358917105 0 0 60 (C1) n - 1
REM
REM in /home/bkarasulu/CARBON/AIRSS/Generating-Clusters/EDIP-Nigel-Params/Higher-Symm/Box-15A/Only-C60/SD-CG/HFTN-CG
REM
REM
REM
REM
REM
REM ./C.cell (414f73aa93bd7a1190c7fd0f31ff2f98)
REM
REM compiler GCC version 9.2.1 20190827 (Red Hat 9.2.1-1)
REM options -cpp -mtune=generic -march=x86-64 -g -O0 -fpre-include=/usr/include/finclude/math-vector-fortran.h
REM seed 353246390 -2066166750 -1612073350 -1547120333 -944697510 114520053 2114809013 1459993551 -913204274 878946282 2061016803 650699375 2032316458 1937262428 -1093216673 547354302 105094965 -884638296 739090099 -1823644606 967372855 2078301444 -1661813010 -1070710106 841457493 -462806717 -320438708 -1919506473 1931760677 1653146114 -1726958009 557697537 1192237748
REM
CELL 1.54180   50.00000   50.00000   50.00000   90.00000   90.00000   90.00000
LATT -1
SFAC C  
C      1  0.5355010000000  0.4377580000000  0.4879390000000 1.0
C      1  0.4642880000000  0.5642080000000  0.4885240000000 1.0
C      1  0.4643200000000  0.4375330000000  0.5124590000000 1.0
C      1  0.5367510000000  0.5624930000000  0.5105520000000 1.0
C      1  0.4895120000000  0.4213040000000  0.5144120000000 1.0
C      1  0.5120870000000  0.5782990000000  0.5141200000000 1.0
C      1  0.5099720000000  0.4221950000000  0.4844310000000 1.0
C      1  0.4897590000000  0.5789840000000  0.4846670000000 1.0
C      1  0.5413790000000  0.5213740000000  0.4501130000000 1.0
C      1  0.4682710000000  0.4739620000000  0.4486120000000 1.0
C      1  0.4576310000000  0.5234280000000  0.5492320000000 1.0
C      1  0.5299850000000  0.4736440000000  0.5529380000000 1.0
C      1  0.4279730000000  0.5145910000000  0.5000810000000 1.0
C      1  0.5723100000000  0.4832660000000  0.4922590000000 1.0
C      1  0.5718880000000  0.5135160000000  0.4992920000000 1.0
C      1  0.4295200000000  0.4843800000000  0.5082180000000 1.0
C      1  0.4619810000000  0.4944450000000  0.4795610000000 1.0
C      1  0.5296840000000  0.5023650000000  0.4937200000000 1.0
C      1  0.5415850000000  0.4921160000000  0.5239030000000 1.0
C      1  0.4692730000000  0.5046600000000  0.5098740000000 1.0
C      1  0.4718730000000  0.4629110000000  0.5270290000000 1.0
C      1  0.5319140000000  0.5367910000000  0.5247540000000 1.0
C      1  0.5289020000000  0.4630250000000  0.4735100000000 1.0
C      1  0.4692640000000  0.5382420000000  0.4745710000000 1.0
C      1  0.4853060000000  0.4828360000000  0.5677690000000 1.0
C      1  0.5055700000000  0.5223180000000  0.5637300000000 1.0
C      1  0.5116840000000  0.4816130000000  0.4319750000000 1.0
C      1  0.4925280000000  0.5217940000000  0.4342120000000 1.0
C      1  0.4433370000000  0.5307440000000  0.5226520000000 1.0
C      1  0.5613900000000  0.4698990000000  0.5169480000000 1.0
C      1  0.5553630000000  0.5284510000000  0.4769280000000 1.0
C      1  0.4408480000000  0.4711090000000  0.4833770000000 1.0
C      1  0.5139890000000  0.4863110000000  0.5731060000000 1.0
C      1  0.4821180000000  0.5083320000000  0.5520760000000 1.0
C      1  0.4829010000000  0.4853390000000  0.4272530000000 1.0
C      1  0.5162930000000  0.5081140000000  0.4449630000000 1.0
C      1  0.4792530000000  0.4565110000000  0.5551200000000 1.0
C      1  0.5210690000000  0.5450440000000  0.5522580000000 1.0
C      1  0.5197110000000  0.4550900000000  0.4459740000000 1.0
C      1  0.4789880000000  0.5455830000000  0.4461540000000 1.0
C      1  0.4527770000000  0.4859070000000  0.5271580000000 1.0
C      1  0.5563080000000  0.5177800000000  0.5255060000000 1.0
C      1  0.5495640000000  0.4850670000000  0.4733150000000 1.0
C      1  0.4454290000000  0.5185520000000  0.4749100000000 1.0
C      1  0.5167390000000  0.5449790000000  0.4690520000000 1.0
C      1  0.4814170000000  0.4560750000000  0.4690330000000 1.0
C      1  0.4824400000000  0.5469070000000  0.5310860000000 1.0
C      1  0.5184870000000  0.4547560000000  0.5313220000000 1.0
C      1  0.4571950000000  0.4454120000000  0.4849910000000 1.0
C      1  0.5424420000000  0.5557690000000  0.4831710000000 1.0
C      1  0.5429960000000  0.4455670000000  0.5152490000000 1.0
C      1  0.4574790000000  0.5580200000000  0.5159980000000 1.0
C      1  0.4974140000000  0.5264910000000  0.4852580000000 1.0
C      1  0.5019980000000  0.4766560000000  0.4864810000000 1.0
C      1  0.5005660000000  0.5257480000000  0.5158610000000 1.0
C      1  0.4984710000000  0.4717230000000  0.5156500000000 1.0
C      1  0.5021310000000  0.4310310000000  0.5398300000000 1.0
C      1  0.5021190000000  0.5678010000000  0.5406200000000 1.0
C      1  0.4987360000000  0.4338270000000  0.4581040000000 1.0
C      1  0.4993220000000  0.5673560000000  0.4581400000000 1.0
END
