TITL C-8700-8172-286 -5.09098508210438e-06 125000 -362.665898744714 0 0 60 (C1) n - 1
REM
REM in /home/bkarasulu/CARBON/AIRSS/Generating-Clusters/EDIP-Nigel-Params/Higher-Symm/Box-15A/Only-C60/SD-CG/HFTN-CG
REM
REM
REM
REM
REM
REM ./C.cell (414f73aa93bd7a1190c7fd0f31ff2f98)
REM
REM compiler GCC version 9.2.1 20190827 (Red Hat 9.2.1-1)
REM options -cpp -mtune=generic -march=x86-64 -g -O0 -fpre-include=/usr/include/finclude/math-vector-fortran.h
REM seed -867417409 -878961252 880549026 1362465284 801927095 -1870229745 -1720117215 104170909 -818313380 1385382530 -1652068201 -1138424943 -1838219141 1009070915 -398976111 -1084871582 -1967237594 1244913583 -1929835594 -111563872 -511144874 -173660180 1310087511 -2007053599 -749011447 -1931162458 -1307213459 -990227846 -658926161 414251414 -1624266805 1717764779 1711696463
REM
CELL 1.54180   50.00000   50.00000   50.00000   90.00000   90.00000   90.00000
LATT -1
SFAC C  
C      1  0.4423610000000  0.5108890000000  0.5033690000000 1.0
C      1  0.5403000000000  0.5543850000000  0.4995500000000 1.0
C      1  0.5194020000000  0.4376250000000  0.5107100000000 1.0
C      1  0.4560220000000  0.5525990000000  0.5176180000000 1.0
C      1  0.5678140000000  0.5069980000000  0.5178670000000 1.0
C      1  0.4824000000000  0.4368670000000  0.5196810000000 1.0
C      1  0.4944780000000  0.5604640000000  0.4820010000000 1.0
C      1  0.5495250000000  0.4751000000000  0.4903920000000 1.0
C      1  0.4568380000000  0.4659640000000  0.4854640000000 1.0
C      1  0.5007740000000  0.4332470000000  0.4584000000000 1.0
C      1  0.4408910000000  0.5293030000000  0.4689750000000 1.0
C      1  0.5522200000000  0.5374330000000  0.4670620000000 1.0
C      1  0.5490720000000  0.5140680000000  0.4493650000000 1.0
C      1  0.4880670000000  0.4549130000000  0.4450900000000 1.0
C      1  0.4608210000000  0.5362350000000  0.4482080000000 1.0
C      1  0.5176820000000  0.5134000000000  0.4795390000000 1.0
C      1  0.5043510000000  0.4834960000000  0.4747870000000 1.0
C      1  0.4867800000000  0.5175430000000  0.4772530000000 1.0
C      1  0.5518660000000  0.5111190000000  0.5415070000000 1.0
C      1  0.4865180000000  0.4464980000000  0.5472010000000 1.0
C      1  0.4624060000000  0.5401590000000  0.5438350000000 1.0
C      1  0.4840140000000  0.4845260000000  0.5249630000000 1.0
C      1  0.4966260000000  0.5167260000000  0.5292030000000 1.0
C      1  0.5155930000000  0.4889390000000  0.5294180000000 1.0
C      1  0.4726500000000  0.5101210000000  0.4428400000000 1.0
C      1  0.5211680000000  0.5182760000000  0.4416640000000 1.0
C      1  0.5063870000000  0.4767490000000  0.4380600000000 1.0
C      1  0.4413640000000  0.4963080000000  0.5297380000000 1.0
C      1  0.5256000000000  0.5495300000000  0.5237230000000 1.0
C      1  0.5324380000000  0.4483710000000  0.5340270000000 1.0
C      1  0.5579910000000  0.4649600000000  0.5372310000000 1.0
C      1  0.4450680000000  0.4654660000000  0.5336350000000 1.0
C      1  0.5005220000000  0.5635470000000  0.5296800000000 1.0
C      1  0.5115550000000  0.5462430000000  0.4397270000000 1.0
C      1  0.5332010000000  0.4669470000000  0.4455860000000 1.0
C      1  0.4525420000000  0.4891260000000  0.4429890000000 1.0
C      1  0.4807350000000  0.5644800000000  0.5078180000000 1.0
C      1  0.5709760000000  0.4780440000000  0.5124310000000 1.0
C      1  0.4553900000000  0.4469110000000  0.5105710000000 1.0
C      1  0.5142430000000  0.4537260000000  0.5557540000000 1.0
C      1  0.4575760000000  0.5106230000000  0.5487260000000 1.0
C      1  0.5333450000000  0.5335810000000  0.5463900000000 1.0
C      1  0.5087940000000  0.5312540000000  0.5623320000000 1.0
C      1  0.5223800000000  0.4798210000000  0.5658150000000 1.0
C      1  0.4729370000000  0.4906540000000  0.5622720000000 1.0
C      1  0.5527010000000  0.4853610000000  0.4596740000000 1.0
C      1  0.4608140000000  0.4622840000000  0.4543510000000 1.0
C      1  0.4849330000000  0.5548380000000  0.4541840000000 1.0
C      1  0.5228940000000  0.5677850000000  0.4808840000000 1.0
C      1  0.5353760000000  0.4483850000000  0.4895090000000 1.0
C      1  0.4351520000000  0.4867660000000  0.4867720000000 1.0
C      1  0.4328790000000  0.5017570000000  0.4616240000000 1.0
C      1  0.5342910000000  0.5582920000000  0.4558020000000 1.0
C      1  0.5271390000000  0.4430920000000  0.4623350000000 1.0
C      1  0.4885570000000  0.5513990000000  0.5544100000000 1.0
C      1  0.5495460000000  0.4863650000000  0.5570990000000 1.0
C      1  0.4641580000000  0.4634210000000  0.5572530000000 1.0
C      1  0.4819510000000  0.4784060000000  0.4948740000000 1.0
C      1  0.4734290000000  0.5209030000000  0.5047320000000 1.0
C      1  0.5324970000000  0.4977080000000  0.5040290000000 1.0
END
