TITL C-8706-7473-136 -3.43148937021421e-06 125000 -364.880768084225 0 0 60 (C1) n - 1
REM
REM in /home/bkarasulu/CARBON/AIRSS/Generating-Clusters/EDIP-Nigel-Params/Higher-Symm/Box-15A/Only-C60/SD-CG/HFTN-CG
REM
REM
REM
REM
REM
REM ./C.cell (414f73aa93bd7a1190c7fd0f31ff2f98)
REM
REM compiler GCC version 9.2.1 20190827 (Red Hat 9.2.1-1)
REM options -cpp -mtune=generic -march=x86-64 -g -O0 -fpre-include=/usr/include/finclude/math-vector-fortran.h
REM seed 1725162662 951649137 273752240 -130629851 896536689 630257077 -205858761 208311248 -1532807707 1554514846 -263600899 33442553 1871887954 -743129915 -1675652715 -1487037740 -381617966 -1533009305 -1673684499 255201231 -1182404509 -2092188236 1251658523 -948155363 1207976008 -186730960 -257326016 -1168486791 296867108 -620297417 -948730965 -1375050594 -637773326
REM
CELL 1.54180   50.00000   50.00000   50.00000   90.00000   90.00000   90.00000
LATT -1
SFAC C  
C      1  0.4712610000000  0.5156760000000  0.5400320000000 1.0
C      1  0.5404750000000  0.5325660000000  0.5319100000000 1.0
C      1  0.4449230000000  0.4735670000000  0.5273040000000 1.0
C      1  0.5384690000000  0.5424650000000  0.5028650000000 1.0
C      1  0.4185230000000  0.5170510000000  0.5210770000000 1.0
C      1  0.5226960000000  0.4932610000000  0.4991420000000 1.0
C      1  0.4733880000000  0.5034540000000  0.4911190000000 1.0
C      1  0.4992890000000  0.4840820000000  0.4525100000000 1.0
C      1  0.5287690000000  0.5275350000000  0.4602590000000 1.0
C      1  0.5631680000000  0.5341650000000  0.4875340000000 1.0
C      1  0.4635740000000  0.4571360000000  0.4375910000000 1.0
C      1  0.5198890000000  0.5228200000000  0.4888160000000 1.0
C      1  0.5269130000000  0.4872280000000  0.4436860000000 1.0
C      1  0.4765080000000  0.4956640000000  0.5600350000000 1.0
C      1  0.5368850000000  0.4411920000000  0.5374490000000 1.0
C      1  0.4510650000000  0.5530540000000  0.5273600000000 1.0
C      1  0.5689300000000  0.5076640000000  0.5005270000000 1.0
C      1  0.5510580000000  0.4839690000000  0.4896850000000 1.0
C      1  0.5240370000000  0.5455340000000  0.5550380000000 1.0
C      1  0.4884900000000  0.4518640000000  0.5381680000000 1.0
C      1  0.5038550000000  0.4997540000000  0.5713830000000 1.0
C      1  0.5090500000000  0.5485220000000  0.4538490000000 1.0
C      1  0.4954960000000  0.4823810000000  0.4840340000000 1.0
C      1  0.4217210000000  0.4912840000000  0.5314600000000 1.0
C      1  0.5566300000000  0.5337010000000  0.4599270000000 1.0
C      1  0.4737950000000  0.5596940000000  0.5411230000000 1.0
C      1  0.4576590000000  0.5010580000000  0.5184080000000 1.0
C      1  0.5605840000000  0.4589310000000  0.5036610000000 1.0
C      1  0.4344970000000  0.5376610000000  0.5101290000000 1.0
C      1  0.5199000000000  0.4995120000000  0.5301700000000 1.0
C      1  0.4814760000000  0.5362790000000  0.4497390000000 1.0
C      1  0.5443780000000  0.4366190000000  0.4940700000000 1.0
C      1  0.4722610000000  0.5012600000000  0.4140690000000 1.0
C      1  0.4927050000000  0.4567050000000  0.4413170000000 1.0
C      1  0.5620530000000  0.5107890000000  0.5301040000000 1.0
C      1  0.5430900000000  0.4727800000000  0.4615970000000 1.0
C      1  0.5600230000000  0.4592660000000  0.5329790000000 1.0
C      1  0.4667600000000  0.4691210000000  0.5478960000000 1.0
C      1  0.5296580000000  0.5691430000000  0.4958060000000 1.0
C      1  0.4639330000000  0.5502960000000  0.4699370000000 1.0
C      1  0.5019160000000  0.5603630000000  0.5427350000000 1.0
C      1  0.4967970000000  0.5247890000000  0.5284940000000 1.0
C      1  0.5021350000000  0.4400130000000  0.4642600000000 1.0
C      1  0.5535330000000  0.4859970000000  0.5444130000000 1.0
C      1  0.4849350000000  0.4415740000000  0.5124310000000 1.0
C      1  0.4832220000000  0.5580530000000  0.4906430000000 1.0
C      1  0.4565250000000  0.4556210000000  0.4751340000000 1.0
C      1  0.4842820000000  0.4533520000000  0.4859380000000 1.0
C      1  0.5140850000000  0.5259910000000  0.5726880000000 1.0
C      1  0.4473040000000  0.4803830000000  0.4640310000000 1.0
C      1  0.4914250000000  0.5287810000000  0.4982230000000 1.0
C      1  0.4418820000000  0.5078020000000  0.4684290000000 1.0
C      1  0.5316980000000  0.4457360000000  0.4688600000000 1.0
C      1  0.5221820000000  0.4784290000000  0.5659100000000 1.0
C      1  0.4557640000000  0.4802370000000  0.4206680000000 1.0
C      1  0.5316400000000  0.4232330000000  0.5156000000000 1.0
C      1  0.4427710000000  0.5335620000000  0.4817280000000 1.0
C      1  0.5077310000000  0.5681600000000  0.4776130000000 1.0
C      1  0.4770510000000  0.5046070000000  0.4423440000000 1.0
C      1  0.5152920000000  0.4586160000000  0.5460920000000 1.0
END
