TITL C-8702-7969-154 2.42735361990593e-05 125000 -366.515201299956 0 0 60 (C1) n - 1
REM
REM in /home/bkarasulu/CARBON/AIRSS/Generating-Clusters/EDIP-Nigel-Params/Higher-Symm/Box-15A/Only-C60/SD-CG/HFTN-CG
REM
REM
REM
REM
REM
REM ./C.cell (414f73aa93bd7a1190c7fd0f31ff2f98)
REM
REM compiler GCC version 9.2.1 20190827 (Red Hat 9.2.1-1)
REM options -cpp -mtune=generic -march=x86-64 -g -O0 -fpre-include=/usr/include/finclude/math-vector-fortran.h
REM seed 1622054412 12051459 627489275 -516041252 -266398247 725241622 1917557352 -288975348 -851082127 63889907 -1153317297 183732412 1684316766 1492966167 -296716719 1008882533 887007786 439093135 1468443861 -890587130 209243934 1481018978 1040706115 1396288244 1847476747 35494182 476850036 159101856 -1817715471 1727715689 -955693201 1853756871 -876227855
REM
CELL 1.54180   50.00000   50.00000   50.00000   90.00000   90.00000   90.00000
LATT -1
SFAC C  
C      1  0.5196300000000  0.4628340000000  0.4342630000000 1.0
C      1  0.5412700000000  0.5193450000000  0.4336120000000 1.0
C      1  0.4822830000000  0.5363930000000  0.4356260000000 1.0
C      1  0.4592850000000  0.4809240000000  0.4343780000000 1.0
C      1  0.5201810000000  0.5386230000000  0.4334800000000 1.0
C      1  0.5411650000000  0.4814500000000  0.4343060000000 1.0
C      1  0.4815870000000  0.4636070000000  0.4356850000000 1.0
C      1  0.4601730000000  0.5187550000000  0.4345330000000 1.0
C      1  0.4857760000000  0.4451650000000  0.4579320000000 1.0
C      1  0.5581190000000  0.4855900000000  0.4579320000000 1.0
C      1  0.5158780000000  0.5572870000000  0.4556010000000 1.0
C      1  0.4432670000000  0.5150560000000  0.4580250000000 1.0
C      1  0.4858650000000  0.5554150000000  0.4574890000000 1.0
C      1  0.5583400000000  0.5155640000000  0.4569980000000 1.0
C      1  0.5157100000000  0.4442260000000  0.4562700000000 1.0
C      1  0.4425420000000  0.4851890000000  0.4580170000000 1.0
C      1  0.4699590000000  0.5728240000000  0.5033820000000 1.0
C      1  0.4296850000000  0.4725390000000  0.5052730000000 1.0
C      1  0.5258300000000  0.4301410000000  0.5027680000000 1.0
C      1  0.5687300000000  0.5266250000000  0.5046660000000 1.0
C      1  0.4703450000000  0.4278240000000  0.5037900000000 1.0
C      1  0.4305440000000  0.5266060000000  0.5048420000000 1.0
C      1  0.5254930000000  0.5706120000000  0.5024120000000 1.0
C      1  0.5702090000000  0.4706940000000  0.5056290000000 1.0
C      1  0.4853970000000  0.5683910000000  0.5296060000000 1.0
C      1  0.4409040000000  0.4849120000000  0.5304210000000 1.0
C      1  0.5125040000000  0.4435250000000  0.5251390000000 1.0
C      1  0.5539720000000  0.5138500000000  0.5267740000000 1.0
C      1  0.4858900000000  0.4322720000000  0.5299950000000 1.0
C      1  0.4412660000000  0.5152180000000  0.5301770000000 1.0
C      1  0.5118880000000  0.5569210000000  0.5244800000000 1.0
C      1  0.5594200000000  0.4854140000000  0.5302880000000 1.0
C      1  0.4767170000000  0.4520110000000  0.5508810000000 1.0
C      1  0.5396260000000  0.4779220000000  0.5513480000000 1.0
C      1  0.5202560000000  0.5448970000000  0.5496640000000 1.0
C      1  0.4677230000000  0.5224330000000  0.5405000000000 1.0
C      1  0.4760030000000  0.5487320000000  0.5505840000000 1.0
C      1  0.5383330000000  0.5222430000000  0.5500610000000 1.0
C      1  0.5211350000000  0.4552810000000  0.5503790000000 1.0
C      1  0.4676230000000  0.4780770000000  0.5408140000000 1.0
C      1  0.5945680000000  0.4828790000000  0.4969670000000 1.0
C      1  0.5087870000000  0.5915930000000  0.4934660000000 1.0
C      1  0.4085500000000  0.5108460000000  0.4971540000000 1.0
C      1  0.4823260000000  0.4047820000000  0.4916030000000 1.0
C      1  0.5900480000000  0.5095950000000  0.4976770000000 1.0
C      1  0.5091950000000  0.4091710000000  0.4936970000000 1.0
C      1  0.4048770000000  0.4841140000000  0.4973400000000 1.0
C      1  0.4819030000000  0.5959430000000  0.4913160000000 1.0
C      1  0.4711900000000  0.5504930000000  0.4832180000000 1.0
C      1  0.4495030000000  0.4703520000000  0.4831310000000 1.0
C      1  0.5324260000000  0.4479280000000  0.4804380000000 1.0
C      1  0.5522800000000  0.5317970000000  0.4810010000000 1.0
C      1  0.4711570000000  0.4501500000000  0.4835910000000 1.0
C      1  0.4502700000000  0.5296070000000  0.4830480000000 1.0
C      1  0.5323110000000  0.5532170000000  0.4798900000000 1.0
C      1  0.5511720000000  0.4703760000000  0.4827180000000 1.0
C      1  0.4992360000000  0.4557180000000  0.5684830000000 1.0
C      1  0.4773270000000  0.5003470000000  0.5553680000000 1.0
C      1  0.5337120000000  0.5005070000000  0.5679400000000 1.0
C      1  0.4986380000000  0.5451960000000  0.5681750000000 1.0
END
