TITL C-8701-7969-115 -1.78052714787633e-07 125000 -363.424411343716 0 0 60 (C1) n - 1
REM
REM in /home/bkarasulu/CARBON/AIRSS/Generating-Clusters/EDIP-Nigel-Params/Higher-Symm/Box-15A/Only-C60/SD-CG/HFTN-CG
REM
REM
REM
REM
REM
REM ./C.cell (414f73aa93bd7a1190c7fd0f31ff2f98)
REM
REM compiler GCC version 9.2.1 20190827 (Red Hat 9.2.1-1)
REM options -cpp -mtune=generic -march=x86-64 -g -O0 -fpre-include=/usr/include/finclude/math-vector-fortran.h
REM seed -375395478 1626685905 1569707878 -696585796 -1565510942 -992674514 348876236 2022954157 -710443609 -158906302 1275185853 -304934910 -814119184 856664401 2066710838 752400108 -115270805 386381695 1618071068 1162930266 1313827547 -804883979 -1336004016 -433375992 -2032017323 -2120362724 1912787615 -38869537 1689599527 1898492597 1140993066 429169632 -1610516870
REM
CELL 1.54180   50.00000   50.00000   50.00000   90.00000   90.00000   90.00000
LATT -1
SFAC C  
C      1  0.4646970000000  0.4646500000000  0.5189760000000 1.0
C      1  0.5480270000000  0.4657790000000  0.5216620000000 1.0
C      1  0.4924850000000  0.4670970000000  0.4554210000000 1.0
C      1  0.5558390000000  0.4904280000000  0.5054430000000 1.0
C      1  0.4739090000000  0.4907850000000  0.4508790000000 1.0
C      1  0.4676000000000  0.4880140000000  0.5418060000000 1.0
C      1  0.4825360000000  0.4417140000000  0.5282940000000 1.0
C      1  0.5443720000000  0.4425520000000  0.5049080000000 1.0
C      1  0.4768610000000  0.4451070000000  0.4671800000000 1.0
C      1  0.4978910000000  0.4501110000000  0.5515850000000 1.0
C      1  0.5487790000000  0.4495760000000  0.4776540000000 1.0
C      1  0.4489850000000  0.4536840000000  0.4719630000000 1.0
C      1  0.4469410000000  0.4786120000000  0.4560980000000 1.0
C      1  0.4857480000000  0.4748400000000  0.5617510000000 1.0
C      1  0.5606510000000  0.4760040000000  0.4800850000000 1.0
C      1  0.5145100000000  0.5253460000000  0.5116950000000 1.0
C      1  0.5041290000000  0.5237820000000  0.4778100000000 1.0
C      1  0.4829720000000  0.5260290000000  0.5014310000000 1.0
C      1  0.5339490000000  0.4630490000000  0.5484450000000 1.0
C      1  0.5225750000000  0.4642430000000  0.4533570000000 1.0
C      1  0.4393990000000  0.4597500000000  0.5006010000000 1.0
C      1  0.5172650000000  0.4744810000000  0.4909410000000 1.0
C      1  0.4810280000000  0.4776910000000  0.4961740000000 1.0
C      1  0.5065940000000  0.4785800000000  0.5228810000000 1.0
C      1  0.4415870000000  0.5066020000000  0.5112520000000 1.0
C      1  0.5409900000000  0.5091330000000  0.5488300000000 1.0
C      1  0.5194510000000  0.5081610000000  0.4395510000000 1.0
C      1  0.4702200000000  0.5617160000000  0.4932170000000 1.0
C      1  0.5094640000000  0.5601580000000  0.5285140000000 1.0
C      1  0.5202840000000  0.5595230000000  0.4772100000000 1.0
C      1  0.5525960000000  0.5463310000000  0.5107430000000 1.0
C      1  0.4820760000000  0.5467130000000  0.4484100000000 1.0
C      1  0.4650560000000  0.5441770000000  0.5366200000000 1.0
C      1  0.4307790000000  0.5332340000000  0.5109400000000 1.0
C      1  0.5417450000000  0.5351990000000  0.5601810000000 1.0
C      1  0.5277470000000  0.5342370000000  0.4337460000000 1.0
C      1  0.5616140000000  0.4934460000000  0.4556190000000 1.0
C      1  0.4283050000000  0.4971030000000  0.4697410000000 1.0
C      1  0.5052600000000  0.4939820000000  0.5744480000000 1.0
C      1  0.5385660000000  0.5433290000000  0.4580250000000 1.0
C      1  0.4444570000000  0.5447140000000  0.4889420000000 1.0
C      1  0.5155590000000  0.5446800000000  0.5551940000000 1.0
C      1  0.4654890000000  0.5044230000000  0.4919980000000 1.0
C      1  0.5145520000000  0.5061510000000  0.5330600000000 1.0
C      1  0.5245780000000  0.5017100000000  0.4764030000000 1.0
C      1  0.4901130000000  0.5642300000000  0.4695800000000 1.0
C      1  0.4796710000000  0.5640570000000  0.5225840000000 1.0
C      1  0.5312210000000  0.5645940000000  0.5059250000000 1.0
C      1  0.5567270000000  0.5204940000000  0.4993800000000 1.0
C      1  0.4690480000000  0.5212250000000  0.4515510000000 1.0
C      1  0.4736240000000  0.5180660000000  0.5440090000000 1.0
C      1  0.4246970000000  0.4862820000000  0.4982400000000 1.0
C      1  0.5344880000000  0.4864840000000  0.5670070000000 1.0
C      1  0.5374660000000  0.4855420000000  0.4383710000000 1.0
C      1  0.4957720000000  0.5220140000000  0.5632580000000 1.0
C      1  0.5573060000000  0.5221390000000  0.4696240000000 1.0
C      1  0.4436490000000  0.5242590000000  0.4664660000000 1.0
C      1  0.5246260000000  0.4241190000000  0.5118270000000 1.0
C      1  0.4866110000000  0.4247480000000  0.4833920000000 1.0
C      1  0.4968630000000  0.4251240000000  0.5091010000000 1.0
END
