TITL C-8705-8172-22 -5.11859693684873e-05 125000 -343.49442090118 0 0 60 (C3i) n - 1
REM
REM in /home/bkarasulu/CARBON/AIRSS/Generating-Clusters/EDIP-Nigel-Params/Higher-Symm/Box-15A/Only-C60/SD-CG/HFTN-CG
REM
REM
REM
REM
REM
REM ./C.cell (414f73aa93bd7a1190c7fd0f31ff2f98)
REM
REM compiler GCC version 9.2.1 20190827 (Red Hat 9.2.1-1)
REM options -cpp -mtune=generic -march=x86-64 -g -O0 -fpre-include=/usr/include/finclude/math-vector-fortran.h
REM seed 516487045 -2017196076 -102499022 1548324562 -1169263291 -1567349042 -1651322012 29675513 -1903539708 501217589 1217417313 -1897656968 624421453 -1047017807 330656151 893522965 190435023 -395835985 334088286 119922010 1223023849 -676101655 1339095954 -593650859 -471585659 516228807 81336382 -374890657 1934238462 1711314080 -1427727815 574571915 -44161663
REM
CELL 1.54180   50.00000   50.00000   50.00000   90.00000   90.00000   90.00000
LATT -1
SFAC C  
C      1  0.5226080000000  0.5434950000000  0.5397890000000 1.0
C      1  0.4737020000000  0.5413890000000  0.4602330000000 1.0
C      1  0.4509410000000  0.4978570000000  0.5396820000000 1.0
C      1  0.4773920000000  0.4565050000000  0.4602110000000 1.0
C      1  0.5262980000000  0.4586110000000  0.5397670000000 1.0
C      1  0.5490590000000  0.5021430000000  0.4603180000000 1.0
C      1  0.4130800000000  0.4763910000000  0.4980750000000 1.0
C      1  0.4769830000000  0.4129170000000  0.5017490000000 1.0
C      1  0.5639100000000  0.4365280000000  0.4982570000000 1.0
C      1  0.5869200000000  0.5236090000000  0.5019250000000 1.0
C      1  0.5230170000000  0.5870830000000  0.4982510000000 1.0
C      1  0.4360900000000  0.5634720000000  0.5017430000000 1.0
C      1  0.4520590000000  0.5046770000000  0.4887260000000 1.0
C      1  0.4719600000000  0.4608030000000  0.5111660000000 1.0
C      1  0.5199440000000  0.4561360000000  0.4887980000000 1.0
C      1  0.5479410000000  0.4953230000000  0.5112740000000 1.0
C      1  0.5280400000000  0.5391970000000  0.4888340000000 1.0
C      1  0.4800560000000  0.5438640000000  0.5112020000000 1.0
C      1  0.4087330000000  0.4785100000000  0.5247190000000 1.0
C      1  0.4730190000000  0.4102550000000  0.4750950000000 1.0
C      1  0.5641900000000  0.4317220000000  0.5249040000000 1.0
C      1  0.5912670000000  0.5214900000000  0.4752810000000 1.0
C      1  0.5269810000000  0.5897450000000  0.5249050000000 1.0
C      1  0.4358100000000  0.5682780000000  0.4750960000000 1.0
C      1  0.4873120000000  0.4767000000000  0.5607160000000 1.0
C      1  0.5139350000000  0.4774570000000  0.4392720000000 1.0
C      1  0.5263890000000  0.5007010000000  0.5607740000000 1.0
C      1  0.5126880000000  0.5233000000000  0.4392840000000 1.0
C      1  0.4860650000000  0.5225430000000  0.5607280000000 1.0
C      1  0.4736110000000  0.4992990000000  0.4392260000000 1.0
C      1  0.5137310000000  0.5255000000000  0.5600520000000 1.0
C      1  0.4848820000000  0.5247360000000  0.4399620000000 1.0
C      1  0.4709200000000  0.4991810000000  0.5599890000000 1.0
C      1  0.4862690000000  0.4745000000000  0.4399480000000 1.0
C      1  0.5151180000000  0.4752640000000  0.5600380000000 1.0
C      1  0.5290800000000  0.5008190000000  0.4400110000000 1.0
C      1  0.4336190000000  0.4747690000000  0.5373770000000 1.0
C      1  0.4887220000000  0.4299560000000  0.4624940000000 1.0
C      1  0.5549590000000  0.4551520000000  0.5375270000000 1.0
C      1  0.5663810000000  0.5252310000000  0.4626230000000 1.0
C      1  0.5112780000000  0.5700440000000  0.5375060000000 1.0
C      1  0.4450410000000  0.5448480000000  0.4624730000000 1.0
C      1  0.4998750000000  0.4782940000000  0.4815110000000 1.0
C      1  0.5187050000000  0.4890100000000  0.5185030000000 1.0
C      1  0.5189010000000  0.5107330000000  0.4815450000000 1.0
C      1  0.5001250000000  0.5217060000000  0.5184890000000 1.0
C      1  0.4812950000000  0.5109900000000  0.4814970000000 1.0
C      1  0.4810990000000  0.4892670000000  0.5184550000000 1.0
C      1  0.5517260000000  0.5471030000000  0.4740610000000 1.0
C      1  0.4850270000000  0.5683060000000  0.5260220000000 1.0
C      1  0.4334020000000  0.5212270000000  0.4739010000000 1.0
C      1  0.4482740000000  0.4528970000000  0.5259390000000 1.0
C      1  0.5149730000000  0.4316940000000  0.4739780000000 1.0
C      1  0.5665980000000  0.4787730000000  0.5260990000000 1.0
C      1  0.4337700000000  0.4832910000000  0.4812090000000 1.0
C      1  0.4813250000000  0.4342590000000  0.5186560000000 1.0
C      1  0.5476270000000  0.4509850000000  0.4813460000000 1.0
C      1  0.5662300000000  0.5167090000000  0.5187910000000 1.0
C      1  0.5186750000000  0.5657410000000  0.4813440000000 1.0
C      1  0.4523730000000  0.5490150000000  0.5186540000000 1.0
END
