TITL C-8700-8172-350 -5.11651194881194e-07 125000 -365.422958726068 0 0 60 (S4) n - 1
REM
REM in /home/bkarasulu/CARBON/AIRSS/Generating-Clusters/EDIP-Nigel-Params/Higher-Symm/Box-15A/Only-C60/SD-CG/HFTN-CG
REM
REM
REM
REM
REM
REM ./C.cell (414f73aa93bd7a1190c7fd0f31ff2f98)
REM
REM compiler GCC version 9.2.1 20190827 (Red Hat 9.2.1-1)
REM options -cpp -mtune=generic -march=x86-64 -g -O0 -fpre-include=/usr/include/finclude/math-vector-fortran.h
REM seed -1759451441 778829743 395034441 -2030652318 -1263812579 456906154 -1335831395 369998554 -750910916 1197348822 -737502193 -57088895 -2105176259 -1055439696 -1152914588 1846669005 -2146981908 1364062856 696420349 1950210245 1807994127 -351838322 811579956 1072631161 -1258567476 -856485104 -260804394 1877636047 1241647424 1374843620 -723886043 -476527427 1933093757
REM
CELL 1.54180   50.00000   50.00000   50.00000   90.00000   90.00000   90.00000
LATT -1
SFAC C  
C      1  0.5262560000000  0.5437020000000  0.5350820000000 1.0
C      1  0.5268410000000  0.5337410000000  0.4562240000000 1.0
C      1  0.5262680000000  0.4562960000000  0.4649290000000 1.0
C      1  0.5268200000000  0.4662580000000  0.5437870000000 1.0
C      1  0.4750080000000  0.5437820000000  0.5337360000000 1.0
C      1  0.4755930000000  0.5350780000000  0.4562910000000 1.0
C      1  0.4750200000000  0.4562190000000  0.4662530000000 1.0
C      1  0.4755720000000  0.4649240000000  0.5436980000000 1.0
C      1  0.4517660000000  0.4932930000000  0.4563010000000 1.0
C      1  0.4518620000000  0.4544470000000  0.5073810000000 1.0
C      1  0.4517480000000  0.5067110000000  0.5436780000000 1.0
C      1  0.4518690000000  0.5455560000000  0.4925980000000 1.0
C      1  0.5499880000000  0.4926070000000  0.4544560000000 1.0
C      1  0.5500840000000  0.4563100000000  0.5067190000000 1.0
C      1  0.5499690000000  0.5073900000000  0.5455650000000 1.0
C      1  0.5500900000000  0.5436870000000  0.4933020000000 1.0
C      1  0.5163170000000  0.5101670000000  0.4771720000000 1.0
C      1  0.5168400000000  0.4779080000000  0.4873130000000 1.0
C      1  0.5163070000000  0.4898320000000  0.5228340000000 1.0
C      1  0.5168370000000  0.5220910000000  0.5126940000000 1.0
C      1  0.4850110000000  0.5126910000000  0.4779050000000 1.0
C      1  0.4855340000000  0.4771690000000  0.4898290000000 1.0
C      1  0.4850000000000  0.4873100000000  0.5220880000000 1.0
C      1  0.4855310000000  0.5228320000000  0.5101640000000 1.0
C      1  0.4757770000000  0.5053530000000  0.5614290000000 1.0
C      1  0.4764600000000  0.5629640000000  0.4941760000000 1.0
C      1  0.4758030000000  0.4946480000000  0.4385600000000 1.0
C      1  0.4764540000000  0.4370370000000  0.5058130000000 1.0
C      1  0.5253740000000  0.5058180000000  0.5629690000000 1.0
C      1  0.5260570000000  0.5614340000000  0.4946530000000 1.0
C      1  0.5254000000000  0.4941810000000  0.4370420000000 1.0
C      1  0.5260510000000  0.4385640000000  0.5053580000000 1.0
C      1  0.5548570000000  0.5349320000000  0.5364660000000 1.0
C      1  0.5551890000000  0.5351230000000  0.4655970000000 1.0
C      1  0.5548710000000  0.4650650000000  0.4635570000000 1.0
C      1  0.5551720000000  0.4648740000000  0.5344270000000 1.0
C      1  0.4466570000000  0.5344170000000  0.5351130000000 1.0
C      1  0.4469890000000  0.5364570000000  0.4650550000000 1.0
C      1  0.4466700000000  0.4655870000000  0.4648640000000 1.0
C      1  0.4469710000000  0.4635470000000  0.5349220000000 1.0
C      1  0.4857470000000  0.5328830000000  0.5594340000000 1.0
C      1  0.4870160000000  0.5605320000000  0.4667290000000 1.0
C      1  0.4857700000000  0.4671180000000  0.4405600000000 1.0
C      1  0.4869970000000  0.4394690000000  0.5332650000000 1.0
C      1  0.5148260000000  0.5332670000000  0.5605350000000 1.0
C      1  0.5160950000000  0.5594360000000  0.4671210000000 1.0
C      1  0.5148490000000  0.4667320000000  0.4394710000000 1.0
C      1  0.5160770000000  0.4405630000000  0.5328860000000 1.0
C      1  0.5696160000000  0.5124190000000  0.4578790000000 1.0
C      1  0.5694660000000  0.4586600000000  0.4866190000000 1.0
C      1  0.5695970000000  0.4875770000000  0.5421500000000 1.0
C      1  0.5694640000000  0.5413350000000  0.5134110000000 1.0
C      1  0.4323880000000  0.5133980000000  0.4586480000000 1.0
C      1  0.4322390000000  0.4578670000000  0.4875640000000 1.0
C      1  0.4323700000000  0.4866060000000  0.5413230000000 1.0
C      1  0.4322360000000  0.5421380000000  0.5124060000000 1.0
C      1  0.5005520000000  0.4874370000000  0.5636750000000 1.0
C      1  0.5005800000000  0.5125630000000  0.4363250000000 1.0
C      1  0.5012790000000  0.4363250000000  0.4874370000000 1.0
C      1  0.5012780000000  0.5636750000000  0.5125630000000 1.0
END
