TITL C-8700-8172-58 4.50030123200306e-05 125000 -372.395371290383 0 0 60 (S10) n - 1
REM
REM in /home/bkarasulu/CARBON/AIRSS/Generating-Clusters/EDIP-Nigel-Params/Higher-Symm/Box-15A/Only-C60/SD-CG/HFTN-CG
REM
REM
REM
REM
REM
REM ./C.cell (414f73aa93bd7a1190c7fd0f31ff2f98)
REM
REM compiler GCC version 9.2.1 20190827 (Red Hat 9.2.1-1)
REM options -cpp -mtune=generic -march=x86-64 -g -O0 -fpre-include=/usr/include/finclude/math-vector-fortran.h
REM seed 1028885405 -961237186 839151084 -1109018459 -2103519577 1664880169 1281399770 -433280441 1282494380 -864583415 -166072762 1058871534 -911130179 -1454944713 -47369203 -1210752164 803972644 -406795135 -338052909 -725478231 851227147 -315019417 1589449084 -795436879 -1311494948 1490194986 -1692370355 354831672 -436901470 -1840561485 -1146013284 2118717800 102300551
REM
CELL 1.54180   50.00000   50.00000   50.00000   90.00000   90.00000   90.00000
LATT -1
SFAC C  
C      1  0.4580260000000  0.4681260000000  0.5295020000000 1.0
C      1  0.5174220000000  0.4491060000000  0.5274660000000 1.0
C      1  0.5538890000000  0.4997410000000  0.5272780000000 1.0
C      1  0.5170300000000  0.5500560000000  0.5291980000000 1.0
C      1  0.4577840000000  0.5305170000000  0.5305730000000 1.0
C      1  0.5424400000000  0.4697960000000  0.4694260000000 1.0
C      1  0.4833360000000  0.4498280000000  0.4707900000000 1.0
C      1  0.4461140000000  0.4998740000000  0.4727150000000 1.0
C      1  0.4822130000000  0.5507730000000  0.4725420000000 1.0
C      1  0.5417460000000  0.5321830000000  0.4705090000000 1.0
C      1  0.4827880000000  0.4510030000000  0.4417310000000 1.0
C      1  0.5410450000000  0.4707770000000  0.4403890000000 1.0
C      1  0.5402740000000  0.5322990000000  0.4414600000000 1.0
C      1  0.4815410000000  0.5505480000000  0.4434640000000 1.0
C      1  0.4460120000000  0.5003040000000  0.4436310000000 1.0
C      1  0.5179600000000  0.4492860000000  0.5565480000000 1.0
C      1  0.4594130000000  0.4681250000000  0.5585570000000 1.0
C      1  0.4592610000000  0.5296520000000  0.5596090000000 1.0
C      1  0.5177140000000  0.5488380000000  0.5582520000000 1.0
C      1  0.5539920000000  0.4991690000000  0.5563590000000 1.0
C      1  0.5445250000000  0.4488500000000  0.5120810000000 1.0
C      1  0.5624650000000  0.5260180000000  0.5128790000000 1.0
C      1  0.4946470000000  0.5668950000000  0.5155310000000 1.0
C      1  0.4347930000000  0.5149900000000  0.5163710000000 1.0
C      1  0.4656190000000  0.4420350000000  0.5142400000000 1.0
C      1  0.4562440000000  0.4486360000000  0.4861500000000 1.0
C      1  0.4371480000000  0.5255070000000  0.4880100000000 1.0
C      1  0.5043450000000  0.5674630000000  0.4867880000000 1.0
C      1  0.5649710000000  0.5165230000000  0.4841720000000 1.0
C      1  0.5352430000000  0.4430830000000  0.4837780000000 1.0
C      1  0.5343740000000  0.5580980000000  0.4857660000000 1.0
C      1  0.4553460000000  0.5511840000000  0.4879270000000 1.0
C      1  0.4374620000000  0.4738700000000  0.4871250000000 1.0
C      1  0.5054370000000  0.4330020000000  0.4844690000000 1.0
C      1  0.5653320000000  0.4850570000000  0.4836290000000 1.0
C      1  0.4647620000000  0.5570500000000  0.5162210000000 1.0
C      1  0.5438840000000  0.5514010000000  0.5138440000000 1.0
C      1  0.5629270000000  0.4743830000000  0.5119820000000 1.0
C      1  0.4955730000000  0.4324320000000  0.5132090000000 1.0
C      1  0.4349040000000  0.4835230000000  0.5158280000000 1.0
C      1  0.4924490000000  0.4760540000000  0.4805650000000 1.0
C      1  0.5203590000000  0.4861820000000  0.4799330000000 1.0
C      1  0.5193680000000  0.5158580000000  0.4804670000000 1.0
C      1  0.4908450000000  0.5240720000000  0.4814290000000 1.0
C      1  0.4742080000000  0.4994720000000  0.4814900000000 1.0
C      1  0.5079140000000  0.4755140000000  0.5185990000000 1.0
C      1  0.4798550000000  0.4851940000000  0.5195730000000 1.0
C      1  0.4804010000000  0.5148820000000  0.5200630000000 1.0
C      1  0.5087980000000  0.5235510000000  0.5193930000000 1.0
C      1  0.5258020000000  0.4992200000000  0.5184880000000 1.0
C      1  0.4818030000000  0.4842770000000  0.5639020000000 1.0
C      1  0.5095530000000  0.4753450000000  0.5629500000000 1.0
C      1  0.5266340000000  0.4989880000000  0.5628610000000 1.0
C      1  0.5094400000000  0.5225320000000  0.5637570000000 1.0
C      1  0.4817330000000  0.5134410000000  0.5644010000000 1.0
C      1  0.5184150000000  0.4867660000000  0.4355980000000 1.0
C      1  0.4908020000000  0.4773910000000  0.4362340000000 1.0
C      1  0.4733680000000  0.5007580000000  0.4371350000000 1.0
C      1  0.4902060000000  0.5245740000000  0.4370560000000 1.0
C      1  0.5180460000000  0.5159270000000  0.4361060000000 1.0
END
