TITL C-8700-8172-254 6.99926754401358e-05 125000 -364.936282044195 0 0 60 (C1) n - 1
REM
REM in /home/bkarasulu/CARBON/AIRSS/Generating-Clusters/EDIP-Nigel-Params/Higher-Symm/Box-15A/Only-C60/SD-CG/HFTN-CG
REM
REM
REM
REM
REM
REM ./C.cell (414f73aa93bd7a1190c7fd0f31ff2f98)
REM
REM compiler GCC version 9.2.1 20190827 (Red Hat 9.2.1-1)
REM options -cpp -mtune=generic -march=x86-64 -g -O0 -fpre-include=/usr/include/finclude/math-vector-fortran.h
REM seed 327872228 -135865548 2023465045 458043722 771669445 -1773512152 -1267108273 -1304004580 1463324178 -760460452 -1547176667 -42582391 104260388 733853880 1027803900 320027918 -72540295 -1724198754 -1917380467 983791842 -785700958 -622547991 -1012093743 1039265581 -162398304 1465614921 -87704656 593503768 2047373420 91490603 -1238209912 46209074 1735098462
REM
CELL 1.54180   50.00000   50.00000   50.00000   90.00000   90.00000   90.00000
LATT -1
SFAC C  
C      1  0.5199510000000  0.4715560000000  0.5058060000000 1.0
C      1  0.4968990000000  0.4850370000000  0.5490980000000 1.0
C      1  0.4875630000000  0.5328820000000  0.5661430000000 1.0
C      1  0.4503080000000  0.5349740000000  0.4697030000000 1.0
C      1  0.4357730000000  0.4654120000000  0.5188630000000 1.0
C      1  0.5612290000000  0.5247090000000  0.4800340000000 1.0
C      1  0.5456580000000  0.4707170000000  0.4905560000000 1.0
C      1  0.5090320000000  0.5776780000000  0.4899480000000 1.0
C      1  0.5564830000000  0.5218120000000  0.4360090000000 1.0
C      1  0.5393210000000  0.5428550000000  0.4306560000000 1.0
C      1  0.5430640000000  0.4967740000000  0.4391200000000 1.0
C      1  0.5048410000000  0.4997850000000  0.4913840000000 1.0
C      1  0.4831720000000  0.4290970000000  0.4646100000000 1.0
C      1  0.4444320000000  0.4804650000000  0.5420480000000 1.0
C      1  0.4350390000000  0.4791420000000  0.4921280000000 1.0
C      1  0.4546280000000  0.5025000000000  0.4896350000000 1.0
C      1  0.5194820000000  0.5550820000000  0.4461390000000 1.0
C      1  0.4628310000000  0.4714530000000  0.5624370000000 1.0
C      1  0.5149250000000  0.4638740000000  0.4484760000000 1.0
C      1  0.4644610000000  0.4708160000000  0.4548290000000 1.0
C      1  0.4455810000000  0.5444490000000  0.4977820000000 1.0
C      1  0.4800360000000  0.5732840000000  0.4809230000000 1.0
C      1  0.4459670000000  0.4376280000000  0.5158440000000 1.0
C      1  0.4730850000000  0.5520960000000  0.4605470000000 1.0
C      1  0.5238140000000  0.4764590000000  0.5371000000000 1.0
C      1  0.4426570000000  0.4590140000000  0.4715190000000 1.0
C      1  0.5194970000000  0.4354460000000  0.5210600000000 1.0
C      1  0.4848530000000  0.5606760000000  0.5259670000000 1.0
C      1  0.5251500000000  0.4480920000000  0.5466130000000 1.0
C      1  0.4718240000000  0.5485260000000  0.5490420000000 1.0
C      1  0.4997120000000  0.5141710000000  0.5490020000000 1.0
C      1  0.4783810000000  0.4749940000000  0.5251130000000 1.0
C      1  0.5142840000000  0.4919050000000  0.4400720000000 1.0
C      1  0.4790300000000  0.4969410000000  0.5052170000000 1.0
C      1  0.5491310000000  0.4937440000000  0.5430000000000 1.0
C      1  0.5729770000000  0.5130540000000  0.5037900000000 1.0
C      1  0.5038850000000  0.4437480000000  0.5645510000000 1.0
C      1  0.5127330000000  0.5692900000000  0.5185970000000 1.0
C      1  0.4510450000000  0.4333450000000  0.4857400000000 1.0
C      1  0.5294430000000  0.5646290000000  0.4726210000000 1.0
C      1  0.4963090000000  0.5372520000000  0.4511720000000 1.0
C      1  0.4711050000000  0.4322500000000  0.5319610000000 1.0
C      1  0.5229970000000  0.5207110000000  0.5323330000000 1.0
C      1  0.4922780000000  0.4387380000000  0.5120140000000 1.0
C      1  0.5707700000000  0.4777400000000  0.5332970000000 1.0
C      1  0.5423570000000  0.4655320000000  0.4617630000000 1.0
C      1  0.4968520000000  0.5073370000000  0.4596320000000 1.0
C      1  0.4662920000000  0.5003940000000  0.4598090000000 1.0
C      1  0.5387690000000  0.5417330000000  0.4908020000000 1.0
C      1  0.5174790000000  0.5236910000000  0.5033140000000 1.0
C      1  0.5611220000000  0.5275500000000  0.5280210000000 1.0
C      1  0.4651740000000  0.5655250000000  0.5049120000000 1.0
C      1  0.4891230000000  0.4563270000000  0.4605020000000 1.0
C      1  0.4763220000000  0.4455480000000  0.5583710000000 1.0
C      1  0.4354100000000  0.5290150000000  0.5189180000000 1.0
C      1  0.4466070000000  0.5385080000000  0.5418980000000 1.0
C      1  0.4867360000000  0.4199710000000  0.4904250000000 1.0
C      1  0.5754780000000  0.5272360000000  0.4558630000000 1.0
C      1  0.5699010000000  0.4831330000000  0.5054600000000 1.0
C      1  0.5467420000000  0.5536970000000  0.5178080000000 1.0
END
