TITL C-8702-7969-70 -1.30455723980728e-07 125000 -353.660838306225 0 0 60 (C1) n - 1
REM
REM in /home/bkarasulu/CARBON/AIRSS/Generating-Clusters/EDIP-Nigel-Params/Higher-Symm/Box-15A/Only-C60/SD-CG/HFTN-CG
REM
REM
REM
REM
REM
REM ./C.cell (414f73aa93bd7a1190c7fd0f31ff2f98)
REM
REM compiler GCC version 9.2.1 20190827 (Red Hat 9.2.1-1)
REM options -cpp -mtune=generic -march=x86-64 -g -O0 -fpre-include=/usr/include/finclude/math-vector-fortran.h
REM seed 1550948443 2006380541 92221390 1338413279 -1126898590 2067986950 373162795 567014810 -988990513 1766354106 275307181 -571738657 648085005 603201347 -670718054 291866775 -744801288 1642760373 -223229666 -86530656 479551569 1335181613 633265039 -727952774 -1043976001 368791911 -2014971294 107849455 26147716 1656386629 -998357958 971484605 357346575
REM
CELL 1.54180   50.00000   50.00000   50.00000   90.00000   90.00000   90.00000
LATT -1
SFAC C  
C      1  0.5143650000000  0.4937170000000  0.5744710000000 1.0
C      1  0.5670020000000  0.5029600000000  0.5185830000000 1.0
C      1  0.5514200000000  0.5009870000000  0.4497190000000 1.0
C      1  0.4840850000000  0.4989730000000  0.4317920000000 1.0
C      1  0.4372340000000  0.4970510000000  0.4785830000000 1.0
C      1  0.4565900000000  0.5024090000000  0.5364960000000 1.0
C      1  0.5145150000000  0.5013750000000  0.4359340000000 1.0
C      1  0.5631470000000  0.5046820000000  0.4782310000000 1.0
C      1  0.5459870000000  0.4953090000000  0.5389800000000 1.0
C      1  0.4868290000000  0.5073150000000  0.5746460000000 1.0
C      1  0.4319280000000  0.4976230000000  0.5173950000000 1.0
C      1  0.4494770000000  0.5004190000000  0.4505830000000 1.0
C      1  0.4788850000000  0.4825200000000  0.4786340000000 1.0
C      1  0.4709090000000  0.4802670000000  0.5077610000000 1.0
C      1  0.4946480000000  0.4807270000000  0.5284010000000 1.0
C      1  0.5260990000000  0.4767910000000  0.5261770000000 1.0
C      1  0.5320880000000  0.4801430000000  0.4963500000000 1.0
C      1  0.5099060000000  0.4801910000000  0.4739880000000 1.0
C      1  0.4769520000000  0.5213070000000  0.5238340000000 1.0
C      1  0.4695310000000  0.5224140000000  0.4942470000000 1.0
C      1  0.4902290000000  0.5187740000000  0.4706860000000 1.0
C      1  0.5209200000000  0.5176260000000  0.4766070000000 1.0
C      1  0.5293540000000  0.5189640000000  0.5061620000000 1.0
C      1  0.5078800000000  0.5173020000000  0.5285300000000 1.0
C      1  0.5138410000000  0.5394140000000  0.5497760000000 1.0
C      1  0.5495340000000  0.5424790000000  0.5106270000000 1.0
C      1  0.5345770000000  0.5404220000000  0.4601570000000 1.0
C      1  0.4834160000000  0.5394510000000  0.4493710000000 1.0
C      1  0.4442530000000  0.5391560000000  0.4897860000000 1.0
C      1  0.4689630000000  0.5447310000000  0.5414250000000 1.0
C      1  0.5174080000000  0.4605110000000  0.4520790000000 1.0
C      1  0.5553510000000  0.4629470000000  0.4905520000000 1.0
C      1  0.5307350000000  0.4514590000000  0.5436660000000 1.0
C      1  0.4851360000000  0.4635550000000  0.5524460000000 1.0
C      1  0.4498840000000  0.4579960000000  0.5105360000000 1.0
C      1  0.4654060000000  0.4609850000000  0.4620380000000 1.0
C      1  0.4882000000000  0.5628190000000  0.4691650000000 1.0
C      1  0.4691050000000  0.5610670000000  0.4937150000000 1.0
C      1  0.4797190000000  0.5656970000000  0.5226970000000 1.0
C      1  0.5087430000000  0.5620340000000  0.5280050000000 1.0
C      1  0.5279500000000  0.5631730000000  0.5049250000000 1.0
C      1  0.5181910000000  0.5620520000000  0.4756200000000 1.0
C      1  0.4888100000000  0.4369170000000  0.5283430000000 1.0
C      1  0.4699250000000  0.4359970000000  0.5055760000000 1.0
C      1  0.4806690000000  0.4379040000000  0.4767710000000 1.0
C      1  0.5113520000000  0.4363080000000  0.4717030000000 1.0
C      1  0.5284810000000  0.4367590000000  0.4961580000000 1.0
C      1  0.5176870000000  0.4329830000000  0.5237090000000 1.0
C      1  0.4712640000000  0.4722010000000  0.4353630000000 1.0
C      1  0.4321470000000  0.4699050000000  0.4900880000000 1.0
C      1  0.4670350000000  0.4883380000000  0.5616380000000 1.0
C      1  0.5117210000000  0.4634990000000  0.5664870000000 1.0
C      1  0.5760320000000  0.4791450000000  0.5023870000000 1.0
C      1  0.5415380000000  0.4739080000000  0.4419150000000 1.0
C      1  0.4877690000000  0.5371550000000  0.5648110000000 1.0
C      1  0.4245700000000  0.5232680000000  0.5039880000000 1.0
C      1  0.4584960000000  0.5269260000000  0.4405920000000 1.0
C      1  0.5281140000000  0.5278330000000  0.4343510000000 1.0
C      1  0.5687220000000  0.5309810000000  0.4914620000000 1.0
C      1  0.5352760000000  0.5101840000000  0.5612840000000 1.0
END
