TITL C-8700-8172-223 -2.23998783746693e-06 125000 -360.756805208868 0 0 60 (C1) n - 1
REM
REM in /home/bkarasulu/CARBON/AIRSS/Generating-Clusters/EDIP-Nigel-Params/Higher-Symm/Box-15A/Only-C60/SD-CG/HFTN-CG
REM
REM
REM
REM
REM
REM ./C.cell (414f73aa93bd7a1190c7fd0f31ff2f98)
REM
REM compiler GCC version 9.2.1 20190827 (Red Hat 9.2.1-1)
REM options -cpp -mtune=generic -march=x86-64 -g -O0 -fpre-include=/usr/include/finclude/math-vector-fortran.h
REM seed -512963072 -1573358147 847013824 -30946298 888040497 -1702001448 397935536 -1466741912 -603777222 -1223883301 -125919561 -137656490 -885180234 -1232606222 -870818446 1773816936 461132169 1498237539 1277349142 34591766 1707689985 1843613530 -596141268 -1204047764 2050264117 -1672678699 682054930 2008880801 2033951402 -755902895 -399796028 1181943006 -213820443
REM
CELL 1.54180   50.00000   50.00000   50.00000   90.00000   90.00000   90.00000
LATT -1
SFAC C  
C      1  0.4553810000000  0.5403650000000  0.4306240000000 1.0
C      1  0.5440140000000  0.5407640000000  0.5692290000000 1.0
C      1  0.5141680000000  0.4949220000000  0.5103700000000 1.0
C      1  0.4877610000000  0.4975610000000  0.5021840000000 1.0
C      1  0.5584520000000  0.5618430000000  0.5253370000000 1.0
C      1  0.4413180000000  0.5630680000000  0.4732190000000 1.0
C      1  0.5367760000000  0.5640800000000  0.5055000000000 1.0
C      1  0.4626310000000  0.5656840000000  0.4931670000000 1.0
C      1  0.4251520000000  0.5402070000000  0.4779990000000 1.0
C      1  0.5748910000000  0.5391330000000  0.5210430000000 1.0
C      1  0.4274320000000  0.4685620000000  0.4649440000000 1.0
C      1  0.5705470000000  0.4697120000000  0.5349590000000 1.0
C      1  0.4734260000000  0.4541280000000  0.4717490000000 1.0
C      1  0.5262630000000  0.4521570000000  0.5282230000000 1.0
C      1  0.5458520000000  0.4630160000000  0.5467830000000 1.0
C      1  0.4530160000000  0.4644350000000  0.4540220000000 1.0
C      1  0.5405980000000  0.5138310000000  0.5323460000000 1.0
C      1  0.4606190000000  0.5153920000000  0.4685150000000 1.0
C      1  0.5037860000000  0.5426180000000  0.5468820000000 1.0
C      1  0.4963950000000  0.5423250000000  0.4518440000000 1.0
C      1  0.4837200000000  0.5667950000000  0.4608170000000 1.0
C      1  0.5163960000000  0.5670210000000  0.5381340000000 1.0
C      1  0.4791610000000  0.5326200000000  0.5351870000000 1.0
C      1  0.5207170000000  0.5319230000000  0.4642610000000 1.0
C      1  0.4321970000000  0.4399620000000  0.5326560000000 1.0
C      1  0.5689010000000  0.4425580000000  0.4668930000000 1.0
C      1  0.4368740000000  0.4453720000000  0.5051410000000 1.0
C      1  0.5637300000000  0.4461670000000  0.4946260000000 1.0
C      1  0.5443730000000  0.4397720000000  0.4552080000000 1.0
C      1  0.4567070000000  0.4334990000000  0.5430190000000 1.0
C      1  0.4704110000000  0.5416710000000  0.5081980000000 1.0
C      1  0.5267750000000  0.5398880000000  0.4922540000000 1.0
C      1  0.5013410000000  0.4598560000000  0.4639650000000 1.0
C      1  0.4987050000000  0.4553020000000  0.5361160000000 1.0
C      1  0.5352440000000  0.4486400000000  0.5003200000000 1.0
C      1  0.4652470000000  0.4478320000000  0.4993780000000 1.0
C      1  0.4839730000000  0.4967290000000  0.4325410000000 1.0
C      1  0.5144060000000  0.4974360000000  0.5680290000000 1.0
C      1  0.4223500000000  0.5178810000000  0.4933130000000 1.0
C      1  0.5793080000000  0.5178620000000  0.5047690000000 1.0
C      1  0.5234140000000  0.4427040000000  0.4740630000000 1.0
C      1  0.4772880000000  0.4397200000000  0.5248090000000 1.0
C      1  0.5724670000000  0.4940660000000  0.4912810000000 1.0
C      1  0.4294940000000  0.4942480000000  0.5070660000000 1.0
C      1  0.4229740000000  0.4686000000000  0.4930080000000 1.0
C      1  0.5772730000000  0.4690740000000  0.5073020000000 1.0
C      1  0.4902070000000  0.4869570000000  0.5553880000000 1.0
C      1  0.5080250000000  0.4845220000000  0.4461570000000 1.0
C      1  0.5536710000000  0.4942570000000  0.4693860000000 1.0
C      1  0.4470860000000  0.4950030000000  0.5297190000000 1.0
C      1  0.5292280000000  0.5037260000000  0.4571860000000 1.0
C      1  0.4707240000000  0.5048670000000  0.5426070000000 1.0
C      1  0.5428910000000  0.5636750000000  0.5510550000000 1.0
C      1  0.4572300000000  0.5639040000000  0.4478660000000 1.0
C      1  0.4667460000000  0.5154240000000  0.4958180000000 1.0
C      1  0.5351350000000  0.5140370000000  0.5039530000000 1.0
C      1  0.5349130000000  0.4781320000000  0.5678210000000 1.0
C      1  0.4626760000000  0.4782630000000  0.4317130000000 1.0
C      1  0.4746760000000  0.5230660000000  0.4447030000000 1.0
C      1  0.5248670000000  0.5231630000000  0.5553340000000 1.0
END
