TITL C-8706-7473-196 -6.28898468509116e-06 125000 -355.566425540355 0 0 60 (C1) n - 1
REM
REM in /home/bkarasulu/CARBON/AIRSS/Generating-Clusters/EDIP-Nigel-Params/Higher-Symm/Box-15A/Only-C60/SD-CG/HFTN-CG
REM
REM
REM
REM
REM
REM ./C.cell (414f73aa93bd7a1190c7fd0f31ff2f98)
REM
REM compiler GCC version 9.2.1 20190827 (Red Hat 9.2.1-1)
REM options -cpp -mtune=generic -march=x86-64 -g -O0 -fpre-include=/usr/include/finclude/math-vector-fortran.h
REM seed -394600338 -131855893 1759339587 -662763309 -1933382122 469043029 1259813615 1407831532 1641300771 1964184876 618856519 567286984 1035929487 -1605921125 114077543 1582403155 2077442308 -1611219447 121638842 46937164 541900976 -704936606 -1121490776 1925634389 1770063864 -1787595252 1750273773 -902171395 140958043 -821546427 1240597670 1989530752 1801983659
REM
CELL 1.54180   50.00000   50.00000   50.00000   90.00000   90.00000   90.00000
LATT -1
SFAC C  
C      1  0.4811760000000  0.5341540000000  0.5589710000000 1.0
C      1  0.5362320000000  0.5643960000000  0.4818140000000 1.0
C      1  0.5610980000000  0.4817910000000  0.5302250000000 1.0
C      1  0.5170150000000  0.5367150000000  0.4449390000000 1.0
C      1  0.5181010000000  0.4677700000000  0.5547940000000 1.0
C      1  0.4842890000000  0.4637150000000  0.4434490000000 1.0
C      1  0.4695600000000  0.5529930000000  0.5130330000000 1.0
C      1  0.4588200000000  0.4396120000000  0.4819340000000 1.0
C      1  0.5354420000000  0.4411390000000  0.5158650000000 1.0
C      1  0.4383840000000  0.4808890000000  0.4590200000000 1.0
C      1  0.4489340000000  0.5105100000000  0.5304480000000 1.0
C      1  0.5585360000000  0.5214440000000  0.4686690000000 1.0
C      1  0.5545220000000  0.5428510000000  0.4878220000000 1.0
C      1  0.4876380000000  0.5521300000000  0.5372860000000 1.0
C      1  0.5396710000000  0.4873710000000  0.5485430000000 1.0
C      1  0.4452570000000  0.5350900000000  0.5135220000000 1.0
C      1  0.5598740000000  0.4571370000000  0.5147700000000 1.0
C      1  0.4356370000000  0.4558610000000  0.4741380000000 1.0
C      1  0.5196500000000  0.5633130000000  0.4580060000000 1.0
C      1  0.4830770000000  0.4434200000000  0.4653550000000 1.0
C      1  0.5135960000000  0.4447920000000  0.5357340000000 1.0
C      1  0.4639660000000  0.4852210000000  0.4443700000000 1.0
C      1  0.5363990000000  0.5151280000000  0.4512910000000 1.0
C      1  0.4596520000000  0.5146170000000  0.5577790000000 1.0
C      1  0.5360410000000  0.5654000000000  0.5209290000000 1.0
C      1  0.5645950000000  0.5207440000000  0.5341610000000 1.0
C      1  0.5201100000000  0.5347520000000  0.5619270000000 1.0
C      1  0.4753940000000  0.5686090000000  0.4881780000000 1.0
C      1  0.4621870000000  0.4332840000000  0.5110120000000 1.0
C      1  0.5337420000000  0.4331440000000  0.4878130000000 1.0
C      1  0.4261170000000  0.5053880000000  0.4710460000000 1.0
C      1  0.4315960000000  0.4870010000000  0.5274140000000 1.0
C      1  0.5574640000000  0.4823710000000  0.4721070000000 1.0
C      1  0.4887830000000  0.5356790000000  0.4372750000000 1.0
C      1  0.4953810000000  0.4779700000000  0.5701820000000 1.0
C      1  0.5113590000000  0.4733340000000  0.4359330000000 1.0
C      1  0.5162860000000  0.5595580000000  0.5436380000000 1.0
C      1  0.5441140000000  0.5157320000000  0.5569700000000 1.0
C      1  0.5603520000000  0.5458500000000  0.5171310000000 1.0
C      1  0.4888110000000  0.5670910000000  0.4605570000000 1.0
C      1  0.5078480000000  0.4318770000000  0.4752910000000 1.0
C      1  0.4856920000000  0.4346730000000  0.5289650000000 1.0
C      1  0.4719530000000  0.5124000000000  0.4362670000000 1.0
C      1  0.5360960000000  0.4880270000000  0.4402410000000 1.0
C      1  0.4686320000000  0.4883500000000  0.5677320000000 1.0
C      1  0.4323620000000  0.5296220000000  0.4867560000000 1.0
C      1  0.5635460000000  0.4568640000000  0.4853370000000 1.0
C      1  0.4344790000000  0.4605170000000  0.5126470000000 1.0
C      1  0.5070780000000  0.4663440000000  0.4936310000000 1.0
C      1  0.5062940000000  0.4894700000000  0.4712550000000 1.0
C      1  0.4878460000000  0.4916730000000  0.5346220000000 1.0
C      1  0.4852090000000  0.4704180000000  0.5142670000000 1.0
C      1  0.4961410000000  0.5366810000000  0.4834590000000 1.0
C      1  0.5152180000000  0.5359090000000  0.5067460000000 1.0
C      1  0.4607790000000  0.5044490000000  0.4883080000000 1.0
C      1  0.5350470000000  0.5104510000000  0.5111120000000 1.0
C      1  0.4599260000000  0.4783460000000  0.5024850000000 1.0
C      1  0.5331730000000  0.4909200000000  0.4883720000000 1.0
C      1  0.4852730000000  0.5112010000000  0.4729430000000 1.0
C      1  0.5085490000000  0.5138430000000  0.5315130000000 1.0
END
