TITL C-8702-7969-343 0.000334342335340065 125000 -346.762761768529 0 0 60 (C1) n - 1
REM
REM in /home/bkarasulu/CARBON/AIRSS/Generating-Clusters/EDIP-Nigel-Params/Higher-Symm/Box-15A/Only-C60/SD-CG/HFTN-CG
REM
REM
REM
REM
REM
REM ./C.cell (414f73aa93bd7a1190c7fd0f31ff2f98)
REM
REM compiler GCC version 9.2.1 20190827 (Red Hat 9.2.1-1)
REM options -cpp -mtune=generic -march=x86-64 -g -O0 -fpre-include=/usr/include/finclude/math-vector-fortran.h
REM seed 1869634065 -637175601 -896987864 -607727764 -1979142211 856418234 -2093286409 -380339061 133392825 -1559075356 -959640956 -2027457380 -1388270653 1789011954 -688388292 808192180 -928408663 -709460642 261220499 1052176874 -20567441 -136237855 -888832124 -1123031853 -982794622 470725609 669042433 -1864737455 955794653 -1833746267 -1057287584 1799297300 -1168750519
REM
CELL 1.54180   50.00000   50.00000   50.00000   90.00000   90.00000   90.00000
LATT -1
SFAC C  
C      1  0.4988730000000  0.4759340000000  0.5020700000000 1.0
C      1  0.4809350000000  0.5143140000000  0.5062500000000 1.0
C      1  0.5196750000000  0.5092440000000  0.5041340000000 1.0
C      1  0.4458630000000  0.5128310000000  0.4631150000000 1.0
C      1  0.5389270000000  0.5402280000000  0.4638670000000 1.0
C      1  0.5155520000000  0.4459720000000  0.4628280000000 1.0
C      1  0.5418070000000  0.4733280000000  0.5453440000000 1.0
C      1  0.4542350000000  0.4763760000000  0.5467600000000 1.0
C      1  0.5027520000000  0.5515260000000  0.5466440000000 1.0
C      1  0.4675900000000  0.4504830000000  0.5382940000000 1.0
C      1  0.4735860000000  0.5539200000000  0.5388890000000 1.0
C      1  0.5584810000000  0.4971220000000  0.5380700000000 1.0
C      1  0.5296670000000  0.4666720000000  0.5038140000000 1.0
C      1  0.4591990000000  0.4914730000000  0.5060180000000 1.0
C      1  0.5148740000000  0.5416380000000  0.5055650000000 1.0
C      1  0.5248800000000  0.4999520000000  0.4754730000000 1.0
C      1  0.4866950000000  0.4778020000000  0.4742350000000 1.0
C      1  0.4866220000000  0.5219570000000  0.4776730000000 1.0
C      1  0.4767080000000  0.5184010000000  0.5654020000000 1.0
C      1  0.5270990000000  0.5112650000000  0.5661790000000 1.0
C      1  0.4956810000000  0.4711820000000  0.5658050000000 1.0
C      1  0.5170570000000  0.4606740000000  0.4374180000000 1.0
C      1  0.4576020000000  0.5043500000000  0.4375870000000 1.0
C      1  0.5248800000000  0.5342090000000  0.4385170000000 1.0
C      1  0.5547950000000  0.5309580000000  0.4980400000000 1.0
C      1  0.4990810000000  0.4372460000000  0.4973490000000 1.0
C      1  0.4479850000000  0.5324410000000  0.4967710000000 1.0
C      1  0.5628350000000  0.5027540000000  0.5093310000000 1.0
C      1  0.4700880000000  0.4436750000000  0.5094060000000 1.0
C      1  0.4661590000000  0.5555170000000  0.5100740000000 1.0
C      1  0.5226930000000  0.4824180000000  0.5651010000000 1.0
C      1  0.4730800000000  0.4894390000000  0.5646540000000 1.0
C      1  0.5037610000000  0.5286360000000  0.5643430000000 1.0
C      1  0.5405640000000  0.4461230000000  0.5344100000000 1.0
C      1  0.4327950000000  0.4922030000000  0.5340340000000 1.0
C      1  0.5274580000000  0.5627650000000  0.5353340000000 1.0
C      1  0.4395350000000  0.4914120000000  0.4822590000000 1.0
C      1  0.5233090000000  0.5574510000000  0.4815020000000 1.0
C      1  0.5383330000000  0.4493550000000  0.4809000000000 1.0
C      1  0.5495170000000  0.5504300000000  0.5206650000000 1.0
C      1  0.5207960000000  0.4320140000000  0.5180370000000 1.0
C      1  0.4324130000000  0.5167360000000  0.5179850000000 1.0
C      1  0.5619230000000  0.4660090000000  0.4728470000000 1.0
C      1  0.4393820000000  0.4626840000000  0.4729390000000 1.0
C      1  0.4977980000000  0.5702730000000  0.4721860000000 1.0
C      1  0.5746890000000  0.4796770000000  0.4957800000000 1.0
C      1  0.4444900000000  0.4442420000000  0.4954310000000 1.0
C      1  0.4802210000000  0.5762220000000  0.4950760000000 1.0
C      1  0.5232160000000  0.4904580000000  0.4426520000000 1.0
C      1  0.4801040000000  0.4838770000000  0.4426200000000 1.0
C      1  0.4960340000000  0.5246200000000  0.4439250000000 1.0
C      1  0.4574550000000  0.5363620000000  0.5547640000000 1.0
C      1  0.5518270000000  0.5194180000000  0.5546350000000 1.0
C      1  0.4905070000000  0.4455680000000  0.5545830000000 1.0
C      1  0.4742220000000  0.5231000000000  0.4240690000000 1.0
C      1  0.5326310000000  0.5110990000000  0.4236900000000 1.0
C      1  0.4927730000000  0.4653690000000  0.4232840000000 1.0
C      1  0.4768530000000  0.5485350000000  0.4678440000000 1.0
C      1  0.5533030000000  0.4945960000000  0.4669180000000 1.0
C      1  0.4681340000000  0.4554670000000  0.4666110000000 1.0
END
