TITL C-8701-7969-261 -1.32930413610897e-06 125000 -361.372019762356 0 0 60 (C2) n - 1
REM
REM in /home/bkarasulu/CARBON/AIRSS/Generating-Clusters/EDIP-Nigel-Params/Higher-Symm/Box-15A/Only-C60/SD-CG/HFTN-CG
REM
REM
REM
REM
REM
REM ./C.cell (414f73aa93bd7a1190c7fd0f31ff2f98)
REM
REM compiler GCC version 9.2.1 20190827 (Red Hat 9.2.1-1)
REM options -cpp -mtune=generic -march=x86-64 -g -O0 -fpre-include=/usr/include/finclude/math-vector-fortran.h
REM seed 1614644939 57197852 953847486 -1966244263 996073613 134246508 -1796044945 -1943341954 119697201 1120258864 892698586 206722873 -13667060 -1887617708 -845356804 -2094966184 -693835317 438142442 223929274 976295669 951394268 -1208785791 1188542566 -1107261061 -955279774 1877106818 -1964281701 -1420176201 -2003536258 1127233437 -1704565401 538633280 -2140941905
REM
CELL 1.54180   50.00000   50.00000   50.00000   90.00000   90.00000   90.00000
LATT -1
SFAC C  
C      1  0.5165520000000  0.5156380000000  0.4281710000000 1.0
C      1  0.5055150000000  0.4780460000000  0.4287590000000 1.0
C      1  0.4785740000000  0.5062310000000  0.4288350000000 1.0
C      1  0.5161220000000  0.4845810000000  0.5711670000000 1.0
C      1  0.5052740000000  0.5221730000000  0.5718230000000 1.0
C      1  0.4782420000000  0.4938150000000  0.5712460000000 1.0
C      1  0.4602990000000  0.4850530000000  0.4885190000000 1.0
C      1  0.5077870000000  0.5422480000000  0.4886340000000 1.0
C      1  0.5317470000000  0.4735770000000  0.4883860000000 1.0
C      1  0.4612430000000  0.5142790000000  0.5116160000000 1.0
C      1  0.5069150000000  0.4581490000000  0.5114910000000 1.0
C      1  0.5326920000000  0.5278760000000  0.5113540000000 1.0
C      1  0.4887880000000  0.5610490000000  0.5455760000000 1.0
C      1  0.5570550000000  0.4801010000000  0.5443020000000 1.0
C      1  0.4530740000000  0.4596880000000  0.5450880000000 1.0
C      1  0.4885550000000  0.4391910000000  0.4549300000000 1.0
C      1  0.5584650000000  0.5208130000000  0.4544090000000 1.0
C      1  0.4542260000000  0.5394420000000  0.4556950000000 1.0
C      1  0.4720380000000  0.5672860000000  0.5224910000000 1.0
C      1  0.5716240000000  0.4913000000000  0.5218280000000 1.0
C      1  0.4558060000000  0.4417050000000  0.5222680000000 1.0
C      1  0.4716210000000  0.4325690000000  0.4777540000000 1.0
C      1  0.5722470000000  0.5094340000000  0.4774960000000 1.0
C      1  0.4566410000000  0.5576650000000  0.4781640000000 1.0
C      1  0.5160280000000  0.5661890000000  0.5407210000000 1.0
C      1  0.5489790000000  0.4535850000000  0.5398520000000 1.0
C      1  0.4350880000000  0.4806990000000  0.5399860000000 1.0
C      1  0.5157460000000  0.4341270000000  0.4600290000000 1.0
C      1  0.5492930000000  0.5469730000000  0.4592590000000 1.0
C      1  0.4353040000000  0.5191870000000  0.4601530000000 1.0
C      1  0.4857060000000  0.4684010000000  0.4505270000000 1.0
C      1  0.4806260000000  0.5268420000000  0.4513910000000 1.0
C      1  0.5346400000000  0.5036950000000  0.4499360000000 1.0
C      1  0.4858820000000  0.5318570000000  0.5500580000000 1.0
C      1  0.4797930000000  0.4718310000000  0.5494840000000 1.0
C      1  0.5329410000000  0.4966620000000  0.5486050000000 1.0
C      1  0.5336260000000  0.5443870000000  0.5370730000000 1.0
C      1  0.5213650000000  0.4487270000000  0.5367220000000 1.0
C      1  0.4453070000000  0.5068270000000  0.5365950000000 1.0
C      1  0.5332610000000  0.4560440000000  0.4634120000000 1.0
C      1  0.5216130000000  0.5513080000000  0.4629100000000 1.0
C      1  0.4449090000000  0.4928470000000  0.4632880000000 1.0
C      1  0.4906600000000  0.5198260000000  0.5226680000000 1.0
C      1  0.5186390000000  0.4999200000000  0.5214820000000 1.0
C      1  0.4886910000000  0.4812850000000  0.5219790000000 1.0
C      1  0.4894470000000  0.4808410000000  0.4780270000000 1.0
C      1  0.5218360000000  0.5018220000000  0.4773280000000 1.0
C      1  0.4906050000000  0.5160940000000  0.4785150000000 1.0
C      1  0.5626790000000  0.4815630000000  0.4933290000000 1.0
C      1  0.4521370000000  0.4542600000000  0.4935910000000 1.0
C      1  0.4846330000000  0.5640610000000  0.4937530000000 1.0
C      1  0.5631590000000  0.5187350000000  0.5062320000000 1.0
C      1  0.4526870000000  0.5450570000000  0.5066670000000 1.0
C      1  0.4843320000000  0.4356790000000  0.5064280000000 1.0
C      1  0.5048300000000  0.5413500000000  0.4405900000000 1.0
C      1  0.5339020000000  0.4746870000000  0.4404390000000 1.0
C      1  0.4610510000000  0.4832330000000  0.4403390000000 1.0
C      1  0.5049700000000  0.4579020000000  0.5596710000000 1.0
C      1  0.5334000000000  0.5248790000000  0.5593980000000 1.0
C      1  0.4611340000000  0.5167120000000  0.5595620000000 1.0
END
