TITL C-8702-7969-101 1.06726765885648e-06 125000 -357.351961501212 0 0 60 (D2h) n - 1
REM
REM in /home/bkarasulu/CARBON/AIRSS/Generating-Clusters/EDIP-Nigel-Params/Higher-Symm/Box-15A/Only-C60/SD-CG/HFTN-CG
REM
REM
REM
REM
REM
REM ./C.cell (414f73aa93bd7a1190c7fd0f31ff2f98)
REM
REM compiler GCC version 9.2.1 20190827 (Red Hat 9.2.1-1)
REM options -cpp -mtune=generic -march=x86-64 -g -O0 -fpre-include=/usr/include/finclude/math-vector-fortran.h
REM seed 2049484121 127924672 -699464264 685598502 2070511250 -954718412 -304608940 1344883792 1797190218 -1898858387 1006263609 -586491092 -836146042 1615789154 2042162269 827980013 -1732517568 468781865 1101917509 -1139680015 1792192486 651562360 1344978501 380622879 876794007 483814472 -1861521202 -1853366466 1284863203 -1338043578 -138732973 -1683050929 779430946
REM
CELL 1.54180   50.00000   50.00000   50.00000   90.00000   90.00000   90.00000
LATT -1
SFAC C  
C      1  0.5244970000000  0.5537280000000  0.5545430000000 1.0
C      1  0.4755030000000  0.5537280000000  0.4454570000000 1.0
C      1  0.5244970000000  0.4462720000000  0.5545430000000 1.0
C      1  0.4755030000000  0.4462720000000  0.4454570000000 1.0
C      1  0.5244970000000  0.5537280000000  0.4454570000000 1.0
C      1  0.4755030000000  0.5537280000000  0.5545430000000 1.0
C      1  0.5244970000000  0.4462720000000  0.4454570000000 1.0
C      1  0.4755030000000  0.4462720000000  0.5545430000000 1.0
C      1  0.5315540000000  0.4730440000000  0.4376350000000 1.0
C      1  0.4684460000000  0.4730440000000  0.5623650000000 1.0
C      1  0.5315540000000  0.5269560000000  0.4376350000000 1.0
C      1  0.4684460000000  0.5269560000000  0.5623650000000 1.0
C      1  0.5315540000000  0.4730440000000  0.5623650000000 1.0
C      1  0.4684460000000  0.4730440000000  0.4376350000000 1.0
C      1  0.5315540000000  0.5269560000000  0.5623650000000 1.0
C      1  0.4684460000000  0.5269560000000  0.4376350000000 1.0
C      1  0.4447220000000  0.4850480000000  0.4524560000000 1.0
C      1  0.5552780000000  0.4850490000000  0.5475440000000 1.0
C      1  0.4447220000000  0.5149510000000  0.4524560000000 1.0
C      1  0.5552780000000  0.5149520000000  0.5475440000000 1.0
C      1  0.4447220000000  0.4850490000000  0.5475440000000 1.0
C      1  0.5552780000000  0.4850490000000  0.4524560000000 1.0
C      1  0.4447220000000  0.5149510000000  0.5475440000000 1.0
C      1  0.5552780000000  0.5149510000000  0.4524560000000 1.0
C      1  0.4856930000000  0.5328040000000  0.4144090000000 1.0
C      1  0.5143070000000  0.5328040000000  0.5855910000000 1.0
C      1  0.4856930000000  0.4671960000000  0.4144090000000 1.0
C      1  0.5143070000000  0.4671960000000  0.5855910000000 1.0
C      1  0.4856930000000  0.5328040000000  0.5855910000000 1.0
C      1  0.5143070000000  0.5328040000000  0.4144090000000 1.0
C      1  0.4856930000000  0.4671960000000  0.5855910000000 1.0
C      1  0.5143070000000  0.4671960000000  0.4144090000000 1.0
C      1  0.5568310000000  0.5249620000000  0.4805220000000 1.0
C      1  0.4431690000000  0.5249620000000  0.5194780000000 1.0
C      1  0.5568310000000  0.4750380000000  0.4805220000000 1.0
C      1  0.4431690000000  0.4750380000000  0.5194780000000 1.0
C      1  0.5568310000000  0.5249620000000  0.5194780000000 1.0
C      1  0.4431690000000  0.5249620000000  0.4805220000000 1.0
C      1  0.5568310000000  0.4750380000000  0.5194780000000 1.0
C      1  0.4431690000000  0.4750380000000  0.4805220000000 1.0
C      1  0.4852200000000  0.5512840000000  0.5274950000000 1.0
C      1  0.5147800000000  0.5512840000000  0.4725050000000 1.0
C      1  0.4852200000000  0.4487160000000  0.5274950000000 1.0
C      1  0.5147800000000  0.4487160000000  0.4725050000000 1.0
C      1  0.4852200000000  0.5512840000000  0.4725050000000 1.0
C      1  0.5147800000000  0.5512840000000  0.5274950000000 1.0
C      1  0.4852200000000  0.4487160000000  0.4725050000000 1.0
C      1  0.5147800000000  0.4487160000000  0.5274950000000 1.0
C      1  0.5270780000000  0.4737730000000  0.4849830000000 1.0
C      1  0.4729220000000  0.4737730000000  0.5150170000000 1.0
C      1  0.5270780000000  0.5262270000000  0.4849830000000 1.0
C      1  0.4729220000000  0.5262270000000  0.5150170000000 1.0
C      1  0.5270780000000  0.4737730000000  0.5150170000000 1.0
C      1  0.4729220000000  0.4737730000000  0.4849830000000 1.0
C      1  0.5270780000000  0.5262270000000  0.5150170000000 1.0
C      1  0.4729220000000  0.5262270000000  0.4849830000000 1.0
C      1  0.4856810000000  0.5000000000000  0.5236620000000 1.0
C      1  0.5143190000000  0.5000000000000  0.4763380000000 1.0
C      1  0.4856810000000  0.5000000000000  0.4763380000000 1.0
C      1  0.5143190000000  0.5000000000000  0.5236620000000 1.0
END
