TITL C-8702-7969-225 0.0460513607367292 125000 -357.488536530539 0 0 60 (C1) n - 1
REM
REM in /home/bkarasulu/CARBON/AIRSS/Generating-Clusters/EDIP-Nigel-Params/Higher-Symm/Box-15A/Only-C60/SD-CG/HFTN-CG
REM
REM
REM
REM
REM
REM ./C.cell (414f73aa93bd7a1190c7fd0f31ff2f98)
REM
REM compiler GCC version 9.2.1 20190827 (Red Hat 9.2.1-1)
REM options -cpp -mtune=generic -march=x86-64 -g -O0 -fpre-include=/usr/include/finclude/math-vector-fortran.h
REM seed -807735261 -996701041 -1887935698 1493024638 -661184503 -218131516 1710572801 -748897696 271862523 1600137272 522295194 813094273 -316607634 -1180571456 -843084104 -1793117999 337749454 -282291159 -83272049 -2024202229 -1987774474 -1750258159 838691375 -1011222678 1639165745 -880906296 372215513 308492085 1189065768 249433574 -1547855467 1432491398 162560420
REM
CELL 1.54180   50.00000   50.00000   50.00000   90.00000   90.00000   90.00000
LATT -1
SFAC C  
C      1  0.4756760000000  0.5155920000000  0.5200780000000 1.0
C      1  0.5277010000000  0.4761410000000  0.5177610000000 1.0
C      1  0.5244340000000  0.5229000000000  0.5144970000000 1.0
C      1  0.4754350000000  0.4841740000000  0.5212950000000 1.0
C      1  0.5410860000000  0.5760910000000  0.5002450000000 1.0
C      1  0.4556760000000  0.4467140000000  0.4923410000000 1.0
C      1  0.4539700000000  0.5623390000000  0.5065560000000 1.0
C      1  0.5437190000000  0.4328670000000  0.5037250000000 1.0
C      1  0.5261320000000  0.5403550000000  0.4700420000000 1.0
C      1  0.4862580000000  0.4800420000000  0.4622260000000 1.0
C      1  0.4797220000000  0.5235010000000  0.4877510000000 1.0
C      1  0.5363410000000  0.4739850000000  0.4797870000000 1.0
C      1  0.5349080000000  0.4565010000000  0.4358900000000 1.0
C      1  0.4900790000000  0.5375450000000  0.4388790000000 1.0
C      1  0.5094700000000  0.4585190000000  0.4267200000000 1.0
C      1  0.5181680000000  0.5349650000000  0.4420630000000 1.0
C      1  0.4558470000000  0.5581900000000  0.5348660000000 1.0
C      1  0.5450500000000  0.4353180000000  0.5317340000000 1.0
C      1  0.5487050000000  0.5632220000000  0.5243620000000 1.0
C      1  0.4517300000000  0.4427980000000  0.5205500000000 1.0
C      1  0.5743830000000  0.4782270000000  0.5339640000000 1.0
C      1  0.4260260000000  0.5208320000000  0.5265740000000 1.0
C      1  0.4247750000000  0.4831250000000  0.5208520000000 1.0
C      1  0.5715010000000  0.5167030000000  0.5295570000000 1.0
C      1  0.5297120000000  0.5673230000000  0.5452560000000 1.0
C      1  0.4721530000000  0.4297340000000  0.5354990000000 1.0
C      1  0.4785520000000  0.5675180000000  0.5496860000000 1.0
C      1  0.5207310000000  0.4273580000000  0.5437680000000 1.0
C      1  0.4728380000000  0.5537750000000  0.4871890000000 1.0
C      1  0.5271360000000  0.4459410000000  0.4850960000000 1.0
C      1  0.5208670000000  0.5669560000000  0.4824550000000 1.0
C      1  0.4788790000000  0.4542780000000  0.4778940000000 1.0
C      1  0.5513470000000  0.4718860000000  0.4529560000000 1.0
C      1  0.4703860000000  0.5171370000000  0.4386170000000 1.0
C      1  0.4861150000000  0.4723180000000  0.4335790000000 1.0
C      1  0.5256470000000  0.5058500000000  0.4420100000000 1.0
C      1  0.5485450000000  0.4644400000000  0.5351920000000 1.0
C      1  0.4523370000000  0.5286870000000  0.5354220000000 1.0
C      1  0.4499050000000  0.4711160000000  0.5289150000000 1.0
C      1  0.5520580000000  0.5345100000000  0.5168890000000 1.0
C      1  0.4684220000000  0.5046840000000  0.4657970000000 1.0
C      1  0.5532010000000  0.4980480000000  0.4415490000000 1.0
C      1  0.5834360000000  0.4964260000000  0.5154270000000 1.0
C      1  0.4229220000000  0.5050780000000  0.5040500000000 1.0
C      1  0.4969930000000  0.4421000000000  0.5404880000000 1.0
C      1  0.5043380000000  0.5555160000000  0.5487740000000 1.0
C      1  0.4999910000000  0.4464850000000  0.4960170000000 1.0
C      1  0.4977700000000  0.5623520000000  0.5005860000000 1.0
C      1  0.5017320000000  0.5409930000000  0.5229310000000 1.0
C      1  0.4997060000000  0.4635970000000  0.5202470000000 1.0
C      1  0.5146980000000  0.4930500000000  0.4680530000000 1.0
C      1  0.4614510000000  0.4931700000000  0.3964410000000 1.0
C      1  0.5031740000000  0.5007020000000  0.5513860000000 1.0
C      1  0.5117660000000  0.5187780000000  0.4851050000000 1.0
C      1  0.5226440000000  0.5004470000000  0.5317270000000 1.0
C      1  0.4685780000000  0.5001960000000  0.6218450000000 1.0
C      1  0.4923220000000  0.5003720000000  0.5756420000000 1.0
C      1  0.4773420000000  0.4959170000000  0.4188710000000 1.0
C      1  0.4797350000000  0.5003810000000  0.5988370000000 1.0
C      1  0.4500970000000  0.4920400000000  0.3735190000000 1.0
END
