TITL C-8704-7456-284 -4.7623100258302e-07 125000 -386.206510329501 0 0 60 (D3) n - 1
REM
REM in /home/bkarasulu/CARBON/AIRSS/Generating-Clusters/EDIP-Nigel-Params/Higher-Symm/Box-15A/Only-C60/SD-CG/HFTN-CG
REM
REM
REM
REM
REM
REM ./C.cell (414f73aa93bd7a1190c7fd0f31ff2f98)
REM
REM compiler GCC version 9.2.1 20190827 (Red Hat 9.2.1-1)
REM options -cpp -mtune=generic -march=x86-64 -g -O0 -fpre-include=/usr/include/finclude/math-vector-fortran.h
REM seed -867166563 2109171898 208859669 710450507 1428879656 -523456894 1540567839 1248958690 511931654 1399867525 -1862221899 32735009 -565515223 -818389761 2087013146 -647179211 1723722356 1310027302 452905021 -1407324378 732889300 -335231836 -742203767 -508630020 828616043 1017573863 766269290 -746047760 977608527 -752822471 -1334066959 534367321 -1274221122
REM
CELL 1.54180   50.00000   50.00000   50.00000   90.00000   90.00000   90.00000
LATT -1
SFAC C  
C      1  0.5000600000000  0.5008870000000  0.5277350000000 1.0
C      1  0.5239990000000  0.5007870000000  0.4860910000000 1.0
C      1  0.4759660000000  0.5012120000000  0.4861820000000 1.0
C      1  0.5000540000000  0.4991120000000  0.4722650000000 1.0
C      1  0.5239760000000  0.4987880000000  0.5139180000000 1.0
C      1  0.4759440000000  0.4992130000000  0.5138100000000 1.0
C      1  0.5507990000000  0.4528260000000  0.4781830000000 1.0
C      1  0.4551970000000  0.4537040000000  0.4663660000000 1.0
C      1  0.4927620000000  0.4531320000000  0.5550720000000 1.0
C      1  0.5516190000000  0.5462680000000  0.5218350000000 1.0
C      1  0.4560110000000  0.5470820000000  0.5336180000000 1.0
C      1  0.4936120000000  0.5469890000000  0.4449260000000 1.0
C      1  0.4717890000000  0.4618040000000  0.4400050000000 1.0
C      1  0.4617270000000  0.4615860000000  0.5539790000000 1.0
C      1  0.5654590000000  0.4607980000000  0.5057040000000 1.0
C      1  0.4724490000000  0.5386890000000  0.5599850000000 1.0
C      1  0.4624320000000  0.5390860000000  0.4460080000000 1.0
C      1  0.5661440000000  0.5380370000000  0.4943190000000 1.0
C      1  0.5142080000000  0.4741400000000  0.5634450000000 1.0
C      1  0.5475600000000  0.4741350000000  0.4556720000000 1.0
C      1  0.4375540000000  0.4750410000000  0.4806760000000 1.0
C      1  0.5146860000000  0.5256050000000  0.4365600000000 1.0
C      1  0.5479950000000  0.5250190000000  0.5443450000000 1.0
C      1  0.4379980000000  0.5260600000000  0.5193020000000 1.0
C      1  0.5267290000000  0.5596780000000  0.5130280000000 1.0
C      1  0.4985740000000  0.5600400000000  0.4710390000000 1.0
C      1  0.4762890000000  0.5601150000000  0.5164180000000 1.0
C      1  0.5256730000000  0.4398580000000  0.4869820000000 1.0
C      1  0.4975010000000  0.4399950000000  0.5289600000000 1.0
C      1  0.4752340000000  0.4403140000000  0.4835730000000 1.0
C      1  0.5028040000000  0.5019820000000  0.5568980000000 1.0
C      1  0.5478950000000  0.5018190000000  0.4691470000000 1.0
C      1  0.4493580000000  0.5026790000000  0.4739730000000 1.0
C      1  0.5027890000000  0.4979690000000  0.4431030000000 1.0
C      1  0.5478440000000  0.4973330000000  0.5308700000000 1.0
C      1  0.4493090000000  0.4982190000000  0.5260090000000 1.0
C      1  0.5007010000000  0.4507260000000  0.4433980000000 1.0
C      1  0.4500920000000  0.4509480000000  0.5271160000000 1.0
C      1  0.5478950000000  0.4500770000000  0.5290860000000 1.0
C      1  0.5015530000000  0.5492540000000  0.5566020000000 1.0
C      1  0.4509780000000  0.5499280000000  0.4728660000000 1.0
C      1  0.5487820000000  0.5490670000000  0.4709310000000 1.0
C      1  0.5423740000000  0.4726060000000  0.5493870000000 1.0
C      1  0.5212880000000  0.4730930000000  0.4382920000000 1.0
C      1  0.4356230000000  0.4736520000000  0.5121030000000 1.0
C      1  0.5428700000000  0.5266390000000  0.4506280000000 1.0
C      1  0.5217400000000  0.5265270000000  0.5617160000000 1.0
C      1  0.4361040000000  0.5274840000000  0.4878740000000 1.0
C      1  0.5246750000000  0.5600900000000  0.4839980000000 1.0
C      1  0.4744640000000  0.5605250000000  0.4873370000000 1.0
C      1  0.5024610000000  0.5601640000000  0.5291530000000 1.0
C      1  0.5236020000000  0.4394830000000  0.5160110000000 1.0
C      1  0.4733920000000  0.4399370000000  0.5126540000000 1.0
C      1  0.5014050000000  0.4398010000000  0.4708480000000 1.0
C      1  0.4538290000000  0.4913560000000  0.5555580000000 1.0
C      1  0.5711000000000  0.4904350000000  0.5121020000000 1.0
C      1  0.4748340000000  0.4915020000000  0.4322680000000 1.0
C      1  0.4540090000000  0.5094600000000  0.4444260000000 1.0
C      1  0.5712620000000  0.5083050000000  0.4879230000000 1.0
C      1  0.4749650000000  0.5089420000000  0.5677230000000 1.0
END
