TITL C-8705-8172-50 1.6298962520097e-05 125000 -361.06798014785 0 0 60 (C1) n - 1
REM
REM in /home/bkarasulu/CARBON/AIRSS/Generating-Clusters/EDIP-Nigel-Params/Higher-Symm/Box-15A/Only-C60/SD-CG/HFTN-CG
REM
REM
REM
REM
REM
REM ./C.cell (414f73aa93bd7a1190c7fd0f31ff2f98)
REM
REM compiler GCC version 9.2.1 20190827 (Red Hat 9.2.1-1)
REM options -cpp -mtune=generic -march=x86-64 -g -O0 -fpre-include=/usr/include/finclude/math-vector-fortran.h
REM seed -289355139 -376700967 -742635833 496136457 1928522205 -917566349 2119135299 669873466 1824836298 -1626545544 810876998 -630997117 853403881 1863217293 -993317431 -1629125424 2103635828 -949495042 -1049273101 450963336 -157433841 -483054004 -830471770 123359065 -682371724 1331987330 972805511 535261605 -1294014119 -205213435 -1310120160 -1922332131 1339004690
REM
CELL 1.54180   50.00000   50.00000   50.00000   90.00000   90.00000   90.00000
LATT -1
SFAC C  
C      1  0.4191720000000  0.4984840000000  0.5148440000000 1.0
C      1  0.5453710000000  0.4903070000000  0.5648130000000 1.0
C      1  0.5241680000000  0.4997110000000  0.4284840000000 1.0
C      1  0.5816400000000  0.4954580000000  0.5040900000000 1.0
C      1  0.4611490000000  0.5147970000000  0.5564160000000 1.0
C      1  0.4767820000000  0.5022810000000  0.4410380000000 1.0
C      1  0.5133930000000  0.5462960000000  0.4763740000000 1.0
C      1  0.4715670000000  0.5449570000000  0.5008100000000 1.0
C      1  0.5124750000000  0.5419150000000  0.5244900000000 1.0
C      1  0.4850340000000  0.5376160000000  0.4745270000000 1.0
C      1  0.5280840000000  0.5346070000000  0.5002900000000 1.0
C      1  0.4843800000000  0.5313480000000  0.5229720000000 1.0
C      1  0.4690320000000  0.4633940000000  0.4842370000000 1.0
C      1  0.5043770000000  0.4653010000000  0.5307190000000 1.0
C      1  0.5303440000000  0.4617580000000  0.4748270000000 1.0
C      1  0.5488320000000  0.4591800000000  0.4976780000000 1.0
C      1  0.4777160000000  0.4629090000000  0.5430460000000 1.0
C      1  0.4775070000000  0.4539800000000  0.4576810000000 1.0
C      1  0.4336910000000  0.5320030000000  0.4820660000000 1.0
C      1  0.5174590000000  0.5337560000000  0.5718580000000 1.0
C      1  0.5491340000000  0.5322200000000  0.4542400000000 1.0
C      1  0.5664040000000  0.5333080000000  0.4779670000000 1.0
C      1  0.4927220000000  0.5390720000000  0.5843470000000 1.0
C      1  0.4451030000000  0.5356660000000  0.4550110000000 1.0
C      1  0.4622910000000  0.4459480000000  0.5051560000000 1.0
C      1  0.5244790000000  0.4458060000000  0.5322160000000 1.0
C      1  0.5186260000000  0.4389150000000  0.4637040000000 1.0
C      1  0.5445890000000  0.4380840000000  0.5157860000000 1.0
C      1  0.4631010000000  0.4414960000000  0.5319730000000 1.0
C      1  0.4938300000000  0.4308170000000  0.4562450000000 1.0
C      1  0.5230000000000  0.5056110000000  0.5698170000000 1.0
C      1  0.5485650000000  0.5076310000000  0.4390420000000 1.0
C      1  0.4240590000000  0.5059220000000  0.4887270000000 1.0
C      1  0.4759470000000  0.5163560000000  0.5816500000000 1.0
C      1  0.4479830000000  0.5103460000000  0.4388560000000 1.0
C      1  0.5874330000000  0.5126450000000  0.4818450000000 1.0
C      1  0.5275410000000  0.5500390000000  0.4526090000000 1.0
C      1  0.4450890000000  0.5472920000000  0.5146700000000 1.0
C      1  0.5237700000000  0.5482130000000  0.5491000000000 1.0
C      1  0.4693330000000  0.5507910000000  0.4536010000000 1.0
C      1  0.5555090000000  0.5454950000000  0.5012070000000 1.0
C      1  0.4522370000000  0.5395230000000  0.5428360000000 1.0
C      1  0.4834950000000  0.4738070000000  0.4357520000000 1.0
C      1  0.4629550000000  0.4897960000000  0.5387800000000 1.0
C      1  0.5541910000000  0.4860290000000  0.5103770000000 1.0
C      1  0.5112760000000  0.4756250000000  0.4309940000000 1.0
C      1  0.5529110000000  0.4840280000000  0.5391410000000 1.0
C      1  0.4362730000000  0.4848140000000  0.5301470000000 1.0
C      1  0.4663010000000  0.4932010000000  0.4877240000000 1.0
C      1  0.5065510000000  0.4906300000000  0.5168640000000 1.0
C      1  0.5209720000000  0.4909850000000  0.4687520000000 1.0
C      1  0.5283540000000  0.5020390000000  0.4989880000000 1.0
C      1  0.4797170000000  0.5015920000000  0.5158520000000 1.0
C      1  0.4868450000000  0.5064490000000  0.4687530000000 1.0
C      1  0.5844090000000  0.4887380000000  0.4658750000000 1.0
C      1  0.4298690000000  0.4891610000000  0.4445560000000 1.0
C      1  0.4867280000000  0.4923340000000  0.5920870000000 1.0
C      1  0.4326080000000  0.4852130000000  0.4718160000000 1.0
C      1  0.5599010000000  0.4866660000000  0.4532460000000 1.0
C      1  0.5137260000000  0.4876400000000  0.5884280000000 1.0
END
