TITL C-8703-8361-260 -2.0320495991231e-06 125000 -374.085385651842 0 0 60 (Ci) n - 1
REM
REM in /home/bkarasulu/CARBON/AIRSS/Generating-Clusters/EDIP-Nigel-Params/Higher-Symm/Box-15A/Only-C60/SD-CG/HFTN-CG
REM
REM
REM
REM
REM
REM ./C.cell (414f73aa93bd7a1190c7fd0f31ff2f98)
REM
REM compiler GCC version 9.2.1 20190827 (Red Hat 9.2.1-1)
REM options -cpp -mtune=generic -march=x86-64 -g -O0 -fpre-include=/usr/include/finclude/math-vector-fortran.h
REM seed 274236093 858202893 -1534373146 1318807406 -787361923 -1278796464 1453801624 785518743 722836036 -142281211 1203559420 1878673392 -2000605510 -413550448 -408011824 1697886933 383669819 -1012520435 -1522031195 643377823 649255852 414212342 1879584001 2024815370 1315218599 1894354834 1458489106 1301843775 768998053 -1676304455 1890557935 1154296845 1943685377
REM
CELL 1.54180   50.00000   50.00000   50.00000   90.00000   90.00000   90.00000
LATT -1
SFAC C  
C      1  0.4801030000000  0.4597940000000  0.4474870000000 1.0
C      1  0.5198970000000  0.5402060000000  0.5525130000000 1.0
C      1  0.5296280000000  0.5596920000000  0.4885630000000 1.0
C      1  0.4703720000000  0.4403080000000  0.5114370000000 1.0
C      1  0.5143980000000  0.4505030000000  0.5369500000000 1.0
C      1  0.4856020000000  0.5494970000000  0.4630500000000 1.0
C      1  0.5679400000000  0.4994370000000  0.5290560000000 1.0
C      1  0.4320600000000  0.5005630000000  0.4709440000000 1.0
C      1  0.5079970000000  0.5022620000000  0.5292260000000 1.0
C      1  0.4920030000000  0.4977380000000  0.4707740000000 1.0
C      1  0.5243690000000  0.4928990000000  0.5535730000000 1.0
C      1  0.4756310000000  0.5071010000000  0.4464270000000 1.0
C      1  0.4728530000000  0.5259450000000  0.5554680000000 1.0
C      1  0.5271470000000  0.4740550000000  0.4445320000000 1.0
C      1  0.5559430000000  0.5130960000000  0.5077990000000 1.0
C      1  0.4440570000000  0.4869040000000  0.4922010000000 1.0
C      1  0.4701430000000  0.4816130000000  0.4321750000000 1.0
C      1  0.5298570000000  0.5183870000000  0.5678250000000 1.0
C      1  0.5294190000000  0.5742140000000  0.5145820000000 1.0
C      1  0.4705810000000  0.4257860000000  0.4854180000000 1.0
C      1  0.4364100000000  0.4957140000000  0.5206620000000 1.0
C      1  0.5635900000000  0.5042860000000  0.4793380000000 1.0
C      1  0.4808870000000  0.4629720000000  0.5709760000000 1.0
C      1  0.5191130000000  0.5370280000000  0.4290240000000 1.0
C      1  0.4649830000000  0.4419380000000  0.4628180000000 1.0
C      1  0.5350170000000  0.5580620000000  0.5371820000000 1.0
C      1  0.4586670000000  0.5404730000000  0.4733970000000 1.0
C      1  0.5413330000000  0.4595270000000  0.5266030000000 1.0
C      1  0.5154670000000  0.5148730000000  0.4804680000000 1.0
C      1  0.4845330000000  0.4851270000000  0.5195320000000 1.0
C      1  0.4590580000000  0.4566250000000  0.5511760000000 1.0
C      1  0.5409420000000  0.5433750000000  0.4488240000000 1.0
C      1  0.4586200000000  0.4327450000000  0.5357720000000 1.0
C      1  0.5413800000000  0.5672550000000  0.4642280000000 1.0
C      1  0.4876880000000  0.5441250000000  0.5117630000000 1.0
C      1  0.5123120000000  0.4558750000000  0.4882370000000 1.0
C      1  0.4410280000000  0.5254840000000  0.5200020000000 1.0
C      1  0.5589720000000  0.4745160000000  0.4799980000000 1.0
C      1  0.4683380000000  0.4987040000000  0.5625140000000 1.0
C      1  0.5316620000000  0.5012960000000  0.4374860000000 1.0
C      1  0.4493010000000  0.5179360000000  0.4569510000000 1.0
C      1  0.5506990000000  0.4820640000000  0.5430490000000 1.0
C      1  0.4725520000000  0.4981450000000  0.4947490000000 1.0
C      1  0.5274480000000  0.5018550000000  0.5052510000000 1.0
C      1  0.5053230000000  0.5430110000000  0.4859720000000 1.0
C      1  0.4946770000000  0.4569890000000  0.5140280000000 1.0
C      1  0.4488590000000  0.5358460000000  0.5448060000000 1.0
C      1  0.5511410000000  0.4641540000000  0.4551940000000 1.0
C      1  0.5194930000000  0.4283800000000  0.4824140000000 1.0
C      1  0.4805070000000  0.5716200000000  0.5175860000000 1.0
C      1  0.4639600000000  0.5280610000000  0.5004900000000 1.0
C      1  0.5360400000000  0.4719390000000  0.4995100000000 1.0
C      1  0.4911900000000  0.5343050000000  0.4376690000000 1.0
C      1  0.5088100000000  0.4656950000000  0.5623310000000 1.0
C      1  0.5037970000000  0.5852350000000  0.5176080000000 1.0
C      1  0.4962030000000  0.4147650000000  0.4823920000000 1.0
C      1  0.5398150000000  0.5157110000000  0.4619470000000 1.0
C      1  0.4601850000000  0.4842890000000  0.5380530000000 1.0
C      1  0.4969370000000  0.5293670000000  0.5373700000000 1.0
C      1  0.5030630000000  0.4706330000000  0.4626300000000 1.0
END
