TITL C-8705-8172-167 2.81743332224787e-06 125000 -356.160000651703 0 0 60 (C3) n - 1
REM
REM in /home/bkarasulu/CARBON/AIRSS/Generating-Clusters/EDIP-Nigel-Params/Higher-Symm/Box-15A/Only-C60/SD-CG/HFTN-CG
REM
REM
REM
REM
REM
REM ./C.cell (414f73aa93bd7a1190c7fd0f31ff2f98)
REM
REM compiler GCC version 9.2.1 20190827 (Red Hat 9.2.1-1)
REM options -cpp -mtune=generic -march=x86-64 -g -O0 -fpre-include=/usr/include/finclude/math-vector-fortran.h
REM seed -1215882505 -2096349829 143569652 -1171507302 -1078780838 1046450485 -1154871300 -939485115 668305288 -175971733 -1994352149 1415757782 -2092922782 -1657398990 -1847607654 -1066722024 759945100 659890662 1859929167 372746195 -1429374479 -1427396218 -775170868 1024226446 -549324816 2073605678 368340362 -987451443 -1765525084 -336615450 -1622460868 90404784 760902145
REM
CELL 1.54180   50.00000   50.00000   50.00000   90.00000   90.00000   90.00000
LATT -1
SFAC C  
C      1  0.5136550000000  0.4421800000000  0.4491710000000 1.0
C      1  0.5136560000000  0.4848900000000  0.5754870000000 1.0
C      1  0.5136600000000  0.5729280000000  0.4753420000000 1.0
C      1  0.4826820000000  0.4415820000000  0.4478870000000 1.0
C      1  0.4826830000000  0.4840790000000  0.5766480000000 1.0
C      1  0.4826870000000  0.5743410000000  0.4754650000000 1.0
C      1  0.5136410000000  0.5577620000000  0.4490400000000 1.0
C      1  0.5136390000000  0.5152510000000  0.5755030000000 1.0
C      1  0.5136360000000  0.4269860000000  0.4754560000000 1.0
C      1  0.4827160000000  0.5584520000000  0.4476980000000 1.0
C      1  0.4827140000000  0.5160700000000  0.5767710000000 1.0
C      1  0.4827110000000  0.4254800000000  0.4755310000000 1.0
C      1  0.4867440000000  0.4424990000000  0.5507410000000 1.0
C      1  0.4867490000000  0.5726940000000  0.5244270000000 1.0
C      1  0.4867460000000  0.4848080000000  0.4248320000000 1.0
C      1  0.5185560000000  0.4439940000000  0.5502970000000 1.0
C      1  0.5185610000000  0.5715610000000  0.5233540000000 1.0
C      1  0.5185580000000  0.4844440000000  0.4263490000000 1.0
C      1  0.4867430000000  0.5576680000000  0.5506770000000 1.0
C      1  0.4867380000000  0.4272790000000  0.5246030000000 1.0
C      1  0.4867420000000  0.5150550000000  0.4247190000000 1.0
C      1  0.5185010000000  0.5560030000000  0.5502180000000 1.0
C      1  0.5184960000000  0.4285070000000  0.5233920000000 1.0
C      1  0.5185000000000  0.5154880000000  0.4263900000000 1.0
C      1  0.4708360000000  0.5302570000000  0.5532800000000 1.0
C      1  0.4708370000000  0.5310150000000  0.4471580000000 1.0
C      1  0.4708330000000  0.4387310000000  0.4995620000000 1.0
C      1  0.5281450000000  0.5260880000000  0.5511730000000 1.0
C      1  0.5281460000000  0.5312710000000  0.4518200000000 1.0
C      1  0.5281420000000  0.4426380000000  0.4970080000000 1.0
C      1  0.4710190000000  0.4701860000000  0.5528580000000 1.0
C      1  0.4710190000000  0.4691320000000  0.4477500000000 1.0
C      1  0.4710230000000  0.5606850000000  0.4993910000000 1.0
C      1  0.5285180000000  0.4736840000000  0.5514330000000 1.0
C      1  0.5285180000000  0.4686140000000  0.4514940000000 1.0
C      1  0.5285220000000  0.5576990000000  0.4970730000000 1.0
C      1  0.4441640000000  0.5152690000000  0.5471790000000 1.0
C      1  0.4441650000000  0.5332270000000  0.4631890000000 1.0
C      1  0.4441620000000  0.4515100000000  0.4896310000000 1.0
C      1  0.5544590000000  0.5130900000000  0.5563850000000 1.0
C      1  0.5544600000000  0.5422830000000  0.4604700000000 1.0
C      1  0.5544570000000  0.4446210000000  0.4831460000000 1.0
C      1  0.4454480000000  0.4863950000000  0.5454140000000 1.0
C      1  0.4454480000000  0.4674760000000  0.4655080000000 1.0
C      1  0.4454510000000  0.5461360000000  0.4890770000000 1.0
C      1  0.5553690000000  0.4851570000000  0.5571220000000 1.0
C      1  0.5553680000000  0.4579490000000  0.4585870000000 1.0
C      1  0.5553720000000  0.5568880000000  0.4842920000000 1.0
C      1  0.5205230000000  0.5141430000000  0.5248900000000 1.0
C      1  0.5205230000000  0.5144830000000  0.4753070000000 1.0
C      1  0.5205220000000  0.4713720000000  0.4998040000000 1.0
C      1  0.4764560000000  0.5148980000000  0.5261440000000 1.0
C      1  0.4764560000000  0.5151930000000  0.4740260000000 1.0
C      1  0.4764540000000  0.4699110000000  0.4998300000000 1.0
C      1  0.5228080000000  0.4858830000000  0.5247070000000 1.0
C      1  0.5228080000000  0.4856610000000  0.4754220000000 1.0
C      1  0.5228090000000  0.5284540000000  0.4998720000000 1.0
C      1  0.4790150000000  0.4847800000000  0.5263850000000 1.0
C      1  0.4790150000000  0.4847610000000  0.4736260000000 1.0
C      1  0.4790170000000  0.5304610000000  0.4999890000000 1.0
END
