TITL C-8702-7969-16 -1.58958440124287e-06 125000 -369.910719989337 0 0 60 (C1) n - 1
REM
REM in /home/bkarasulu/CARBON/AIRSS/Generating-Clusters/EDIP-Nigel-Params/Higher-Symm/Box-15A/Only-C60/SD-CG/HFTN-CG
REM
REM
REM
REM
REM
REM ./C.cell (414f73aa93bd7a1190c7fd0f31ff2f98)
REM
REM compiler GCC version 9.2.1 20190827 (Red Hat 9.2.1-1)
REM options -cpp -mtune=generic -march=x86-64 -g -O0 -fpre-include=/usr/include/finclude/math-vector-fortran.h
REM seed -1238215518 -1608823714 -1225819210 356858260 -838258061 -449702397 -986402768 -941194990 -1586220872 424688302 764718431 143963068 -1677608195 2022312474 -460982914 116856786 -26230259 -433439850 -35921930 702291166 -1760171606 -896186984 -1266061993 1498537272 868056561 1517986323 34584847 244327231 -2094132953 379264857 2825904 -1681999887 980254041
REM
CELL 1.54180   50.00000   50.00000   50.00000   90.00000   90.00000   90.00000
LATT -1
SFAC C  
C      1  0.5326260000000  0.4754560000000  0.5513430000000 1.0
C      1  0.5489350000000  0.4998860000000  0.5495220000000 1.0
C      1  0.5326070000000  0.5242770000000  0.5566320000000 1.0
C      1  0.4831170000000  0.5319450000000  0.5592830000000 1.0
C      1  0.4577920000000  0.5156470000000  0.5560150000000 1.0
C      1  0.4570810000000  0.4798420000000  0.5557450000000 1.0
C      1  0.4835150000000  0.4655560000000  0.5569680000000 1.0
C      1  0.4581990000000  0.4472790000000  0.4876980000000 1.0
C      1  0.5111670000000  0.4318840000000  0.4911380000000 1.0
C      1  0.5652240000000  0.4604010000000  0.4868600000000 1.0
C      1  0.5571170000000  0.5453680000000  0.4908400000000 1.0
C      1  0.5115780000000  0.5580420000000  0.4907810000000 1.0
C      1  0.4590410000000  0.5487840000000  0.4872850000000 1.0
C      1  0.4388230000000  0.4991990000000  0.4852370000000 1.0
C      1  0.4849550000000  0.5610280000000  0.4754680000000 1.0
C      1  0.4417180000000  0.5261810000000  0.4716780000000 1.0
C      1  0.4444780000000  0.4725480000000  0.4717360000000 1.0
C      1  0.4853710000000  0.4396590000000  0.4767200000000 1.0
C      1  0.5380020000000  0.4447130000000  0.4767390000000 1.0
C      1  0.5631590000000  0.4887630000000  0.4758370000000 1.0
C      1  0.5376500000000  0.5575320000000  0.4749330000000 1.0
C      1  0.4803860000000  0.4833920000000  0.4825220000000 1.0
C      1  0.4957470000000  0.4739680000000  0.5083460000000 1.0
C      1  0.5254010000000  0.4718940000000  0.5019960000000 1.0
C      1  0.5420310000000  0.4972150000000  0.4964950000000 1.0
C      1  0.5221040000000  0.5197690000000  0.4888680000000 1.0
C      1  0.4985750000000  0.5203130000000  0.5141340000000 1.0
C      1  0.4787170000000  0.5159500000000  0.4921670000000 1.0
C      1  0.5127750000000  0.5613530000000  0.5219660000000 1.0
C      1  0.4599650000000  0.5468830000000  0.5179850000000 1.0
C      1  0.4441680000000  0.4986940000000  0.5134850000000 1.0
C      1  0.4580450000000  0.4490490000000  0.5173810000000 1.0
C      1  0.5119090000000  0.4345840000000  0.5210990000000 1.0
C      1  0.5662140000000  0.4644930000000  0.5163140000000 1.0
C      1  0.5574490000000  0.5339500000000  0.5163950000000 1.0
C      1  0.4442790000000  0.4735340000000  0.5291980000000 1.0
C      1  0.4862160000000  0.4514240000000  0.5285020000000 1.0
C      1  0.5379380000000  0.4577230000000  0.5271940000000 1.0
C      1  0.5610110000000  0.5025310000000  0.5218020000000 1.0
C      1  0.5355690000000  0.5440170000000  0.5336490000000 1.0
C      1  0.4877070000000  0.5441180000000  0.5311680000000 1.0
C      1  0.4455700000000  0.5231990000000  0.5297460000000 1.0
C      1  0.5213260000000  0.5262630000000  0.4369770000000 1.0
C      1  0.4921880000000  0.5329220000000  0.4359240000000 1.0
C      1  0.4694290000000  0.5139620000000  0.4392640000000 1.0
C      1  0.4687060000000  0.4848290000000  0.4367580000000 1.0
C      1  0.4909360000000  0.4675870000000  0.4427530000000 1.0
C      1  0.5186370000000  0.4729010000000  0.4383350000000 1.0
C      1  0.5320470000000  0.4985560000000  0.4406450000000 1.0
C      1  0.4870170000000  0.5582050000000  0.4474710000000 1.0
C      1  0.4442560000000  0.5258480000000  0.4435400000000 1.0
C      1  0.4440260000000  0.4728290000000  0.4427160000000 1.0
C      1  0.4858640000000  0.4405100000000  0.4484390000000 1.0
C      1  0.5333670000000  0.4516910000000  0.4491220000000 1.0
C      1  0.5585470000000  0.4944700000000  0.4486360000000 1.0
C      1  0.5360150000000  0.5474120000000  0.4486200000000 1.0
C      1  0.5048740000000  0.4871230000000  0.5539500000000 1.0
C      1  0.5058900000000  0.5147630000000  0.5680790000000 1.0
C      1  0.5002150000000  0.5065540000000  0.4701570000000 1.0
C      1  0.4971110000000  0.4951620000000  0.5269750000000 1.0
END
