TITL C-8700-8172-82 7.18174662518108e-06 125000 -368.554920972826 0 0 60 (C1) n - 1
REM
REM in /home/bkarasulu/CARBON/AIRSS/Generating-Clusters/EDIP-Nigel-Params/Higher-Symm/Box-15A/Only-C60/SD-CG/HFTN-CG
REM
REM
REM
REM
REM
REM ./C.cell (414f73aa93bd7a1190c7fd0f31ff2f98)
REM
REM compiler GCC version 9.2.1 20190827 (Red Hat 9.2.1-1)
REM options -cpp -mtune=generic -march=x86-64 -g -O0 -fpre-include=/usr/include/finclude/math-vector-fortran.h
REM seed 941546816 1560091899 -1664589437 -1910101138 -538043279 207996492 -1269933382 -78029833 -1941203975 -1987923933 1615752841 243012892 741457641 -1278799539 1682460424 2073930498 -1938509140 1336209073 295420315 2036314162 -88629834 -1654572805 -917642081 1036000516 464138684 1870420490 2124665161 1135898040 1233269508 -655038532 -468583848 -618117119 -1316030873
REM
CELL 1.54180   50.00000   50.00000   50.00000   90.00000   90.00000   90.00000
LATT -1
SFAC C  
C      1  0.4992060000000  0.4936680000000  0.5220220000000 1.0
C      1  0.5204620000000  0.4989200000000  0.5762370000000 1.0
C      1  0.5155910000000  0.4256650000000  0.5002730000000 1.0
C      1  0.4532860000000  0.4796140000000  0.5008320000000 1.0
C      1  0.4560720000000  0.4629380000000  0.4533850000000 1.0
C      1  0.4268830000000  0.4667120000000  0.5262160000000 1.0
C      1  0.5104820000000  0.4835610000000  0.4743520000000 1.0
C      1  0.5186430000000  0.5545820000000  0.4818370000000 1.0
C      1  0.5376870000000  0.5610960000000  0.5218760000000 1.0
C      1  0.4474500000000  0.4518690000000  0.5111240000000 1.0
C      1  0.5210830000000  0.5261370000000  0.4928990000000 1.0
C      1  0.4347900000000  0.5298880000000  0.4826220000000 1.0
C      1  0.5369840000000  0.4386890000000  0.4703960000000 1.0
C      1  0.4743590000000  0.5136530000000  0.5436980000000 1.0
C      1  0.4899620000000  0.5101310000000  0.4413530000000 1.0
C      1  0.5290410000000  0.5400140000000  0.5411330000000 1.0
C      1  0.4422190000000  0.5102150000000  0.4605860000000 1.0
C      1  0.5103310000000  0.5319890000000  0.4392960000000 1.0
C      1  0.5369240000000  0.5226410000000  0.4473450000000 1.0
C      1  0.5479020000000  0.5585040000000  0.4756470000000 1.0
C      1  0.5125580000000  0.5705200000000  0.5075870000000 1.0
C      1  0.5594640000000  0.4850450000000  0.4992160000000 1.0
C      1  0.4741280000000  0.4472220000000  0.5226750000000 1.0
C      1  0.4585310000000  0.4863170000000  0.4715090000000 1.0
C      1  0.5111030000000  0.4722420000000  0.5021590000000 1.0
C      1  0.5580950000000  0.5508330000000  0.5022160000000 1.0
C      1  0.5327960000000  0.4927640000000  0.5500020000000 1.0
C      1  0.5422060000000  0.4374210000000  0.4988180000000 1.0
C      1  0.5021250000000  0.4771760000000  0.5850890000000 1.0
C      1  0.5007720000000  0.5216830000000  0.5770710000000 1.0
C      1  0.5004880000000  0.5535690000000  0.4567460000000 1.0
C      1  0.4930150000000  0.5165940000000  0.4990990000000 1.0
C      1  0.4333700000000  0.5174240000000  0.5100820000000 1.0
C      1  0.4703620000000  0.5497210000000  0.4570130000000 1.0
C      1  0.5321990000000  0.5054880000000  0.4719030000000 1.0
C      1  0.5012800000000  0.4573330000000  0.5627950000000 1.0
C      1  0.4556360000000  0.5280840000000  0.5262310000000 1.0
C      1  0.4741460000000  0.5408740000000  0.5073360000000 1.0
C      1  0.4771350000000  0.4943330000000  0.5832550000000 1.0
C      1  0.4805730000000  0.4645250000000  0.4242300000000 1.0
C      1  0.5445640000000  0.4626310000000  0.4554840000000 1.0
C      1  0.4897000000000  0.5610610000000  0.5223460000000 1.0
C      1  0.5617410000000  0.4815350000000  0.4704700000000 1.0
C      1  0.4863420000000  0.4999390000000  0.4707700000000 1.0
C      1  0.5398620000000  0.4650280000000  0.5109670000000 1.0
C      1  0.5011940000000  0.4844390000000  0.4267360000000 1.0
C      1  0.4192990000000  0.4920940000000  0.5152180000000 1.0
C      1  0.4762940000000  0.4461520000000  0.4445690000000 1.0
C      1  0.5262820000000  0.4460380000000  0.5556260000000 1.0
C      1  0.4955790000000  0.4465070000000  0.5020880000000 1.0
C      1  0.5264490000000  0.4731450000000  0.4354020000000 1.0
C      1  0.4617750000000  0.5243940000000  0.4420650000000 1.0
C      1  0.4571340000000  0.5501630000000  0.4837190000000 1.0
C      1  0.5370770000000  0.5142540000000  0.5320640000000 1.0
C      1  0.5544590000000  0.5136340000000  0.5085410000000 1.0
C      1  0.5391160000000  0.4659960000000  0.5411340000000 1.0
C      1  0.4642160000000  0.4890010000000  0.5573620000000 1.0
C      1  0.5548820000000  0.5436970000000  0.4530190000000 1.0
C      1  0.5014170000000  0.5403490000000  0.5527550000000 1.0
C      1  0.4832800000000  0.4702870000000  0.5415060000000 1.0
END
