TITL C-8703-8361-148 0.0101169815890317 125000 -354.22762197653 0 0 60 (Cs) n - 1
REM
REM in /home/bkarasulu/CARBON/AIRSS/Generating-Clusters/EDIP-Nigel-Params/Higher-Symm/Box-15A/Only-C60/SD-CG/HFTN-CG
REM
REM
REM
REM
REM
REM ./C.cell (414f73aa93bd7a1190c7fd0f31ff2f98)
REM
REM compiler GCC version 9.2.1 20190827 (Red Hat 9.2.1-1)
REM options -cpp -mtune=generic -march=x86-64 -g -O0 -fpre-include=/usr/include/finclude/math-vector-fortran.h
REM seed 1716021537 -1336274279 562514042 1407844442 -2103906601 -1816113097 1977966142 -781504968 144551634 -101092611 -1487718303 -1126945262 -257501149 -1579023980 343553451 -1283338511 1332544995 1339583237 1928079703 1055562544 -1379268127 839572837 2011956173 -734328944 -889307453 1952833814 1602020581 -1689757680 403764597 -125765503 -79332242 447443658 -276262132
REM
CELL 1.54180   50.00000   50.00000   50.00000   90.00000   90.00000   90.00000
LATT -1
SFAC C  
C      1  0.5265940000000  0.6060050000000  0.5132430000000 1.0
C      1  0.4730260000000  0.6052500000000  0.4866070000000 1.0
C      1  0.5266050000000  0.6059880000000  0.4866480000000 1.0
C      1  0.4730150000000  0.6052670000000  0.5132400000000 1.0
C      1  0.5308070000000  0.5443550000000  0.4847470000000 1.0
C      1  0.4715910000000  0.5445060000000  0.5152580000000 1.0
C      1  0.5307940000000  0.5443740000000  0.5152230000000 1.0
C      1  0.4716040000000  0.5444870000000  0.4846630000000 1.0
C      1  0.6115680000000  0.4264000000000  0.5431660000000 1.0
C      1  0.3876440000000  0.4270550000000  0.4569010000000 1.0
C      1  0.6116040000000  0.4263460000000  0.4570190000000 1.0
C      1  0.3876080000000  0.4271080000000  0.5430950000000 1.0
C      1  0.4852960000000  0.5920350000000  0.4655610000000 1.0
C      1  0.5146440000000  0.5917000000000  0.5337410000000 1.0
C      1  0.4852670000000  0.5920780000000  0.5343130000000 1.0
C      1  0.5146720000000  0.5916580000000  0.4661570000000 1.0
C      1  0.5139300000000  0.5503830000000  0.5652290000000 1.0
C      1  0.4823410000000  0.5505920000000  0.4332550000000 1.0
C      1  0.5139850000000  0.5503020000000  0.4347210000000 1.0
C      1  0.4822850000000  0.5506750000000  0.5666680000000 1.0
C      1  0.5213320000000  0.5024830000000  0.4563210000000 1.0
C      1  0.4824350000000  0.5028950000000  0.5434420000000 1.0
C      1  0.5212960000000  0.5025370000000  0.5436940000000 1.0
C      1  0.4824710000000  0.5028410000000  0.4565390000000 1.0
C      1  0.4058880000000  0.4326620000000  0.4777850000000 1.0
C      1  0.5933540000000  0.4321670000000  0.5222990000000 1.0
C      1  0.4058700000000  0.4326890000000  0.5222190000000 1.0
C      1  0.5933730000000  0.4321390000000  0.4778640000000 1.0
C      1  0.4727140000000  0.5145080000000  0.5169060000000 1.0
C      1  0.5300460000000  0.5144210000000  0.4829450000000 1.0
C      1  0.4727290000000  0.5144870000000  0.4830530000000 1.0
C      1  0.5300320000000  0.5144420000000  0.5170620000000 1.0
C      1  0.4822010000000  0.5200730000000  0.5695220000000 1.0
C      1  0.5139990000000  0.5199240000000  0.4318780000000 1.0
C      1  0.4822590000000  0.5199860000000  0.4304380000000 1.0
C      1  0.5139420000000  0.5200080000000  0.5681090000000 1.0
C      1  0.5661830000000  0.4401650000000  0.4686300000000 1.0
C      1  0.4331410000000  0.4404760000000  0.5314130000000 1.0
C      1  0.5661570000000  0.4402040000000  0.5315000000000 1.0
C      1  0.4331670000000  0.4404370000000  0.4686050000000 1.0
C      1  0.5863780000000  0.4338500000000  0.4467930000000 1.0
C      1  0.4129140000000  0.4343910000000  0.5532820000000 1.0
C      1  0.5863340000000  0.4339160000000  0.5533610000000 1.0
C      1  0.4129590000000  0.4343250000000  0.4467260000000 1.0
C      1  0.4805630000000  0.4545080000000  0.5254490000000 1.0
C      1  0.5188870000000  0.4546610000000  0.4747780000000 1.0
C      1  0.4805840000000  0.4544760000000  0.4745910000000 1.0
C      1  0.5188660000000  0.4546930000000  0.5252940000000 1.0
C      1  0.4849780000000  0.4725460000000  0.4525570000000 1.0
C      1  0.5144590000000  0.4729590000000  0.5470790000000 1.0
C      1  0.4849380000000  0.4726050000000  0.5474650000000 1.0
C      1  0.5144980000000  0.4729000000000  0.4529670000000 1.0
C      1  0.4553800000000  0.4475530000000  0.4857310000000 1.0
C      1  0.5440510000000  0.4475130000000  0.5143160000000 1.0
C      1  0.4553680000000  0.4475710000000  0.5142970000000 1.0
C      1  0.5440630000000  0.4474950000000  0.4857860000000 1.0
C      1  0.4824130000000  0.5617750000000  0.4622030000000 1.0
C      1  0.5212410000000  0.5621910000000  0.5377320000000 1.0
C      1  0.4823810000000  0.5618220000000  0.5377050000000 1.0
C      1  0.5212730000000  0.5621440000000  0.4622090000000 1.0
END
