TITL C-8705-8172-292 1.37755379285556e-05 125000 -367.357088405055 0 0 60 (C1) n - 1
REM
REM in /home/bkarasulu/CARBON/AIRSS/Generating-Clusters/EDIP-Nigel-Params/Higher-Symm/Box-15A/Only-C60/SD-CG/HFTN-CG
REM
REM
REM
REM
REM
REM ./C.cell (414f73aa93bd7a1190c7fd0f31ff2f98)
REM
REM compiler GCC version 9.2.1 20190827 (Red Hat 9.2.1-1)
REM options -cpp -mtune=generic -march=x86-64 -g -O0 -fpre-include=/usr/include/finclude/math-vector-fortran.h
REM seed -2037851949 446445990 249848117 -1622140931 -1657356270 1217648336 607209978 -1608393264 445663451 973617253 -1991053981 -711645907 1692683967 1808491668 1903388105 -188378964 -1914038191 -1591365959 185460843 1464371312 530053443 -846363220 734236056 1256239851 169875511 -1437892698 336717172 -2050784693 359040169 1021315431 1904706169 1384058706 1547675334
REM
CELL 1.54180   50.00000   50.00000   50.00000   90.00000   90.00000   90.00000
LATT -1
SFAC C  
C      1  0.5184270000000  0.4343230000000  0.4800050000000 1.0
C      1  0.5080530000000  0.4346270000000  0.5269370000000 1.0
C      1  0.4726010000000  0.4343920000000  0.4944970000000 1.0
C      1  0.5133260000000  0.5360290000000  0.4324430000000 1.0
C      1  0.5517250000000  0.5365040000000  0.5448180000000 1.0
C      1  0.4353040000000  0.5367720000000  0.5216760000000 1.0
C      1  0.4959650000000  0.5101140000000  0.5684550000000 1.0
C      1  0.4465090000000  0.5090020000000  0.4630420000000 1.0
C      1  0.5615530000000  0.5093970000000  0.4687610000000 1.0
C      1  0.4360430000000  0.4753620000000  0.5248400000000 1.0
C      1  0.5104110000000  0.4745330000000  0.4328560000000 1.0
C      1  0.5528550000000  0.4750210000000  0.5431560000000 1.0
C      1  0.4659610000000  0.5254040000000  0.4203860000000 1.0
C      1  0.5857910000000  0.5247550000000  0.5096490000000 1.0
C      1  0.4485890000000  0.5256850000000  0.5689220000000 1.0
C      1  0.4870770000000  0.5459680000000  0.4240760000000 1.0
C      1  0.5722360000000  0.5456320000000  0.5259700000000 1.0
C      1  0.4413110000000  0.5462900000000  0.5487410000000 1.0
C      1  0.5404630000000  0.5001770000000  0.4530420000000 1.0
C      1  0.5205310000000  0.5007120000000  0.5593320000000 1.0
C      1  0.4382730000000  0.5001730000000  0.4881530000000 1.0
C      1  0.4838500000000  0.4358200000000  0.4476860000000 1.0
C      1  0.5533590000000  0.4362300000000  0.5130140000000 1.0
C      1  0.4620050000000  0.4367940000000  0.5406630000000 1.0
C      1  0.5295490000000  0.5538720000000  0.5462510000000 1.0
C      1  0.4451180000000  0.5539640000000  0.5016000000000 1.0
C      1  0.5261690000000  0.5530760000000  0.4508800000000 1.0
C      1  0.5095600000000  0.4651380000000  0.5278220000000 1.0
C      1  0.4708930000000  0.4648980000000  0.4950020000000 1.0
C      1  0.5185650000000  0.4648410000000  0.4780480000000 1.0
C      1  0.5292960000000  0.5376530000000  0.4998670000000 1.0
C      1  0.4854530000000  0.5380520000000  0.5247880000000 1.0
C      1  0.4857230000000  0.5380130000000  0.4743800000000 1.0
C      1  0.5280020000000  0.4250480000000  0.5068890000000 1.0
C      1  0.4799800000000  0.4252690000000  0.5219500000000 1.0
C      1  0.4910680000000  0.4248230000000  0.4728340000000 1.0
C      1  0.5239370000000  0.4722440000000  0.5534990000000 1.0
C      1  0.4414140000000  0.4718100000000  0.4947470000000 1.0
C      1  0.5336720000000  0.4718000000000  0.4528550000000 1.0
C      1  0.4468800000000  0.5088530000000  0.5177030000000 1.0
C      1  0.5104580000000  0.5082390000000  0.4447580000000 1.0
C      1  0.5421770000000  0.5086500000000  0.5369930000000 1.0
C      1  0.4701630000000  0.5497830000000  0.4504040000000 1.0
C      1  0.5579440000000  0.5492700000000  0.4981220000000 1.0
C      1  0.4725920000000  0.5499360000000  0.5503300000000 1.0
C      1  0.4724000000000  0.5478590000000  0.4999740000000 1.0
C      1  0.5139080000000  0.5472140000000  0.4753760000000 1.0
C      1  0.5144040000000  0.5476300000000  0.5235290000000 1.0
C      1  0.5286290000000  0.4764270000000  0.5053410000000 1.0
C      1  0.4809130000000  0.4766640000000  0.5225930000000 1.0
C      1  0.4895330000000  0.4762630000000  0.4725530000000 1.0
C      1  0.4483240000000  0.5288170000000  0.4437690000000 1.0
C      1  0.5754670000000  0.5290340000000  0.4823190000000 1.0
C      1  0.4774180000000  0.5299140000000  0.5735950000000 1.0
C      1  0.4771800000000  0.5077520000000  0.5225050000000 1.0
C      1  0.4906410000000  0.5074470000000  0.4683980000000 1.0
C      1  0.5311170000000  0.5074600000000  0.5083820000000 1.0
C      1  0.5545550000000  0.4641490000000  0.5154190000000 1.0
C      1  0.4592510000000  0.4647130000000  0.5402440000000 1.0
C      1  0.4854260000000  0.4637090000000  0.4451610000000 1.0
END
