TITL C-8703-8361-289 -1.68577543130554e-06 125000 -351.899976610489 0 0 60 (C1) n - 1
REM
REM in /home/bkarasulu/CARBON/AIRSS/Generating-Clusters/EDIP-Nigel-Params/Higher-Symm/Box-15A/Only-C60/SD-CG/HFTN-CG
REM
REM
REM
REM
REM
REM ./C.cell (414f73aa93bd7a1190c7fd0f31ff2f98)
REM
REM compiler GCC version 9.2.1 20190827 (Red Hat 9.2.1-1)
REM options -cpp -mtune=generic -march=x86-64 -g -O0 -fpre-include=/usr/include/finclude/math-vector-fortran.h
REM seed -186427583 568721583 626199791 -741160480 1111639313 -262643899 41565551 -1871480485 -67273345 -1334608561 1442040834 765489164 508956261 -49687468 1515790957 451792223 -706106955 765801273 -1823134115 919428997 961675796 -1557691782 1027555926 1402706688 -2142256472 -151169203 -12455506 -1256873714 731790922 670983607 -1904752937 18451441 -1548792560
REM
CELL 1.54180   50.00000   50.00000   50.00000   90.00000   90.00000   90.00000
LATT -1
SFAC C  
C      1  0.4841420000000  0.5698770000000  0.4995400000000 1.0
C      1  0.5717840000000  0.4794070000000  0.4985550000000 1.0
C      1  0.4492570000000  0.4469030000000  0.5013530000000 1.0
C      1  0.5450350000000  0.4667930000000  0.4598360000000 1.0
C      1  0.4468740000000  0.4746600000000  0.4612770000000 1.0
C      1  0.5063400000000  0.5560030000000  0.4607740000000 1.0
C      1  0.4877180000000  0.5259070000000  0.4340650000000 1.0
C      1  0.5280560000000  0.4956420000000  0.4307480000000 1.0
C      1  0.4801480000000  0.4762690000000  0.4318350000000 1.0
C      1  0.4754170000000  0.5283880000000  0.5215160000000 1.0
C      1  0.5448700000000  0.5169790000000  0.5174820000000 1.0
C      1  0.5000130000000  0.4604280000000  0.5245870000000 1.0
C      1  0.5204110000000  0.5170820000000  0.4755760000000 1.0
C      1  0.5052700000000  0.4846610000000  0.4669940000000 1.0
C      1  0.4787240000000  0.5108270000000  0.4745910000000 1.0
C      1  0.5060920000000  0.4291670000000  0.5473630000000 1.0
C      1  0.4377330000000  0.5278470000000  0.5381410000000 1.0
C      1  0.5540130000000  0.5411820000000  0.5461130000000 1.0
C      1  0.5015880000000  0.4767980000000  0.5744910000000 1.0
C      1  0.4760140000000  0.5082530000000  0.5723930000000 1.0
C      1  0.5143020000000  0.5127440000000  0.5663870000000 1.0
C      1  0.5100350000000  0.4722200000000  0.4291840000000 1.0
C      1  0.4693930000000  0.5032110000000  0.4322260000000 1.0
C      1  0.5161520000000  0.5220920000000  0.4317400000000 1.0
C      1  0.4431870000000  0.5007440000000  0.5327560000000 1.0
C      1  0.5283890000000  0.5526060000000  0.5369040000000 1.0
C      1  0.5267370000000  0.4493390000000  0.5388250000000 1.0
C      1  0.4331920000000  0.5178350000000  0.4885430000000 1.0
C      1  0.5553180000000  0.5465840000000  0.4953900000000 1.0
C      1  0.5134720000000  0.4360310000000  0.4911010000000 1.0
C      1  0.4811480000000  0.5499750000000  0.4480440000000 1.0
C      1  0.5525720000000  0.4895930000000  0.4442850000000 1.0
C      1  0.4628640000000  0.4576680000000  0.4448190000000 1.0
C      1  0.5140410000000  0.5167200000000  0.5076010000000 1.0
C      1  0.5024940000000  0.4878680000000  0.5113570000000 1.0
C      1  0.4771760000000  0.5019250000000  0.5045790000000 1.0
C      1  0.5308280000000  0.5575460000000  0.5069020000000 1.0
C      1  0.5365070000000  0.4455510000000  0.5056020000000 1.0
C      1  0.4344920000000  0.4941130000000  0.5048050000000 1.0
C      1  0.4754810000000  0.4387670000000  0.4971410000000 1.0
C      1  0.4651660000000  0.5500580000000  0.5039950000000 1.0
C      1  0.5709030000000  0.5039910000000  0.4870120000000 1.0
C      1  0.4779230000000  0.5375650000000  0.5644670000000 1.0
C      1  0.5360430000000  0.4974320000000  0.5557340000000 1.0
C      1  0.4772090000000  0.4654360000000  0.5617170000000 1.0
C      1  0.5045200000000  0.5346700000000  0.5465560000000 1.0
C      1  0.5286550000000  0.4701640000000  0.5616620000000 1.0
C      1  0.4621640000000  0.4896020000000  0.5533040000000 1.0
C      1  0.5504600000000  0.4647430000000  0.4885590000000 1.0
C      1  0.4474840000000  0.4724280000000  0.4903560000000 1.0
C      1  0.5066960000000  0.5567010000000  0.4899640000000 1.0
C      1  0.5593110000000  0.5137610000000  0.5529370000000 1.0
C      1  0.4795200000000  0.4392470000000  0.5497250000000 1.0
C      1  0.4538730000000  0.5452580000000  0.5518970000000 1.0
C      1  0.5225480000000  0.4538040000000  0.4480510000000 1.0
C      1  0.4485510000000  0.5019390000000  0.4522250000000 1.0
C      1  0.5277700000000  0.5428610000000  0.4472040000000 1.0
C      1  0.4560520000000  0.5339280000000  0.4810530000000 1.0
C      1  0.5537690000000  0.5241200000000  0.4766120000000 1.0
C      1  0.4941010000000  0.4560860000000  0.4815510000000 1.0
END
