TITL C-8703-8361-126 5.62605104861742e-06 125000 -365.140648734845 0 0 60 (C1) n - 1
REM
REM in /home/bkarasulu/CARBON/AIRSS/Generating-Clusters/EDIP-Nigel-Params/Higher-Symm/Box-15A/Only-C60/SD-CG/HFTN-CG
REM
REM
REM
REM
REM
REM ./C.cell (414f73aa93bd7a1190c7fd0f31ff2f98)
REM
REM compiler GCC version 9.2.1 20190827 (Red Hat 9.2.1-1)
REM options -cpp -mtune=generic -march=x86-64 -g -O0 -fpre-include=/usr/include/finclude/math-vector-fortran.h
REM seed 579026181 -617388013 -1354157960 -1564653029 1676403872 -2090860063 1749836587 1937346457 -1939751700 779624321 -1167345283 461556339 1066123067 1644919084 1791804177 -996100458 887590810 -2023812124 423657663 1686968431 -63255161 -1272473613 -736677868 -3254988 -555334617 -1309515152 -200551882 -1054153630 1249205447 -169048547 -1558789973 615338503 1154932490
REM
CELL 1.54180   50.00000   50.00000   50.00000   90.00000   90.00000   90.00000
LATT -1
SFAC C  
C      1  0.5087660000000  0.4378020000000  0.5226350000000 1.0
C      1  0.4999710000000  0.5791630000000  0.4719360000000 1.0
C      1  0.5144350000000  0.4487800000000  0.4948070000000 1.0
C      1  0.4483470000000  0.4803040000000  0.4564430000000 1.0
C      1  0.5662520000000  0.4661290000000  0.5098200000000 1.0
C      1  0.5400960000000  0.4677160000000  0.4935810000000 1.0
C      1  0.4887490000000  0.4674010000000  0.5546030000000 1.0
C      1  0.5003540000000  0.5158190000000  0.5600840000000 1.0
C      1  0.4797520000000  0.4312980000000  0.5250440000000 1.0
C      1  0.5291930000000  0.5594570000000  0.4553690000000 1.0
C      1  0.5303670000000  0.5090860000000  0.4461810000000 1.0
C      1  0.5516070000000  0.5500040000000  0.5211830000000 1.0
C      1  0.4683320000000  0.4513700000000  0.5422610000000 1.0
C      1  0.4887350000000  0.4675680000000  0.4959930000000 1.0
C      1  0.5119340000000  0.5392450000000  0.5487820000000 1.0
C      1  0.4770470000000  0.5624400000000  0.4761090000000 1.0
C      1  0.5270210000000  0.5731250000000  0.4815290000000 1.0
C      1  0.4812630000000  0.4952340000000  0.5583120000000 1.0
C      1  0.4820120000000  0.5015940000000  0.4375150000000 1.0
C      1  0.5297030000000  0.4995630000000  0.5323230000000 1.0
C      1  0.5015890000000  0.5479780000000  0.5212850000000 1.0
C      1  0.5139360000000  0.4596670000000  0.5419710000000 1.0
C      1  0.4916970000000  0.5229040000000  0.5071030000000 1.0
C      1  0.5483310000000  0.4696070000000  0.4642640000000 1.0
C      1  0.4585120000000  0.5068090000000  0.4673630000000 1.0
C      1  0.4388500000000  0.5498840000000  0.5054090000000 1.0
C      1  0.4290550000000  0.4805480000000  0.5003440000000 1.0
C      1  0.5589800000000  0.5097230000000  0.4915070000000 1.0
C      1  0.5783830000000  0.4927220000000  0.5052270000000 1.0
C      1  0.5437870000000  0.4891710000000  0.5671240000000 1.0
C      1  0.5406900000000  0.4629590000000  0.5544580000000 1.0
C      1  0.5244000000000  0.4606560000000  0.4478220000000 1.0
C      1  0.4444680000000  0.5306620000000  0.4578370000000 1.0
C      1  0.5548220000000  0.4991080000000  0.4606670000000 1.0
C      1  0.4276770000000  0.4995530000000  0.5213490000000 1.0
C      1  0.5518250000000  0.5099470000000  0.5482070000000 1.0
C      1  0.4669690000000  0.5474450000000  0.4530710000000 1.0
C      1  0.4408230000000  0.4854910000000  0.5433370000000 1.0
C      1  0.4443440000000  0.5238690000000  0.5149650000000 1.0
C      1  0.4679580000000  0.4814100000000  0.5185310000000 1.0
C      1  0.5268740000000  0.5553900000000  0.5056210000000 1.0
C      1  0.4658810000000  0.5091910000000  0.5009510000000 1.0
C      1  0.4802420000000  0.5683600000000  0.5221040000000 1.0
C      1  0.5701810000000  0.5310190000000  0.5084250000000 1.0
C      1  0.4790550000000  0.4431110000000  0.4574080000000 1.0
C      1  0.5157560000000  0.5340500000000  0.4523420000000 1.0
C      1  0.5090080000000  0.4874970000000  0.4484060000000 1.0
C      1  0.4688490000000  0.4655450000000  0.4411820000000 1.0
C      1  0.4413780000000  0.4648260000000  0.4803920000000 1.0
C      1  0.4673730000000  0.4491420000000  0.4842850000000 1.0
C      1  0.5329960000000  0.4977480000000  0.5029870000000 1.0
C      1  0.5104820000000  0.5108350000000  0.4897000000000 1.0
C      1  0.4540060000000  0.5001060000000  0.5634220000000 1.0
C      1  0.5426210000000  0.5387160000000  0.5481540000000 1.0
C      1  0.5618010000000  0.4582320000000  0.5362730000000 1.0
C      1  0.4657790000000  0.4256960000000  0.5012000000000 1.0
C      1  0.5087220000000  0.4402380000000  0.4631480000000 1.0
C      1  0.4975750000000  0.4893270000000  0.4766100000000 1.0
C      1  0.4886140000000  0.5317790000000  0.4401880000000 1.0
C      1  0.4617780000000  0.5659830000000  0.5008510000000 1.0
END
