TITL C-8703-8361-348 -2.27362947732221e-05 125000 -337.973424802435 0 0 60 (Ci) n - 1
REM
REM in /home/bkarasulu/CARBON/AIRSS/Generating-Clusters/EDIP-Nigel-Params/Higher-Symm/Box-15A/Only-C60/SD-CG/HFTN-CG
REM
REM
REM
REM
REM
REM ./C.cell (414f73aa93bd7a1190c7fd0f31ff2f98)
REM
REM compiler GCC version 9.2.1 20190827 (Red Hat 9.2.1-1)
REM options -cpp -mtune=generic -march=x86-64 -g -O0 -fpre-include=/usr/include/finclude/math-vector-fortran.h
REM seed 992217139 -1161395995 868019642 -101583571 1404514390 1487384767 1998611344 771507068 -1033256279 -822663919 1511069728 1271194957 1794788621 894242074 847599714 1937407961 -136498180 -970119330 -1078783630 -684141056 983573379 1216425199 1026253627 57267869 -41348408 1472103098 -1171685583 1040004176 -484727426 1894070343 643306256 -1999645190 1649536378
REM
CELL 1.54180   50.00000   50.00000   50.00000   90.00000   90.00000   90.00000
LATT -1
SFAC C  
C      1  0.4907690000000  0.4859610000000  0.4616660000000 1.0
C      1  0.5093020000000  0.4817080000000  0.5385360000000 1.0
C      1  0.4906980000000  0.5182920000000  0.4614640000000 1.0
C      1  0.5092310000000  0.5140390000000  0.5383340000000 1.0
C      1  0.5168350000000  0.4753960000000  0.4543610000000 1.0
C      1  0.4838670000000  0.4721420000000  0.5499880000000 1.0
C      1  0.5161330000000  0.5278580000000  0.4500120000000 1.0
C      1  0.4831650000000  0.5246040000000  0.5456390000000 1.0
C      1  0.4806160000000  0.4225190000000  0.5236220000000 1.0
C      1  0.5182470000000  0.4200240000000  0.4803900000000 1.0
C      1  0.4817530000000  0.5799760000000  0.5196100000000 1.0
C      1  0.5193840000000  0.5774810000000  0.4763780000000 1.0
C      1  0.5102750000000  0.4209600000000  0.5181560000000 1.0
C      1  0.4883140000000  0.4221970000000  0.4856750000000 1.0
C      1  0.5116860000000  0.5778030000000  0.5143250000000 1.0
C      1  0.4897250000000  0.5790400000000  0.4818440000000 1.0
C      1  0.4785160000000  0.4699500000000  0.4843220000000 1.0
C      1  0.5177000000000  0.4662050000000  0.5045970000000 1.0
C      1  0.4823000000000  0.5337950000000  0.4954030000000 1.0
C      1  0.5214840000000  0.5300500000000  0.5156780000000 1.0
C      1  0.5309680000000  0.4663820000000  0.4783820000000 1.0
C      1  0.4748440000000  0.4689760000000  0.5135960000000 1.0
C      1  0.5251560000000  0.5310240000000  0.4864040000000 1.0
C      1  0.4690320000000  0.5336180000000  0.5216180000000 1.0
C      1  0.5283900000000  0.5120680000000  0.5626570000000 1.0
C      1  0.4697970000000  0.5168080000000  0.4381990000000 1.0
C      1  0.5302030000000  0.4831920000000  0.5618010000000 1.0
C      1  0.4716100000000  0.4879320000000  0.4373430000000 1.0
C      1  0.4700030000000  0.5110050000000  0.5660030000000 1.0
C      1  0.5280120000000  0.5152390000000  0.4281920000000 1.0
C      1  0.4719880000000  0.4847610000000  0.5718080000000 1.0
C      1  0.5299970000000  0.4889950000000  0.4339970000000 1.0
C      1  0.5651950000000  0.4448010000000  0.4601530000000 1.0
C      1  0.4404190000000  0.4533470000000  0.5398270000000 1.0
C      1  0.5595810000000  0.5466530000000  0.4601730000000 1.0
C      1  0.4348050000000  0.5551990000000  0.5398470000000 1.0
C      1  0.4449280000000  0.4468020000000  0.4664220000000 1.0
C      1  0.5520380000000  0.4539050000000  0.5343050000000 1.0
C      1  0.4479620000000  0.5460950000000  0.4656950000000 1.0
C      1  0.5550720000000  0.5531980000000  0.5335780000000 1.0
C      1  0.4241890000000  0.5306110000000  0.5443480000000 1.0
C      1  0.5720930000000  0.5229360000000  0.4558960000000 1.0
C      1  0.4279070000000  0.4770640000000  0.5441040000000 1.0
C      1  0.5758110000000  0.4693890000000  0.4556520000000 1.0
C      1  0.5691360000000  0.5302570000000  0.5368410000000 1.0
C      1  0.4338010000000  0.5230990000000  0.4634360000000 1.0
C      1  0.5661990000000  0.4769010000000  0.5365640000000 1.0
C      1  0.4308640000000  0.4697430000000  0.4631590000000 1.0
C      1  0.4595940000000  0.5606610000000  0.5270480000000 1.0
C      1  0.5382880000000  0.5548660000000  0.4770030000000 1.0
C      1  0.4617120000000  0.4451340000000  0.5229970000000 1.0
C      1  0.5404060000000  0.4393390000000  0.4729520000000 1.0
C      1  0.5275450000000  0.5557690000000  0.5281500000000 1.0
C      1  0.4722130000000  0.5545990000000  0.4779190000000 1.0
C      1  0.5277870000000  0.4454010000000  0.5220810000000 1.0
C      1  0.4724550000000  0.4442310000000  0.4718500000000 1.0
C      1  0.4232360000000  0.5036250000000  0.5445930000000 1.0
C      1  0.5767640000000  0.4963750000000  0.4554070000000 1.0
C      1  0.5713610000000  0.5033810000000  0.5370500000000 1.0
C      1  0.4286390000000  0.4966190000000  0.4629500000000 1.0
END
