TITL C-8700-8172-79 9.37537846105602e-07 125000 -357.067378648921 0 0 60 (C1) n - 1
REM
REM in /home/bkarasulu/CARBON/AIRSS/Generating-Clusters/EDIP-Nigel-Params/Higher-Symm/Box-15A/Only-C60/SD-CG/HFTN-CG
REM
REM
REM
REM
REM
REM ./C.cell (414f73aa93bd7a1190c7fd0f31ff2f98)
REM
REM compiler GCC version 9.2.1 20190827 (Red Hat 9.2.1-1)
REM options -cpp -mtune=generic -march=x86-64 -g -O0 -fpre-include=/usr/include/finclude/math-vector-fortran.h
REM seed -1347736356 1101279897 -1387506472 1795655020 1592061890 -165688552 2141755744 1704353705 698589695 2084686270 -1314316290 933380205 1731845833 2089606268 -115353164 1145938572 27730955 -658334884 146046921 -39283657 -1083464260 186030415 634625646 -1085374132 -1509816109 -737833330 -1278690275 584239185 -1913542750 671480352 1494493713 -576292488 -266925700
REM
CELL 1.54180   50.00000   50.00000   50.00000   90.00000   90.00000   90.00000
LATT -1
SFAC C  
C      1  0.4591470000000  0.5009000000000  0.5574580000000 1.0
C      1  0.4811480000000  0.5482280000000  0.5667260000000 1.0
C      1  0.5424970000000  0.5324160000000  0.5679870000000 1.0
C      1  0.5376060000000  0.4751240000000  0.5659280000000 1.0
C      1  0.4857120000000  0.4450530000000  0.5728000000000 1.0
C      1  0.5404500000000  0.5025990000000  0.5574460000000 1.0
C      1  0.5196530000000  0.5504060000000  0.5670850000000 1.0
C      1  0.4579390000000  0.5308350000000  0.5682380000000 1.0
C      1  0.4622280000000  0.4729490000000  0.5643110000000 1.0
C      1  0.5142390000000  0.4465850000000  0.5741240000000 1.0
C      1  0.5164250000000  0.5661740000000  0.5428940000000 1.0
C      1  0.5635770000000  0.5073370000000  0.5388700000000 1.0
C      1  0.5297680000000  0.4335740000000  0.5534590000000 1.0
C      1  0.4549640000000  0.4543940000000  0.5426710000000 1.0
C      1  0.4350600000000  0.5363970000000  0.5479720000000 1.0
C      1  0.4849890000000  0.5644420000000  0.5429480000000 1.0
C      1  0.4363940000000  0.5065820000000  0.5387540000000 1.0
C      1  0.4724050000000  0.4323200000000  0.5500870000000 1.0
C      1  0.5459570000000  0.4561730000000  0.5451100000000 1.0
C      1  0.5652820000000  0.5372800000000  0.5471250000000 1.0
C      1  0.5412670000000  0.5285920000000  0.4577600000000 1.0
C      1  0.5385600000000  0.4717700000000  0.4583180000000 1.0
C      1  0.4858380000000  0.4539850000000  0.4623940000000 1.0
C      1  0.4604910000000  0.5004640000000  0.4691550000000 1.0
C      1  0.4868230000000  0.5439000000000  0.4669480000000 1.0
C      1  0.4609490000000  0.5289400000000  0.4589470000000 1.0
C      1  0.4606710000000  0.4709490000000  0.4582500000000 1.0
C      1  0.5141870000000  0.4603760000000  0.4726500000000 1.0
C      1  0.5480710000000  0.4999520000000  0.4660360000000 1.0
C      1  0.5149940000000  0.5380670000000  0.4709230000000 1.0
C      1  0.4804230000000  0.4346230000000  0.5123910000000 1.0
C      1  0.4440580000000  0.5125130000000  0.5120680000000 1.0
C      1  0.4862790000000  0.5496800000000  0.5155260000000 1.0
C      1  0.5664820000000  0.5395020000000  0.5086710000000 1.0
C      1  0.5363710000000  0.4597810000000  0.5180040000000 1.0
C      1  0.5192650000000  0.4359190000000  0.5161070000000 1.0
C      1  0.5579610000000  0.5123820000000  0.5114940000000 1.0
C      1  0.5168780000000  0.5502690000000  0.5162580000000 1.0
C      1  0.4364280000000  0.5399330000000  0.5096570000000 1.0
C      1  0.4637470000000  0.4589130000000  0.5153850000000 1.0
C      1  0.5114930000000  0.5386420000000  0.4192400000000 1.0
C      1  0.5387240000000  0.5008510000000  0.4193050000000 1.0
C      1  0.5090610000000  0.4640210000000  0.4181520000000 1.0
C      1  0.4598880000000  0.4756720000000  0.4281200000000 1.0
C      1  0.4612800000000  0.5274410000000  0.4289010000000 1.0
C      1  0.4846990000000  0.5374330000000  0.4178200000000 1.0
C      1  0.4539180000000  0.5018800000000  0.4207240000000 1.0
C      1  0.4823500000000  0.4650510000000  0.4157170000000 1.0
C      1  0.5319540000000  0.4755770000000  0.4287580000000 1.0
C      1  0.5351770000000  0.5270120000000  0.4280030000000 1.0
C      1  0.4467390000000  0.5509370000000  0.4851240000000 1.0
C      1  0.5275210000000  0.5554400000000  0.4896410000000 1.0
C      1  0.5602740000000  0.4931180000000  0.4905910000000 1.0
C      1  0.5158130000000  0.4331470000000  0.4868590000000 1.0
C      1  0.4463780000000  0.4662700000000  0.4936550000000 1.0
C      1  0.5556020000000  0.5504500000000  0.4844620000000 1.0
C      1  0.4747750000000  0.5575120000000  0.4894880000000 1.0
C      1  0.4419490000000  0.4944830000000  0.4900140000000 1.0
C      1  0.4850660000000  0.4287140000000  0.4819200000000 1.0
C      1  0.5521570000000  0.4660690000000  0.4945720000000 1.0
END
