TITL C-8700-8172-78 3.12985231815631e-07 125000 -363.737835778762 0 0 60 (Cs) n - 1
REM
REM in /home/bkarasulu/CARBON/AIRSS/Generating-Clusters/EDIP-Nigel-Params/Higher-Symm/Box-15A/Only-C60/SD-CG/HFTN-CG
REM
REM
REM
REM
REM
REM ./C.cell (414f73aa93bd7a1190c7fd0f31ff2f98)
REM
REM compiler GCC version 9.2.1 20190827 (Red Hat 9.2.1-1)
REM options -cpp -mtune=generic -march=x86-64 -g -O0 -fpre-include=/usr/include/finclude/math-vector-fortran.h
REM seed -1984011697 -1631910149 893184099 -532719268 969784610 -647780400 965384078 1162825816 -88361746 1336330380 -1012764836 1021937608 850142085 -282415345 498867181 -242948625 1881928420 -632842795 -1898638491 2099952272 -283289797 574774761 -1188436580 310175733 1228548375 1659595340 -1393479431 750711885 -971825515 -1861417496 -299466336 -1484469837 537587446
REM
CELL 1.54180   50.00000   50.00000   50.00000   90.00000   90.00000   90.00000
LATT -1
SFAC C  
C      1  0.4801890000000  0.5552230000000  0.4754870000000 1.0
C      1  0.4816140000000  0.4461060000000  0.5265610000000 1.0
C      1  0.5165480000000  0.5558370000000  0.5236340000000 1.0
C      1  0.5177200000000  0.4448360000000  0.4751760000000 1.0
C      1  0.4817850000000  0.4741250000000  0.5542840000000 1.0
C      1  0.4799990000000  0.5240480000000  0.4446420000000 1.0
C      1  0.5182110000000  0.5252970000000  0.5547880000000 1.0
C      1  0.5160590000000  0.4756740000000  0.4443170000000 1.0
C      1  0.5201270000000  0.4816030000000  0.5740220000000 1.0
C      1  0.5140010000000  0.5230590000000  0.4278190000000 1.0
C      1  0.4825510000000  0.4812050000000  0.4247970000000 1.0
C      1  0.4862390000000  0.5183590000000  0.5733320000000 1.0
C      1  0.5142980000000  0.5718440000000  0.4760900000000 1.0
C      1  0.5197880000000  0.4260540000000  0.5190600000000 1.0
C      1  0.4856780000000  0.4265640000000  0.4825060000000 1.0
C      1  0.4831270000000  0.5755040000000  0.5181010000000 1.0
C      1  0.5130260000000  0.4698300000000  0.4910640000000 1.0
C      1  0.5127610000000  0.5303450000000  0.5079590000000 1.0
C      1  0.4870030000000  0.4703370000000  0.5084860000000 1.0
C      1  0.4864970000000  0.5303190000000  0.4910720000000 1.0
C      1  0.5125250000000  0.4916410000000  0.4696640000000 1.0
C      1  0.5132660000000  0.5091750000000  0.5299930000000 1.0
C      1  0.4863650000000  0.5086890000000  0.4696710000000 1.0
C      1  0.4871350000000  0.4919090000000  0.5298300000000 1.0
C      1  0.5388920000000  0.4927140000000  0.5293770000000 1.0
C      1  0.5381550000000  0.5078750000000  0.4694480000000 1.0
C      1  0.4617180000000  0.4910940000000  0.4702120000000 1.0
C      1  0.4620550000000  0.5085140000000  0.5304530000000 1.0
C      1  0.5382920000000  0.5302310000000  0.4915680000000 1.0
C      1  0.5387560000000  0.4704630000000  0.5073600000000 1.0
C      1  0.4618180000000  0.4696930000000  0.4920420000000 1.0
C      1  0.4619560000000  0.5301160000000  0.5088220000000 1.0
C      1  0.5461160000000  0.4464760000000  0.4664190000000 1.0
C      1  0.5467390000000  0.5551410000000  0.5307930000000 1.0
C      1  0.4512240000000  0.4466550000000  0.5320420000000 1.0
C      1  0.4513570000000  0.5529400000000  0.4685160000000 1.0
C      1  0.5462090000000  0.4683370000000  0.4449050000000 1.0
C      1  0.5466490000000  0.5338610000000  0.5528820000000 1.0
C      1  0.4512250000000  0.5312200000000  0.4470260000000 1.0
C      1  0.4513590000000  0.4688270000000  0.5539800000000 1.0
C      1  0.5606780000000  0.4661650000000  0.4864040000000 1.0
C      1  0.5608320000000  0.5350510000000  0.5112880000000 1.0
C      1  0.4389320000000  0.4669030000000  0.5118590000000 1.0
C      1  0.4385990000000  0.5330060000000  0.4891890000000 1.0
C      1  0.5605450000000  0.4879660000000  0.4647000000000 1.0
C      1  0.5609680000000  0.5135790000000  0.5333170000000 1.0
C      1  0.4384640000000  0.5108390000000  0.4672560000000 1.0
C      1  0.4390660000000  0.4888700000000  0.5335930000000 1.0
C      1  0.4664340000000  0.4718070000000  0.4472520000000 1.0
C      1  0.4656560000000  0.5267220000000  0.5542230000000 1.0
C      1  0.5365690000000  0.4732190000000  0.5525990000000 1.0
C      1  0.5354150000000  0.5291450000000  0.4470500000000 1.0
C      1  0.4651610000000  0.4457090000000  0.4740660000000 1.0
C      1  0.4669310000000  0.5532500000000  0.5278340000000 1.0
C      1  0.5355570000000  0.5524190000000  0.4700780000000 1.0
C      1  0.5364120000000  0.4474630000000  0.5271160000000 1.0
C      1  0.4931350000000  0.4897030000000  0.5768890000000 1.0
C      1  0.5091860000000  0.4944980000000  0.4213220000000 1.0
C      1  0.4927290000000  0.4232680000000  0.5111560000000 1.0
C      1  0.5097000000000  0.5786740000000  0.5046080000000 1.0
END
