TITL C-8706-7473-251 -2.84118135438301e-06 125000 -342.362631535173 0 0 60 (C1) n - 1
REM
REM in /home/bkarasulu/CARBON/AIRSS/Generating-Clusters/EDIP-Nigel-Params/Higher-Symm/Box-15A/Only-C60/SD-CG/HFTN-CG
REM
REM
REM
REM
REM
REM ./C.cell (414f73aa93bd7a1190c7fd0f31ff2f98)
REM
REM compiler GCC version 9.2.1 20190827 (Red Hat 9.2.1-1)
REM options -cpp -mtune=generic -march=x86-64 -g -O0 -fpre-include=/usr/include/finclude/math-vector-fortran.h
REM seed -381871897 -915017082 207854946 -1265283296 -1782223032 1533103735 1430456212 -1407360605 -467921316 2110922648 1230407468 -747038241 -183239119 -620062154 1226314965 -394678025 1582173322 1576512730 171460069 905156176 -1133881936 479068341 1984402051 -1267444004 -643483299 -123203968 487285542 763248030 -57436858 1181081669 -1245102112 -1550885249 613009531
REM
CELL 1.54180   50.00000   50.00000   50.00000   90.00000   90.00000   90.00000
LATT -1
SFAC C  
C      1  0.4575410000000  0.4510320000000  0.5312040000000 1.0
C      1  0.4502460000000  0.5426050000000  0.5322180000000 1.0
C      1  0.5424690000000  0.5501100000000  0.5319370000000 1.0
C      1  0.5491920000000  0.4579070000000  0.5308170000000 1.0
C      1  0.4566330000000  0.4502820000000  0.4690560000000 1.0
C      1  0.4499120000000  0.5405590000000  0.4704010000000 1.0
C      1  0.5429410000000  0.5506280000000  0.4696030000000 1.0
C      1  0.5495690000000  0.4579260000000  0.4700600000000 1.0
C      1  0.5461470000000  0.5263030000000  0.4850140000000 1.0
C      1  0.5249940000000  0.4533730000000  0.4846110000000 1.0
C      1  0.4542580000000  0.4747920000000  0.4845030000000 1.0
C      1  0.4741140000000  0.5453130000000  0.4855690000000 1.0
C      1  0.5447160000000  0.5258680000000  0.5160210000000 1.0
C      1  0.5246310000000  0.4557010000000  0.5154090000000 1.0
C      1  0.4554320000000  0.4753480000000  0.5153980000000 1.0
C      1  0.4745590000000  0.5448470000000  0.5164060000000 1.0
C      1  0.4634730000000  0.4776170000000  0.4301910000000 1.0
C      1  0.4776460000000  0.5366600000000  0.4313160000000 1.0
C      1  0.5358190000000  0.5216900000000  0.4314390000000 1.0
C      1  0.5231050000000  0.4630050000000  0.4300600000000 1.0
C      1  0.4577660000000  0.4819890000000  0.5687540000000 1.0
C      1  0.4821600000000  0.5425910000000  0.5691210000000 1.0
C      1  0.5430610000000  0.5180750000000  0.5687090000000 1.0
C      1  0.5182950000000  0.4573130000000  0.5684030000000 1.0
C      1  0.4703700000000  0.5012370000000  0.4464170000000 1.0
C      1  0.5018440000000  0.5324410000000  0.4476860000000 1.0
C      1  0.5292720000000  0.4976850000000  0.4473030000000 1.0
C      1  0.4978340000000  0.4662830000000  0.4451660000000 1.0
C      1  0.4697720000000  0.5066680000000  0.5608670000000 1.0
C      1  0.5069600000000  0.5306080000000  0.5615230000000 1.0
C      1  0.5308460000000  0.4933780000000  0.5611260000000 1.0
C      1  0.4936270000000  0.4694160000000  0.5605930000000 1.0
C      1  0.4882820000000  0.5708410000000  0.5205220000000 1.0
C      1  0.5704900000000  0.5119030000000  0.5206770000000 1.0
C      1  0.5106740000000  0.4300330000000  0.5208580000000 1.0
C      1  0.4298090000000  0.4894820000000  0.5200320000000 1.0
C      1  0.4846420000000  0.5727130000000  0.4821570000000 1.0
C      1  0.5731230000000  0.5145800000000  0.4822720000000 1.0
C      1  0.5155030000000  0.4254700000000  0.4828470000000 1.0
C      1  0.4277010000000  0.4873640000000  0.4814520000000 1.0
C      1  0.4955260000000  0.5230990000000  0.4765590000000 1.0
C      1  0.5238750000000  0.5064310000000  0.4766180000000 1.0
C      1  0.5032930000000  0.4735590000000  0.4736110000000 1.0
C      1  0.4782110000000  0.4938780000000  0.4753860000000 1.0
C      1  0.4920300000000  0.5210640000000  0.5208950000000 1.0
C      1  0.5206230000000  0.5084330000000  0.5207150000000 1.0
C      1  0.5077720000000  0.4799460000000  0.5198510000000 1.0
C      1  0.4795130000000  0.4926080000000  0.5198950000000 1.0
C      1  0.5330420000000  0.5432320000000  0.5577740000000 1.0
C      1  0.5432380000000  0.4672390000000  0.5569090000000 1.0
C      1  0.4673930000000  0.4570400000000  0.5570650000000 1.0
C      1  0.4570810000000  0.5327620000000  0.5578830000000 1.0
C      1  0.5294770000000  0.5466560000000  0.4451740000000 1.0
C      1  0.5461140000000  0.4716190000000  0.4457050000000 1.0
C      1  0.4693960000000  0.4527290000000  0.4439710000000 1.0
C      1  0.4539810000000  0.5277040000000  0.4456380000000 1.0
C      1  0.5852330000000  0.4990820000000  0.5013760000000 1.0
C      1  0.4149110000000  0.5020680000000  0.5007330000000 1.0
C      1  0.5002500000000  0.5855780000000  0.5006760000000 1.0
C      1  0.4996110000000  0.4136310000000  0.5017910000000 1.0
END
