TITL C-8705-8172-48 7.06383925589733e-06 125000 -368.80378592011 0 0 60 (C1) n - 1
REM
REM in /home/bkarasulu/CARBON/AIRSS/Generating-Clusters/EDIP-Nigel-Params/Higher-Symm/Box-15A/Only-C60/SD-CG/HFTN-CG
REM
REM
REM
REM
REM
REM ./C.cell (414f73aa93bd7a1190c7fd0f31ff2f98)
REM
REM compiler GCC version 9.2.1 20190827 (Red Hat 9.2.1-1)
REM options -cpp -mtune=generic -march=x86-64 -g -O0 -fpre-include=/usr/include/finclude/math-vector-fortran.h
REM seed -1115892113 494470399 -1527229656 -1694276126 -901580626 -174037483 -1305803524 168656171 -1629809589 -590739180 -700321999 -1018506678 -918151530 1946598336 -1813574976 1308408334 -364268398 -1231937747 -1045934206 1931754277 597996891 1279868257 1630869646 1730356711 -1386146572 331836712 635239340 -266172624 1864486574 -1626563702 166053978 -1996523490 -1631429012
REM
CELL 1.54180   50.00000   50.00000   50.00000   90.00000   90.00000   90.00000
LATT -1
SFAC C  
C      1  0.5388560000000  0.4555600000000  0.4397220000000 1.0
C      1  0.5486510000000  0.5197460000000  0.4387560000000 1.0
C      1  0.4952400000000  0.5383460000000  0.4457010000000 1.0
C      1  0.4427230000000  0.5146710000000  0.4378210000000 1.0
C      1  0.4770970000000  0.4562920000000  0.4359840000000 1.0
C      1  0.4800650000000  0.4573620000000  0.5571220000000 1.0
C      1  0.5389200000000  0.4544230000000  0.5620170000000 1.0
C      1  0.5582150000000  0.5245220000000  0.5546640000000 1.0
C      1  0.4953140000000  0.5600670000000  0.5583590000000 1.0
C      1  0.4385020000000  0.5160060000000  0.5542440000000 1.0
C      1  0.5559390000000  0.4717520000000  0.4552790000000 1.0
C      1  0.5453550000000  0.5430220000000  0.4555920000000 1.0
C      1  0.4722380000000  0.5467810000000  0.4613910000000 1.0
C      1  0.4413960000000  0.4907770000000  0.4529640000000 1.0
C      1  0.4888100000000  0.4341310000000  0.4497100000000 1.0
C      1  0.4727270000000  0.5477590000000  0.5174370000000 1.0
C      1  0.4566790000000  0.4922990000000  0.5159230000000 1.0
C      1  0.5014490000000  0.4485350000000  0.5147960000000 1.0
C      1  0.5446620000000  0.4782780000000  0.5183580000000 1.0
C      1  0.5297600000000  0.5384960000000  0.5175440000000 1.0
C      1  0.5589370000000  0.5385280000000  0.4815550000000 1.0
C      1  0.4763340000000  0.5698770000000  0.4790710000000 1.0
C      1  0.4284570000000  0.4971220000000  0.4792230000000 1.0
C      1  0.4808130000000  0.4350730000000  0.4771340000000 1.0
C      1  0.5634540000000  0.4589470000000  0.4813160000000 1.0
C      1  0.5394680000000  0.5441900000000  0.5460770000000 1.0
C      1  0.4708700000000  0.5521940000000  0.5475650000000 1.0
C      1  0.4473810000000  0.4902760000000  0.5452780000000 1.0
C      1  0.4977040000000  0.4417470000000  0.5436250000000 1.0
C      1  0.5466550000000  0.4777440000000  0.5489050000000 1.0
C      1  0.4633100000000  0.5279190000000  0.5619040000000 1.0
C      1  0.4700030000000  0.4824230000000  0.5619940000000 1.0
C      1  0.5205200000000  0.4353400000000  0.5581040000000 1.0
C      1  0.5408500000000  0.5032220000000  0.5624840000000 1.0
C      1  0.5172000000000  0.5438850000000  0.5651700000000 1.0
C      1  0.5432970000000  0.4987920000000  0.4589690000000 1.0
C      1  0.5167390000000  0.5503820000000  0.4612410000000 1.0
C      1  0.4458260000000  0.5346220000000  0.4581840000000 1.0
C      1  0.4657470000000  0.4742720000000  0.4557680000000 1.0
C      1  0.5127980000000  0.4641310000000  0.4482100000000 1.0
C      1  0.4607900000000  0.5705620000000  0.5030780000000 1.0
C      1  0.4346840000000  0.4802280000000  0.5010020000000 1.0
C      1  0.4944180000000  0.4249700000000  0.4992040000000 1.0
C      1  0.5705370000000  0.4754120000000  0.5040380000000 1.0
C      1  0.5493470000000  0.5538020000000  0.5027920000000 1.0
C      1  0.5303020000000  0.4533070000000  0.5098870000000 1.0
C      1  0.5304590000000  0.5047990000000  0.5060930000000 1.0
C      1  0.5028850000000  0.5505160000000  0.5095200000000 1.0
C      1  0.4580380000000  0.5219540000000  0.5067410000000 1.0
C      1  0.4847400000000  0.4756730000000  0.5035670000000 1.0
C      1  0.5514740000000  0.5102230000000  0.4849910000000 1.0
C      1  0.5052250000000  0.5661580000000  0.4844270000000 1.0
C      1  0.4373200000000  0.5246080000000  0.4851390000000 1.0
C      1  0.4695550000000  0.4612200000000  0.4816060000000 1.0
C      1  0.5437490000000  0.4398870000000  0.4890120000000 1.0
C      1  0.5131790000000  0.4925440000000  0.4603640000000 1.0
C      1  0.5054730000000  0.4949710000000  0.4904740000000 1.0
C      1  0.4993370000000  0.5109500000000  0.4425100000000 1.0
C      1  0.4845340000000  0.5076060000000  0.5627660000000 1.0
C      1  0.5129070000000  0.5147300000000  0.5661210000000 1.0
END
