TITL C-8703-8361-118 6.72628112533557e-07 125000 -365.921771979919 0 0 60 (C1) n - 1
REM
REM in /home/bkarasulu/CARBON/AIRSS/Generating-Clusters/EDIP-Nigel-Params/Higher-Symm/Box-15A/Only-C60/SD-CG/HFTN-CG
REM
REM
REM
REM
REM
REM ./C.cell (414f73aa93bd7a1190c7fd0f31ff2f98)
REM
REM compiler GCC version 9.2.1 20190827 (Red Hat 9.2.1-1)
REM options -cpp -mtune=generic -march=x86-64 -g -O0 -fpre-include=/usr/include/finclude/math-vector-fortran.h
REM seed 811186680 557306628 -1159592461 -50046558 1956075009 -706657082 822846296 2011101302 -573222899 1949798689 -1327689068 -224706765 816464060 -2008062918 -10137920 -1923777863 -1607633068 275370516 1820615531 950912235 -1330060237 -535576416 -982187885 416108311 1646608589 2049573279 1013039625 -631103111 1826483913 569239077 1894149822 -212105569 491816262
REM
CELL 1.54180   50.00000   50.00000   50.00000   90.00000   90.00000   90.00000
LATT -1
SFAC C  
C      1  0.4733590000000  0.5216890000000  0.5597250000000 1.0
C      1  0.5514240000000  0.4979820000000  0.5670110000000 1.0
C      1  0.5299400000000  0.4847020000000  0.5559920000000 1.0
C      1  0.4743080000000  0.4915300000000  0.5642410000000 1.0
C      1  0.4702070000000  0.5618390000000  0.5115830000000 1.0
C      1  0.5715390000000  0.5273060000000  0.5023500000000 1.0
C      1  0.5194070000000  0.4326870000000  0.5131470000000 1.0
C      1  0.4345450000000  0.4744090000000  0.5085650000000 1.0
C      1  0.4204670000000  0.5109080000000  0.4613020000000 1.0
C      1  0.5049520000000  0.5767290000000  0.4763160000000 1.0
C      1  0.5778340000000  0.4850010000000  0.4804540000000 1.0
C      1  0.5016620000000  0.4189770000000  0.4678260000000 1.0
C      1  0.4567480000000  0.5110090000000  0.4955710000000 1.0
C      1  0.5161210000000  0.5394030000000  0.5043890000000 1.0
C      1  0.5340640000000  0.4855800000000  0.5063390000000 1.0
C      1  0.4812310000000  0.4519080000000  0.5004740000000 1.0
C      1  0.5094840000000  0.4421710000000  0.5398710000000 1.0
C      1  0.4386590000000  0.4868640000000  0.5380980000000 1.0
C      1  0.4602500000000  0.5610650000000  0.5440110000000 1.0
C      1  0.5771900000000  0.5100950000000  0.5270570000000 1.0
C      1  0.4872390000000  0.4856600000000  0.5358510000000 1.0
C      1  0.4972850000000  0.5365430000000  0.5512530000000 1.0
C      1  0.5146310000000  0.5251730000000  0.5310900000000 1.0
C      1  0.5168040000000  0.4957560000000  0.5319730000000 1.0
C      1  0.4958790000000  0.4599660000000  0.4529980000000 1.0
C      1  0.4639560000000  0.5005220000000  0.4506160000000 1.0
C      1  0.5027460000000  0.5389030000000  0.4542850000000 1.0
C      1  0.5414820000000  0.4985150000000  0.4559280000000 1.0
C      1  0.5485120000000  0.5491090000000  0.4692100000000 1.0
C      1  0.5412440000000  0.4503860000000  0.4715170000000 1.0
C      1  0.4494320000000  0.4521220000000  0.4655970000000 1.0
C      1  0.4538210000000  0.5474240000000  0.4653180000000 1.0
C      1  0.5456660000000  0.5439220000000  0.4981510000000 1.0
C      1  0.5304990000000  0.4565010000000  0.4985500000000 1.0
C      1  0.4515750000000  0.4523980000000  0.4953960000000 1.0
C      1  0.4549760000000  0.5410610000000  0.4943950000000 1.0
C      1  0.4793670000000  0.5572710000000  0.4553740000000 1.0
C      1  0.5600550000000  0.5231670000000  0.4560970000000 1.0
C      1  0.5184730000000  0.4399190000000  0.4536770000000 1.0
C      1  0.4419130000000  0.4794770000000  0.4542110000000 1.0
C      1  0.4483220000000  0.4794590000000  0.5638490000000 1.0
C      1  0.4504630000000  0.5387060000000  0.5589990000000 1.0
C      1  0.5670610000000  0.5139550000000  0.5524360000000 1.0
C      1  0.5272370000000  0.4571090000000  0.5560560000000 1.0
C      1  0.4738420000000  0.4412270000000  0.4533390000000 1.0
C      1  0.4441570000000  0.5234270000000  0.4490390000000 1.0
C      1  0.5233100000000  0.5607410000000  0.4572160000000 1.0
C      1  0.5580730000000  0.4739250000000  0.4601040000000 1.0
C      1  0.4889570000000  0.5631930000000  0.5454340000000 1.0
C      1  0.5647250000000  0.4891910000000  0.5081650000000 1.0
C      1  0.4863140000000  0.4573110000000  0.5294830000000 1.0
C      1  0.4614060000000  0.4998300000000  0.5230140000000 1.0
C      1  0.4307570000000  0.4975770000000  0.4865670000000 1.0
C      1  0.5002480000000  0.5650750000000  0.5028020000000 1.0
C      1  0.5808290000000  0.5144510000000  0.4759060000000 1.0
C      1  0.4951770000000  0.4238780000000  0.4961220000000 1.0
C      1  0.4787490000000  0.5018370000000  0.4767870000000 1.0
C      1  0.5040320000000  0.5221400000000  0.4796640000000 1.0
C      1  0.5229660000000  0.4978310000000  0.4795830000000 1.0
C      1  0.4944300000000  0.4734870000000  0.4796240000000 1.0
END
