TITL C-8700-8172-288 -1.38621528984441e-05 125000 -368.852844385793 0 0 60 (C1) n - 1
REM
REM in /home/bkarasulu/CARBON/AIRSS/Generating-Clusters/EDIP-Nigel-Params/Higher-Symm/Box-15A/Only-C60/SD-CG/HFTN-CG
REM
REM
REM
REM
REM
REM ./C.cell (414f73aa93bd7a1190c7fd0f31ff2f98)
REM
REM compiler GCC version 9.2.1 20190827 (Red Hat 9.2.1-1)
REM options -cpp -mtune=generic -march=x86-64 -g -O0 -fpre-include=/usr/include/finclude/math-vector-fortran.h
REM seed -908476945 -1541491074 -53530593 -1322529078 -578533539 1229557290 -297244690 -691155171 901924564 1261262535 -1102209935 205529133 -1238136178 -1639608280 8462712 -1756656064 544316615 -351929415 438645621 -1349375243 351527933 -1903705434 -1202483491 -841373973 -164837068 -632439595 1360870839 -1787398735 -916418912 245772325 3052922 476244764 1566913819
REM
CELL 1.54180   50.00000   50.00000   50.00000   90.00000   90.00000   90.00000
LATT -1
SFAC C  
C      1  0.5279590000000  0.5400790000000  0.4730840000000 1.0
C      1  0.5027520000000  0.5545710000000  0.5362960000000 1.0
C      1  0.4794870000000  0.4521770000000  0.5458950000000 1.0
C      1  0.5538640000000  0.5076040000000  0.4496770000000 1.0
C      1  0.4343600000000  0.4578550000000  0.5253020000000 1.0
C      1  0.4623110000000  0.4753810000000  0.4559340000000 1.0
C      1  0.4511620000000  0.4526170000000  0.5471330000000 1.0
C      1  0.4360900000000  0.4866930000000  0.5196410000000 1.0
C      1  0.5264720000000  0.5126110000000  0.4380080000000 1.0
C      1  0.4906280000000  0.4496370000000  0.5187230000000 1.0
C      1  0.4451880000000  0.4442430000000  0.5025940000000 1.0
C      1  0.4820700000000  0.5427610000000  0.5160350000000 1.0
C      1  0.5313890000000  0.4992940000000  0.5659360000000 1.0
C      1  0.4434690000000  0.5279160000000  0.4478440000000 1.0
C      1  0.4493620000000  0.5510850000000  0.4661140000000 1.0
C      1  0.5084130000000  0.5440080000000  0.5615880000000 1.0
C      1  0.4279860000000  0.5046800000000  0.5404190000000 1.0
C      1  0.4411650000000  0.5306470000000  0.5427280000000 1.0
C      1  0.5288850000000  0.4310040000000  0.4947800000000 1.0
C      1  0.4745180000000  0.4844220000000  0.4305310000000 1.0
C      1  0.4369570000000  0.5423450000000  0.4919680000000 1.0
C      1  0.5069670000000  0.4743840000000  0.4677060000000 1.0
C      1  0.5165820000000  0.5039390000000  0.5067890000000 1.0
C      1  0.5378450000000  0.4423670000000  0.4704620000000 1.0
C      1  0.5243160000000  0.4771150000000  0.4936800000000 1.0
C      1  0.4896600000000  0.5599750000000  0.4914980000000 1.0
C      1  0.5593350000000  0.5033590000000  0.5665510000000 1.0
C      1  0.5669800000000  0.4969610000000  0.5397630000000 1.0
C      1  0.5573070000000  0.5155310000000  0.5197420000000 1.0
C      1  0.5029600000000  0.5037770000000  0.4576190000000 1.0
C      1  0.5179580000000  0.4597950000000  0.4437250000000 1.0
C      1  0.5192740000000  0.5623320000000  0.4916500000000 1.0
C      1  0.4927740000000  0.4741600000000  0.5600280000000 1.0
C      1  0.4983980000000  0.4691970000000  0.4243960000000 1.0
C      1  0.5491760000000  0.5418130000000  0.5246410000000 1.0
C      1  0.5273050000000  0.5590470000000  0.5201160000000 1.0
C      1  0.4552930000000  0.4958140000000  0.4756770000000 1.0
C      1  0.4621870000000  0.4892890000000  0.5039230000000 1.0
C      1  0.4591210000000  0.5154730000000  0.5612350000000 1.0
C      1  0.5364630000000  0.4574150000000  0.5373560000000 1.0
C      1  0.5682950000000  0.4637210000000  0.5016850000000 1.0
C      1  0.5199500000000  0.4526440000000  0.5121810000000 1.0
C      1  0.4925990000000  0.5477410000000  0.4411960000000 1.0
C      1  0.4782840000000  0.5505060000000  0.4662690000000 1.0
C      1  0.5079930000000  0.5169770000000  0.5672830000000 1.0
C      1  0.5536850000000  0.5243180000000  0.4737350000000 1.0
C      1  0.4861300000000  0.5100740000000  0.5145950000000 1.0
C      1  0.5534240000000  0.5031660000000  0.4938590000000 1.0
C      1  0.5613040000000  0.4812540000000  0.4565500000000 1.0
C      1  0.4519410000000  0.5436170000000  0.5175940000000 1.0
C      1  0.4809380000000  0.4597510000000  0.4718890000000 1.0
C      1  0.4704730000000  0.4593730000000  0.4995190000000 1.0
C      1  0.5632360000000  0.4684030000000  0.5296740000000 1.0
C      1  0.5062690000000  0.5206640000000  0.4825890000000 1.0
C      1  0.5205440000000  0.5421990000000  0.4432080000000 1.0
C      1  0.5223010000000  0.4725700000000  0.5592990000000 1.0
C      1  0.5602210000000  0.4599890000000  0.4746880000000 1.0
C      1  0.4318290000000  0.5113310000000  0.4699990000000 1.0
C      1  0.4847770000000  0.5028120000000  0.5579190000000 1.0
C      1  0.4714190000000  0.5155180000000  0.4394830000000 1.0
END
