TITL C-8706-7473-26 -9.90517472406064e-06 125000 -360.458726359693 0 0 60 (C1) n - 1
REM
REM in /home/bkarasulu/CARBON/AIRSS/Generating-Clusters/EDIP-Nigel-Params/Higher-Symm/Box-15A/Only-C60/SD-CG/HFTN-CG
REM
REM
REM
REM
REM
REM ./C.cell (414f73aa93bd7a1190c7fd0f31ff2f98)
REM
REM compiler GCC version 9.2.1 20190827 (Red Hat 9.2.1-1)
REM options -cpp -mtune=generic -march=x86-64 -g -O0 -fpre-include=/usr/include/finclude/math-vector-fortran.h
REM seed 498349077 1733183304 -63453757 1926447581 -1971266174 1595307154 -558918351 -1807855645 1316831361 142255126 -1377250662 -697707022 -1338843978 -1480468702 -171354202 1299636473 1881197678 -1711436070 -2077622892 -736717261 1918896078 319416153 1383434975 601042761 1704267919 861799994 -1837876204 -277064008 -1780945946 -1588361897 1422255147 1553741594 850293765
REM
CELL 1.54180   50.00000   50.00000   50.00000   90.00000   90.00000   90.00000
LATT -1
SFAC C  
C      1  0.5090350000000  0.5452680000000  0.4395270000000 1.0
C      1  0.5073160000000  0.5415880000000  0.5437750000000 1.0
C      1  0.5460680000000  0.4356670000000  0.4764250000000 1.0
C      1  0.5373330000000  0.5457860000000  0.5061940000000 1.0
C      1  0.4793240000000  0.4778640000000  0.4408200000000 1.0
C      1  0.4902520000000  0.5712320000000  0.4776580000000 1.0
C      1  0.5577590000000  0.5235370000000  0.5090160000000 1.0
C      1  0.4542610000000  0.4881810000000  0.5592670000000 1.0
C      1  0.5404820000000  0.4558680000000  0.5203160000000 1.0
C      1  0.4693390000000  0.4461630000000  0.5314970000000 1.0
C      1  0.5554460000000  0.5208450000000  0.4648300000000 1.0
C      1  0.4908940000000  0.5236050000000  0.5007450000000 1.0
C      1  0.4551170000000  0.5437240000000  0.5409210000000 1.0
C      1  0.4977590000000  0.4480730000000  0.5401720000000 1.0
C      1  0.5061690000000  0.5178080000000  0.4345460000000 1.0
C      1  0.5469130000000  0.5717300000000  0.4975700000000 1.0
C      1  0.5063020000000  0.4871560000000  0.5716420000000 1.0
C      1  0.5311970000000  0.4837660000000  0.5842680000000 1.0
C      1  0.5029020000000  0.4772120000000  0.5439410000000 1.0
C      1  0.5281660000000  0.4708010000000  0.4419810000000 1.0
C      1  0.4471060000000  0.5162830000000  0.4785630000000 1.0
C      1  0.5544730000000  0.4762820000000  0.5387380000000 1.0
C      1  0.4987200000000  0.5035740000000  0.4804360000000 1.0
C      1  0.5489700000000  0.4543010000000  0.4538000000000 1.0
C      1  0.4931620000000  0.5133560000000  0.5747970000000 1.0
C      1  0.4930240000000  0.4792100000000  0.5003830000000 1.0
C      1  0.5565170000000  0.5019730000000  0.5271830000000 1.0
C      1  0.4366890000000  0.4876240000000  0.4862010000000 1.0
C      1  0.4517740000000  0.4650940000000  0.4730540000000 1.0
C      1  0.5596080000000  0.4476600000000  0.4990830000000 1.0
C      1  0.5733990000000  0.5208930000000  0.4859330000000 1.0
C      1  0.4626860000000  0.5323720000000  0.4991590000000 1.0
C      1  0.4755100000000  0.4541020000000  0.4880080000000 1.0
C      1  0.5184310000000  0.4347790000000  0.5237720000000 1.0
C      1  0.4322450000000  0.4793980000000  0.5158510000000 1.0
C      1  0.5319980000000  0.5044820000000  0.4711740000000 1.0
C      1  0.4661240000000  0.5698200000000  0.4634450000000 1.0
C      1  0.5014220000000  0.4602310000000  0.4477090000000 1.0
C      1  0.4805190000000  0.4911880000000  0.5286840000000 1.0
C      1  0.4672630000000  0.5137740000000  0.5616660000000 1.0
C      1  0.5232310000000  0.4743050000000  0.5045080000000 1.0
C      1  0.5397010000000  0.5648730000000  0.4719630000000 1.0
C      1  0.5132440000000  0.5604830000000  0.4627380000000 1.0
C      1  0.5184960000000  0.4311850000000  0.4860960000000 1.0
C      1  0.4845540000000  0.5053680000000  0.4513860000000 1.0
C      1  0.5095830000000  0.5355790000000  0.5699150000000 1.0
C      1  0.5488490000000  0.4754410000000  0.5658290000000 1.0
C      1  0.4665000000000  0.4338240000000  0.5068710000000 1.0
C      1  0.5426990000000  0.4791490000000  0.4826550000000 1.0
C      1  0.4959990000000  0.4414050000000  0.4701880000000 1.0
C      1  0.4558480000000  0.4733670000000  0.5338690000000 1.0
C      1  0.4896160000000  0.5673730000000  0.5076030000000 1.0
C      1  0.4256730000000  0.5068640000000  0.5184360000000 1.0
C      1  0.4632070000000  0.5641360000000  0.5206390000000 1.0
C      1  0.4496410000000  0.5219420000000  0.5226530000000 1.0
C      1  0.5076380000000  0.5441470000000  0.5154080000000 1.0
C      1  0.4540970000000  0.4667470000000  0.4454360000000 1.0
C      1  0.4586930000000  0.5210680000000  0.4523270000000 1.0
C      1  0.5312500000000  0.5018620000000  0.4407090000000 1.0
C      1  0.4598080000000  0.5486110000000  0.4480220000000 1.0
END
