TITL C-8704-7456-94 -4.59782756554371e-05 125000 -353.987963793158 0 0 60 (C1) n - 1
REM
REM in /home/bkarasulu/CARBON/AIRSS/Generating-Clusters/EDIP-Nigel-Params/Higher-Symm/Box-15A/Only-C60/SD-CG/HFTN-CG
REM
REM
REM
REM
REM
REM ./C.cell (414f73aa93bd7a1190c7fd0f31ff2f98)
REM
REM compiler GCC version 9.2.1 20190827 (Red Hat 9.2.1-1)
REM options -cpp -mtune=generic -march=x86-64 -g -O0 -fpre-include=/usr/include/finclude/math-vector-fortran.h
REM seed 1614457090 -1822228090 -540469135 718420993 -715418750 1928599589 -1289151358 255016953 1651666528 -1028511462 -1810387956 1438505137 710935709 -1427621512 -644688252 548907531 1806787444 1611763652 1106762646 -121625889 -1473354068 1854820950 1676635190 -2017753925 -628413412 1396295829 397176886 1300157171 -7765609 655324758 -1988800887 1296880243 -1716793355
REM
CELL 1.54180   50.00000   50.00000   50.00000   90.00000   90.00000   90.00000
LATT -1
SFAC C  
C      1  0.5110960000000  0.5218530000000  0.4557280000000 1.0
C      1  0.4865530000000  0.4825620000000  0.4503770000000 1.0
C      1  0.5136590000000  0.4919890000000  0.4582590000000 1.0
C      1  0.4954160000000  0.5125770000000  0.5762890000000 1.0
C      1  0.4785310000000  0.4882270000000  0.5757890000000 1.0
C      1  0.5161810000000  0.4911910000000  0.5789190000000 1.0
C      1  0.4707190000000  0.4982010000000  0.5295870000000 1.0
C      1  0.5160530000000  0.4766620000000  0.5340210000000 1.0
C      1  0.5110900000000  0.5271460000000  0.5374370000000 1.0
C      1  0.4731520000000  0.4471310000000  0.3888580000000 1.0
C      1  0.5303020000000  0.5349160000000  0.4136680000000 1.0
C      1  0.4511490000000  0.4981330000000  0.4201350000000 1.0
C      1  0.5524890000000  0.4598250000000  0.5557540000000 1.0
C      1  0.5048160000000  0.5691690000000  0.5548790000000 1.0
C      1  0.4355480000000  0.4768370000000  0.5480660000000 1.0
C      1  0.4912770000000  0.5426880000000  0.5550190000000 1.0
C      1  0.4651240000000  0.4776190000000  0.5504080000000 1.0
C      1  0.5354590000000  0.4843000000000  0.5559460000000 1.0
C      1  0.5791920000000  0.5331720000000  0.4663390000000 1.0
C      1  0.4607010000000  0.5449560000000  0.4445050000000 1.0
C      1  0.4842710000000  0.4346270000000  0.4590140000000 1.0
C      1  0.5574480000000  0.5237050000000  0.4835070000000 1.0
C      1  0.4614880000000  0.5366550000000  0.4719810000000 1.0
C      1  0.4967590000000  0.4402740000000  0.4835440000000 1.0
C      1  0.5339380000000  0.5327840000000  0.4397880000000 1.0
C      1  0.4755040000000  0.5012600000000  0.4301460000000 1.0
C      1  0.4779900000000  0.4497730000000  0.4138820000000 1.0
C      1  0.5757170000000  0.5017540000000  0.5323230000000 1.0
C      1  0.4611750000000  0.5685540000000  0.5256550000000 1.0
C      1  0.4590410000000  0.4346010000000  0.5264620000000 1.0
C      1  0.4635620000000  0.5457370000000  0.5423930000000 1.0
C      1  0.4762710000000  0.4504580000000  0.5419750000000 1.0
C      1  0.5537340000000  0.5076280000000  0.5490750000000 1.0
C      1  0.5045400000000  0.5179370000000  0.5088720000000 1.0
C      1  0.4823720000000  0.4864870000000  0.5037620000000 1.0
C      1  0.5119410000000  0.4889020000000  0.5068810000000 1.0
C      1  0.4858030000000  0.5506730000000  0.4862110000000 1.0
C      1  0.4612800000000  0.4555550000000  0.4814430000000 1.0
C      1  0.5537140000000  0.4929670000000  0.4891600000000 1.0
C      1  0.4537060000000  0.5217140000000  0.5305800000000 1.0
C      1  0.5044610000000  0.4502250000000  0.5360300000000 1.0
C      1  0.5391750000000  0.5313660000000  0.5436700000000 1.0
C      1  0.4687830000000  0.4844700000000  0.4761490000000 1.0
C      1  0.5272410000000  0.4800660000000  0.4824810000000 1.0
C      1  0.5103720000000  0.5346690000000  0.4839560000000 1.0
C      1  0.5351480000000  0.5581690000000  0.5165000000000 1.0
C      1  0.4347470000000  0.5019480000000  0.5036750000000 1.0
C      1  0.5341940000000  0.4425150000000  0.5126270000000 1.0
C      1  0.5598080000000  0.5237270000000  0.4483530000000 1.0
C      1  0.4834150000000  0.5273170000000  0.4404250000000 1.0
C      1  0.4868100000000  0.4547900000000  0.4393990000000 1.0
C      1  0.5101560000000  0.5703450000000  0.5263870000000 1.0
C      1  0.4336880000000  0.4761100000000  0.5188590000000 1.0
C      1  0.5553650000000  0.4573600000000  0.5266870000000 1.0
C      1  0.4491740000000  0.5073120000000  0.4786070000000 1.0
C      1  0.5239850000000  0.4500370000000  0.4865450000000 1.0
C      1  0.5365970000000  0.5457390000000  0.4905540000000 1.0
C      1  0.4851050000000  0.5673800000000  0.5104310000000 1.0
C      1  0.4478540000000  0.4524640000000  0.5078080000000 1.0
C      1  0.5651650000000  0.4827900000000  0.5142220000000 1.0
END
