TITL C-8705-8172-326 -7.25014722831616e-07 125000 -369.103936952297 0 0 60 (D2) n - 1
REM
REM in /home/bkarasulu/CARBON/AIRSS/Generating-Clusters/EDIP-Nigel-Params/Higher-Symm/Box-15A/Only-C60/SD-CG/HFTN-CG
REM
REM
REM
REM
REM
REM ./C.cell (414f73aa93bd7a1190c7fd0f31ff2f98)
REM
REM compiler GCC version 9.2.1 20190827 (Red Hat 9.2.1-1)
REM options -cpp -mtune=generic -march=x86-64 -g -O0 -fpre-include=/usr/include/finclude/math-vector-fortran.h
REM seed 1422288826 -1024424035 1637819363 848019002 -309359659 -1595268238 1896304970 -1574071781 790800575 405107079 -1217566560 1595813571 366636213 -1046187587 -420053310 2143701840 -824809878 169008728 1455014920 -726648814 1645540161 -1056353664 1046364621 -765557220 2140014923 282785455 -1912117629 -1453375202 -2119974751 790610649 -246929346 468783642 230960150
REM
CELL 1.54180   50.00000   50.00000   50.00000   90.00000   90.00000   90.00000
LATT -1
SFAC C  
C      1  0.5113280000000  0.4788330000000  0.5269880000000 1.0
C      1  0.4886680000000  0.4788350000000  0.4730120000000 1.0
C      1  0.5113320000000  0.5211650000000  0.4730120000000 1.0
C      1  0.4886710000000  0.5211670000000  0.5269880000000 1.0
C      1  0.4296420000000  0.4941700000000  0.5267210000000 1.0
C      1  0.5703570000000  0.4941580000000  0.4732790000000 1.0
C      1  0.4296430000000  0.5058420000000  0.4732770000000 1.0
C      1  0.5703580000000  0.5058300000000  0.5267230000000 1.0
C      1  0.5578250000000  0.5544100000000  0.5161270000000 1.0
C      1  0.4421850000000  0.5544200000000  0.4838730000000 1.0
C      1  0.5578160000000  0.4455800000000  0.4838740000000 1.0
C      1  0.4421750000000  0.4455900000000  0.5161260000000 1.0
C      1  0.5708540000000  0.5303530000000  0.5092050000000 1.0
C      1  0.4291520000000  0.5303660000000  0.4907950000000 1.0
C      1  0.5708490000000  0.4696340000000  0.4907970000000 1.0
C      1  0.4291460000000  0.4696470000000  0.5092030000000 1.0
C      1  0.5262680000000  0.4433090000000  0.5226090000000 1.0
C      1  0.4737220000000  0.4433130000000  0.4773910000000 1.0
C      1  0.5262780000000  0.5566870000000  0.4773920000000 1.0
C      1  0.4737320000000  0.5566910000000  0.5226080000000 1.0
C      1  0.5586380000000  0.5102180000000  0.5529790000000 1.0
C      1  0.4413640000000  0.5102280000000  0.4470210000000 1.0
C      1  0.5586380000000  0.4897720000000  0.4470230000000 1.0
C      1  0.4413600000000  0.4897820000000  0.5529770000000 1.0
C      1  0.5179460000000  0.5278810000000  0.5247840000000 1.0
C      1  0.4820590000000  0.5278840000000  0.4752170000000 1.0
C      1  0.5179420000000  0.4721160000000  0.4752170000000 1.0
C      1  0.4820530000000  0.4721190000000  0.5247830000000 1.0
C      1  0.5570220000000  0.5197740000000  0.4857580000000 1.0
C      1  0.4429810000000  0.5197840000000  0.5142420000000 1.0
C      1  0.5570180000000  0.4802160000000  0.5142440000000 1.0
C      1  0.4429780000000  0.4802260000000  0.4857560000000 1.0
C      1  0.5449630000000  0.4759890000000  0.5587500000000 1.0
C      1  0.4550330000000  0.4759970000000  0.4412500000000 1.0
C      1  0.5449690000000  0.5240030000000  0.4412520000000 1.0
C      1  0.4550350000000  0.5240110000000  0.5587480000000 1.0
C      1  0.5298080000000  0.4828510000000  0.4489470000000 1.0
C      1  0.4701890000000  0.4828560000000  0.5510530000000 1.0
C      1  0.5298090000000  0.5171440000000  0.5510540000000 1.0
C      1  0.4701940000000  0.5171490000000  0.4489460000000 1.0
C      1  0.4497430000000  0.5409620000000  0.5350530000000 1.0
C      1  0.5502640000000  0.5409530000000  0.4649470000000 1.0
C      1  0.4497370000000  0.4590470000000  0.4649460000000 1.0
C      1  0.5502560000000  0.4590380000000  0.5350540000000 1.0
C      1  0.4877970000000  0.5575970000000  0.4762500000000 1.0
C      1  0.5122130000000  0.5575950000000  0.5237500000000 1.0
C      1  0.4877860000000  0.4424050000000  0.5237500000000 1.0
C      1  0.5122040000000  0.4424030000000  0.4762500000000 1.0
C      1  0.4712110000000  0.5143140000000  0.5025170000000 1.0
C      1  0.5287920000000  0.5143090000000  0.4974830000000 1.0
C      1  0.4712090000000  0.4856910000000  0.4974820000000 1.0
C      1  0.5287890000000  0.4856860000000  0.5025180000000 1.0
C      1  0.4803960000000  0.4896360000000  0.4461670000000 1.0
C      1  0.5196030000000  0.4896330000000  0.5538330000000 1.0
C      1  0.4803960000000  0.5103670000000  0.5538320000000 1.0
C      1  0.5196060000000  0.5103640000000  0.4461680000000 1.0
C      1  0.5335330000000  0.4352400000000  0.4944090000000 1.0
C      1  0.4664560000000  0.4352460000000  0.5055910000000 1.0
C      1  0.5335440000000  0.5647540000000  0.5055920000000 1.0
C      1  0.4664670000000  0.5647600000000  0.4944080000000 1.0
END
