TITL C-8703-8361-156 -6.64464316799944e-05 125000 -364.141518795083 0 0 60 (C1) n - 1
REM
REM in /home/bkarasulu/CARBON/AIRSS/Generating-Clusters/EDIP-Nigel-Params/Higher-Symm/Box-15A/Only-C60/SD-CG/HFTN-CG
REM
REM
REM
REM
REM
REM ./C.cell (414f73aa93bd7a1190c7fd0f31ff2f98)
REM
REM compiler GCC version 9.2.1 20190827 (Red Hat 9.2.1-1)
REM options -cpp -mtune=generic -march=x86-64 -g -O0 -fpre-include=/usr/include/finclude/math-vector-fortran.h
REM seed -637319065 -1134920410 -754429908 588820243 -92474126 384484753 1478934756 -1913683399 -39413234 -2120497489 1290020691 2066521409 277908474 -1656835764 1794131978 1781792023 977185284 -384049904 1173751397 1394978740 -586608505 1138302030 1504367568 -993063074 1125641438 -530232603 1640853055 339756008 474189456 1964967904 613111414 2140197697 1226301843
REM
CELL 1.54180   50.00000   50.00000   50.00000   90.00000   90.00000   90.00000
LATT -1
SFAC C  
C      1  0.4661190000000  0.4512030000000  0.5122450000000 1.0
C      1  0.4949290000000  0.5253530000000  0.4350700000000 1.0
C      1  0.5062900000000  0.5199070000000  0.5623010000000 1.0
C      1  0.5498780000000  0.5500270000000  0.4968230000000 1.0
C      1  0.4998880000000  0.4779280000000  0.4326200000000 1.0
C      1  0.4958440000000  0.4572360000000  0.5526240000000 1.0
C      1  0.5127220000000  0.5032550000000  0.4407630000000 1.0
C      1  0.4464460000000  0.5423740000000  0.4788480000000 1.0
C      1  0.4521640000000  0.5241840000000  0.5302700000000 1.0
C      1  0.4443320000000  0.4562710000000  0.5293100000000 1.0
C      1  0.5413700000000  0.5090740000000  0.4410200000000 1.0
C      1  0.4976460000000  0.4821050000000  0.4760450000000 1.0
C      1  0.5089620000000  0.4279330000000  0.5161170000000 1.0
C      1  0.5413040000000  0.4648940000000  0.5346840000000 1.0
C      1  0.4580390000000  0.4777620000000  0.4576530000000 1.0
C      1  0.5488900000000  0.5270960000000  0.5171970000000 1.0
C      1  0.4935280000000  0.4530490000000  0.5229150000000 1.0
C      1  0.4355640000000  0.5174960000000  0.4895450000000 1.0
C      1  0.4382610000000  0.4917830000000  0.4750230000000 1.0
C      1  0.5366630000000  0.4461190000000  0.4800510000000 1.0
C      1  0.5204010000000  0.5006950000000  0.5183440000000 1.0
C      1  0.5015050000000  0.4990240000000  0.5422240000000 1.0
C      1  0.5068470000000  0.5229020000000  0.5052100000000 1.0
C      1  0.5239870000000  0.5669520000000  0.4968800000000 1.0
C      1  0.5350980000000  0.4436890000000  0.5108580000000 1.0
C      1  0.4278680000000  0.5189150000000  0.5166190000000 1.0
C      1  0.4536490000000  0.4781050000000  0.5449830000000 1.0
C      1  0.4698650000000  0.4988560000000  0.5295020000000 1.0
C      1  0.5536870000000  0.4893000000000  0.4591900000000 1.0
C      1  0.4729840000000  0.4708430000000  0.5660570000000 1.0
C      1  0.4717610000000  0.4876320000000  0.4328020000000 1.0
C      1  0.5631870000000  0.5051560000000  0.4815570000000 1.0
C      1  0.5106890000000  0.5493640000000  0.5181580000000 1.0
C      1  0.5579040000000  0.5081190000000  0.5520380000000 1.0
C      1  0.4800780000000  0.5756470000000  0.4837110000000 1.0
C      1  0.5487260000000  0.5360080000000  0.4476520000000 1.0
C      1  0.4959600000000  0.4199460000000  0.4902560000000 1.0
C      1  0.4597010000000  0.5608740000000  0.4964110000000 1.0
C      1  0.4683120000000  0.4345440000000  0.4882090000000 1.0
C      1  0.5053330000000  0.5681660000000  0.4739980000000 1.0
C      1  0.4798520000000  0.4917820000000  0.5837800000000 1.0
C      1  0.5328580000000  0.4707090000000  0.4659570000000 1.0
C      1  0.4911690000000  0.5164490000000  0.5855930000000 1.0
C      1  0.5139880000000  0.4304080000000  0.4681060000000 1.0
C      1  0.4636280000000  0.5514130000000  0.5240760000000 1.0
C      1  0.5493420000000  0.5352860000000  0.5459700000000 1.0
C      1  0.4697600000000  0.4507390000000  0.4631400000000 1.0
C      1  0.4959550000000  0.4469720000000  0.4504610000000 1.0
C      1  0.5709170000000  0.4932940000000  0.5064550000000 1.0
C      1  0.4889370000000  0.5596950000000  0.5352960000000 1.0
C      1  0.4864540000000  0.5386570000000  0.4603350000000 1.0
C      1  0.5214570000000  0.4697030000000  0.5556460000000 1.0
C      1  0.4892940000000  0.5154830000000  0.4832270000000 1.0
C      1  0.5600500000000  0.4871280000000  0.5320910000000 1.0
C      1  0.5205670000000  0.5439440000000  0.5517760000000 1.0
C      1  0.5583290000000  0.5331910000000  0.4740910000000 1.0
C      1  0.4699200000000  0.4921300000000  0.4972770000000 1.0
C      1  0.4711510000000  0.5145530000000  0.4236340000000 1.0
C      1  0.5118360000000  0.4743270000000  0.5034810000000 1.0
C      1  0.4581590000000  0.5443510000000  0.4538250000000 1.0
END
