TITL C-8700-8172-297 4.19050211318464e-08 125000 -363.618408374958 0 0 60 (Ci) n - 1
REM
REM in /home/bkarasulu/CARBON/AIRSS/Generating-Clusters/EDIP-Nigel-Params/Higher-Symm/Box-15A/Only-C60/SD-CG/HFTN-CG
REM
REM
REM
REM
REM
REM ./C.cell (414f73aa93bd7a1190c7fd0f31ff2f98)
REM
REM compiler GCC version 9.2.1 20190827 (Red Hat 9.2.1-1)
REM options -cpp -mtune=generic -march=x86-64 -g -O0 -fpre-include=/usr/include/finclude/math-vector-fortran.h
REM seed -840613456 1478902672 -2103041878 1743644032 -521456428 474991909 1486062548 483436175 1792157813 1128339104 -24668559 1760082300 -1262387282 811660185 1473521214 -1837615166 1173544136 -88737279 1304966596 -1434740761 651489298 -2114067087 1750035126 -1615942763 -1374437057 -2000340612 -1943896393 1401200738 -1870330280 1546558455 1849689240 -1959792413 322802294
REM
CELL 1.54180   50.00000   50.00000   50.00000   90.00000   90.00000   90.00000
LATT -1
SFAC C  
C      1  0.4953820000000  0.4243740000000  0.5190770000000 1.0
C      1  0.5046180000000  0.5756260000000  0.4809230000000 1.0
C      1  0.4959500000000  0.5254490000000  0.4623650000000 1.0
C      1  0.5040500000000  0.4745510000000  0.5376350000000 1.0
C      1  0.5094240000000  0.4825390000000  0.4838960000000 1.0
C      1  0.4905760000000  0.5174610000000  0.5161040000000 1.0
C      1  0.5519070000000  0.4547870000000  0.5315000000000 1.0
C      1  0.4480930000000  0.5452130000000  0.4685000000000 1.0
C      1  0.5175840000000  0.4253040000000  0.5037810000000 1.0
C      1  0.4824160000000  0.5746960000000  0.4962190000000 1.0
C      1  0.5475000000000  0.5695720000000  0.4999450000000 1.0
C      1  0.4525000000000  0.4304280000000  0.5000550000000 1.0
C      1  0.4329500000000  0.4559100000000  0.5461520000000 1.0
C      1  0.5670500000000  0.5440900000000  0.4538480000000 1.0
C      1  0.4094090000000  0.4854170000000  0.5121720000000 1.0
C      1  0.5905910000000  0.5145830000000  0.4878280000000 1.0
C      1  0.4711940000000  0.4928360000000  0.5087900000000 1.0
C      1  0.5288060000000  0.5071640000000  0.4912100000000 1.0
C      1  0.5340140000000  0.4417820000000  0.4882310000000 1.0
C      1  0.4659860000000  0.5582180000000  0.5117690000000 1.0
C      1  0.4682940000000  0.4300960000000  0.5228740000000 1.0
C      1  0.5317060000000  0.5699040000000  0.4771260000000 1.0
C      1  0.5860940000000  0.5307350000000  0.4670420000000 1.0
C      1  0.4139060000000  0.4692650000000  0.5329580000000 1.0
C      1  0.5079730000000  0.5554970000000  0.5375230000000 1.0
C      1  0.4920270000000  0.4445030000000  0.4624770000000 1.0
C      1  0.5759080000000  0.5013030000000  0.5072380000000 1.0
C      1  0.4240920000000  0.4986970000000  0.4927620000000 1.0
C      1  0.5082540000000  0.4870350000000  0.4335100000000 1.0
C      1  0.4917460000000  0.5129650000000  0.5664900000000 1.0
C      1  0.5465040000000  0.4905880000000  0.4397580000000 1.0
C      1  0.4534960000000  0.5094120000000  0.5602420000000 1.0
C      1  0.4698350000000  0.5338650000000  0.5573390000000 1.0
C      1  0.5301650000000  0.4661350000000  0.4426610000000 1.0
C      1  0.4522460000000  0.5385540000000  0.4954120000000 1.0
C      1  0.5477540000000  0.4614460000000  0.5045880000000 1.0
C      1  0.5072730000000  0.5049800000000  0.5408610000000 1.0
C      1  0.4927270000000  0.4950200000000  0.4591390000000 1.0
C      1  0.5354900000000  0.5149930000000  0.5406620000000 1.0
C      1  0.4645100000000  0.4850070000000  0.4593380000000 1.0
C      1  0.5176530000000  0.4568200000000  0.4683600000000 1.0
C      1  0.4823470000000  0.5431800000000  0.5316400000000 1.0
C      1  0.4810730000000  0.4659240000000  0.5557650000000 1.0
C      1  0.5189270000000  0.5340760000000  0.4442350000000 1.0
C      1  0.4599890000000  0.4494980000000  0.5431920000000 1.0
C      1  0.5400110000000  0.5505020000000  0.4568080000000 1.0
C      1  0.5065530000000  0.5263150000000  0.4913950000000 1.0
C      1  0.4934470000000  0.4736850000000  0.5086050000000 1.0
C      1  0.5280570000000  0.5109520000000  0.4281260000000 1.0
C      1  0.4719430000000  0.4890480000000  0.5718740000000 1.0
C      1  0.5282990000000  0.4603580000000  0.5444030000000 1.0
C      1  0.4717010000000  0.5396420000000  0.4555970000000 1.0
C      1  0.4263560000000  0.5270960000000  0.4952400000000 1.0
C      1  0.5736440000000  0.4729040000000  0.5047600000000 1.0
C      1  0.5529110000000  0.5485030000000  0.5175260000000 1.0
C      1  0.4470890000000  0.4514970000000  0.4824740000000 1.0
C      1  0.5492990000000  0.5148520000000  0.5122030000000 1.0
C      1  0.4507010000000  0.4851480000000  0.4877970000000 1.0
C      1  0.5341700000000  0.5452200000000  0.5407060000000 1.0
C      1  0.4658300000000  0.4547800000000  0.4592940000000 1.0
END
