TITL C-8703-8361-111 -3.27943745773173e-07 125000 -341.236715727812 0 0 60 (Oh) n - 1
REM
REM in /home/bkarasulu/CARBON/AIRSS/Generating-Clusters/EDIP-Nigel-Params/Higher-Symm/Box-15A/Only-C60/SD-CG/HFTN-CG
REM
REM
REM
REM
REM
REM ./C.cell (414f73aa93bd7a1190c7fd0f31ff2f98)
REM
REM compiler GCC version 9.2.1 20190827 (Red Hat 9.2.1-1)
REM options -cpp -mtune=generic -march=x86-64 -g -O0 -fpre-include=/usr/include/finclude/math-vector-fortran.h
REM seed -932809187 -856940614 -1942469879 631892964 727290697 -573635447 784026988 807253051 578384194 602112372 1640430852 1417818070 -686894530 604213816 -673085605 -1609831015 -1790736116 -382430171 -501962862 -782219859 2076824204 -1183882583 -2058954094 382462318 112030644 -2120661652 -828859392 257892155 1245010801 980413867 861966962 310255345 489222174
REM
CELL 1.54180   50.00000   50.00000   50.00000   90.00000   90.00000   90.00000
LATT -1
SFAC C  
C      1  0.4999970000000  0.5703950000000  0.4623620000000 1.0
C      1  0.4623810000000  0.5000160000000  0.5704050000000 1.0
C      1  0.5704050000000  0.4623810000000  0.5000070000000 1.0
C      1  0.5000030000000  0.4296050000000  0.5376380000000 1.0
C      1  0.5000010000000  0.4295870000000  0.4623960000000 1.0
C      1  0.4999990000000  0.5704130000000  0.5376040000000 1.0
C      1  0.4623760000000  0.4999820000000  0.4295970000000 1.0
C      1  0.5376240000000  0.5000180000000  0.5704030000000 1.0
C      1  0.5376190000000  0.4999840000000  0.4295950000000 1.0
C      1  0.5704030000000  0.5376230000000  0.4999890000000 1.0
C      1  0.4295950000000  0.5376190000000  0.4999930000000 1.0
C      1  0.4295970000000  0.4623770000000  0.5000110000000 1.0
C      1  0.5000040000000  0.4623960000000  0.5704130000000 1.0
C      1  0.4623770000000  0.5704030000000  0.4999840000000 1.0
C      1  0.5704030000000  0.4999930000000  0.4623760000000 1.0
C      1  0.4999960000000  0.5376040000000  0.4295870000000 1.0
C      1  0.4999990000000  0.4623620000000  0.4296050000000 1.0
C      1  0.5000010000000  0.5376380000000  0.5703950000000 1.0
C      1  0.4623810000000  0.4295950000000  0.5000180000000 1.0
C      1  0.5376190000000  0.5704050000000  0.4999820000000 1.0
C      1  0.5376230000000  0.4295970000000  0.5000160000000 1.0
C      1  0.5704050000000  0.5000110000000  0.5376190000000 1.0
C      1  0.4295970000000  0.5000070000000  0.5376240000000 1.0
C      1  0.4295950000000  0.4999890000000  0.4623810000000 1.0
C      1  0.4769030000000  0.5453360000000  0.4999900000000 1.0
C      1  0.5000020000000  0.4769160000000  0.5453430000000 1.0
C      1  0.5453360000000  0.4999960000000  0.4769030000000 1.0
C      1  0.4769060000000  0.4546620000000  0.5000120000000 1.0
C      1  0.5230970000000  0.4546640000000  0.5000100000000 1.0
C      1  0.5230940000000  0.5453380000000  0.4999880000000 1.0
C      1  0.4999980000000  0.5230840000000  0.4546570000000 1.0
C      1  0.5000010000000  0.5231060000000  0.5453320000000 1.0
C      1  0.4999990000000  0.4768940000000  0.4546680000000 1.0
C      1  0.5453380000000  0.5000070000000  0.5230940000000 1.0
C      1  0.4546620000000  0.4999930000000  0.4769060000000 1.0
C      1  0.4546640000000  0.5000040000000  0.5230970000000 1.0
C      1  0.4769060000000  0.5000100000000  0.5453380000000 1.0
C      1  0.4999980000000  0.5453320000000  0.4768940000000 1.0
C      1  0.5453380000000  0.4769060000000  0.5000040000000 1.0
C      1  0.4769030000000  0.4999880000000  0.4546640000000 1.0
C      1  0.5230940000000  0.4999900000000  0.4546620000000 1.0
C      1  0.5230970000000  0.5000120000000  0.5453360000000 1.0
C      1  0.5000020000000  0.4546680000000  0.5231060000000 1.0
C      1  0.4999990000000  0.5453430000000  0.5230840000000 1.0
C      1  0.5000010000000  0.4546570000000  0.4769160000000 1.0
C      1  0.5453360000000  0.5230970000000  0.4999930000000 1.0
C      1  0.4546640000000  0.4769030000000  0.5000070000000 1.0
C      1  0.4546620000000  0.5230940000000  0.4999960000000 1.0
C      1  0.4361710000000  0.4999830000000  0.4361750000000 1.0
C      1  0.4361750000000  0.4361710000000  0.5000170000000 1.0
C      1  0.4999960000000  0.5638120000000  0.4361570000000 1.0
C      1  0.5000040000000  0.4361880000000  0.5638430000000 1.0
C      1  0.4361750000000  0.5000130000000  0.5638290000000 1.0
C      1  0.5638250000000  0.4999870000000  0.4361710000000 1.0
C      1  0.5638290000000  0.5000170000000  0.5638250000000 1.0
C      1  0.4361710000000  0.5638250000000  0.4999870000000 1.0
C      1  0.5638250000000  0.5638290000000  0.4999830000000 1.0
C      1  0.5638290000000  0.4361750000000  0.5000130000000 1.0
C      1  0.5000000000000  0.4361570000000  0.4361880000000 1.0
C      1  0.5000000000000  0.5638430000000  0.5638120000000 1.0
END
