TITL C-8706-7473-54 -7.14702094392712e-06 125000 -355.792833100608 0 0 60 (C1) n - 1
REM
REM in /home/bkarasulu/CARBON/AIRSS/Generating-Clusters/EDIP-Nigel-Params/Higher-Symm/Box-15A/Only-C60/SD-CG/HFTN-CG
REM
REM
REM
REM
REM
REM ./C.cell (414f73aa93bd7a1190c7fd0f31ff2f98)
REM
REM compiler GCC version 9.2.1 20190827 (Red Hat 9.2.1-1)
REM options -cpp -mtune=generic -march=x86-64 -g -O0 -fpre-include=/usr/include/finclude/math-vector-fortran.h
REM seed -973459338 -1710455840 799665178 2060601118 747004854 1303496782 1234426783 1847047648 539958021 1524040273 -1981552800 -1854747216 -811174455 2054101884 1727596471 232729036 -1465560272 761233739 663117254 320356143 1823304896 260378447 -1540176857 -2147089160 2108321326 435243156 -1191248406 1885185237 2002665617 256790574 508641588 -373164047 2098771318
REM
CELL 1.54180   50.00000   50.00000   50.00000   90.00000   90.00000   90.00000
LATT -1
SFAC C  
C      1  0.4723080000000  0.4503590000000  0.4488410000000 1.0
C      1  0.4706780000000  0.5342340000000  0.4372110000000 1.0
C      1  0.4699860000000  0.5703110000000  0.5125270000000 1.0
C      1  0.4716890000000  0.5096750000000  0.5706720000000 1.0
C      1  0.4711550000000  0.4354900000000  0.5308850000000 1.0
C      1  0.4948730000000  0.4214570000000  0.5264250000000 1.0
C      1  0.4963080000000  0.4501450000000  0.4345570000000 1.0
C      1  0.4945370000000  0.5481830000000  0.4329780000000 1.0
C      1  0.4942010000000  0.5786330000000  0.5237790000000 1.0
C      1  0.4960580000000  0.5016260000000  0.5818010000000 1.0
C      1  0.5446130000000  0.4325350000000  0.5144930000000 1.0
C      1  0.5462610000000  0.4643200000000  0.4413880000000 1.0
C      1  0.5445190000000  0.5459270000000  0.4486210000000 1.0
C      1  0.5441320000000  0.5627770000000  0.5269570000000 1.0
C      1  0.5461000000000  0.4936680000000  0.5680510000000 1.0
C      1  0.4466010000000  0.4964050000000  0.5253940000000 1.0
C      1  0.4463300000000  0.4744500000000  0.5045650000000 1.0
C      1  0.4469350000000  0.4876230000000  0.4773240000000 1.0
C      1  0.4461130000000  0.5175990000000  0.4813620000000 1.0
C      1  0.4459600000000  0.5229660000000  0.5110040000000 1.0
C      1  0.5288140000000  0.5213010000000  0.4866460000000 1.0
C      1  0.5290210000000  0.5182110000000  0.5175400000000 1.0
C      1  0.5291250000000  0.4889330000000  0.5239860000000 1.0
C      1  0.5270310000000  0.4737360000000  0.4973870000000 1.0
C      1  0.5289180000000  0.4938940000000  0.4743930000000 1.0
C      1  0.4557980000000  0.4910040000000  0.5541150000000 1.0
C      1  0.4551750000000  0.4455660000000  0.5082600000000 1.0
C      1  0.4561500000000  0.4749790000000  0.4510400000000 1.0
C      1  0.4545070000000  0.5390340000000  0.4614610000000 1.0
C      1  0.4543560000000  0.5485640000000  0.5249650000000 1.0
C      1  0.5214410000000  0.4219130000000  0.5228780000000 1.0
C      1  0.5229480000000  0.4531480000000  0.4340610000000 1.0
C      1  0.5211600000000  0.5496920000000  0.4359360000000 1.0
C      1  0.5208030000000  0.5760380000000  0.5261220000000 1.0
C      1  0.5226820000000  0.4986950000000  0.5802550000000 1.0
C      1  0.5500380000000  0.5356900000000  0.5305250000000 1.0
C      1  0.5509370000000  0.4817420000000  0.5431960000000 1.0
C      1  0.5492840000000  0.4532110000000  0.4962770000000 1.0
C      1  0.5507160000000  0.4885770000000  0.4546090000000 1.0
C      1  0.5497570000000  0.5399770000000  0.4754100000000 1.0
C      1  0.5733190000000  0.4903430000000  0.5242440000000 1.0
C      1  0.5727260000000  0.4734330000000  0.4983030000000 1.0
C      1  0.5731580000000  0.4933640000000  0.4746800000000 1.0
C      1  0.5733020000000  0.5225780000000  0.4857190000000 1.0
C      1  0.5734490000000  0.5206930000000  0.5167480000000 1.0
C      1  0.4978140000000  0.5202620000000  0.5184520000000 1.0
C      1  0.4905980000000  0.4917200000000  0.5225730000000 1.0
C      1  0.4959690000000  0.4762600000000  0.4977790000000 1.0
C      1  0.4903800000000  0.4965930000000  0.4768550000000 1.0
C      1  0.4974740000000  0.5236970000000  0.4867920000000 1.0
C      1  0.4679000000000  0.5363860000000  0.5656730000000 1.0
C      1  0.4678970000000  0.4481880000000  0.5549440000000 1.0
C      1  0.4684300000000  0.4313400000000  0.4682030000000 1.0
C      1  0.4681160000000  0.5095360000000  0.4256050000000 1.0
C      1  0.4658760000000  0.5745660000000  0.4857460000000 1.0
C      1  0.4512500000000  0.4269000000000  0.4879150000000 1.0
C      1  0.4524040000000  0.4882470000000  0.4268050000000 1.0
C      1  0.4495470000000  0.5659810000000  0.4666990000000 1.0
C      1  0.4506760000000  0.5515770000000  0.5524330000000 1.0
C      1  0.4516990000000  0.4660510000000  0.5659360000000 1.0
END
