TITL C-8702-7969-116 4.93921604058577e-07 125000 -351.473385519591 0 0 60 (S4) n - 1
REM
REM in /home/bkarasulu/CARBON/AIRSS/Generating-Clusters/EDIP-Nigel-Params/Higher-Symm/Box-15A/Only-C60/SD-CG/HFTN-CG
REM
REM
REM
REM
REM
REM ./C.cell (414f73aa93bd7a1190c7fd0f31ff2f98)
REM
REM compiler GCC version 9.2.1 20190827 (Red Hat 9.2.1-1)
REM options -cpp -mtune=generic -march=x86-64 -g -O0 -fpre-include=/usr/include/finclude/math-vector-fortran.h
REM seed -1982101012 -29678766 23519120 -279484390 -1884662506 -203517974 1951962097 -1203771264 83806332 -971642762 -839019985 -981428268 1121424206 1682614247 -1450790740 1076842983 993406799 2116915211 -72231311 908798347 831718725 1397729379 -859479558 -735449136 -1188631809 -969244574 2062075439 -177268071 -114826877 -830451025 -1822646762 49500923 40084519
REM
CELL 1.54180   50.00000   50.00000   50.00000   90.00000   90.00000   90.00000
LATT -1
SFAC C  
C      1  0.5920490000000  0.4802420000000  0.4932250000000 1.0
C      1  0.4792790000000  0.5065160000000  0.5922850000000 1.0
C      1  0.5073890000000  0.5913610000000  0.4794940000000 1.0
C      1  0.4077620000000  0.4810770000000  0.5065770000000 1.0
C      1  0.4080850000000  0.5207530000000  0.4935670000000 1.0
C      1  0.5921130000000  0.5197830000000  0.5066410000000 1.0
C      1  0.5207880000000  0.5072600000000  0.4077860000000 1.0
C      1  0.5208520000000  0.4915960000000  0.5923820000000 1.0
C      1  0.4790710000000  0.4927500000000  0.4075380000000 1.0
C      1  0.4935060000000  0.5912140000000  0.5214440000000 1.0
C      1  0.5057540000000  0.4087570000000  0.4796160000000 1.0
C      1  0.4933500000000  0.4086130000000  0.5194460000000 1.0
C      1  0.4933610000000  0.4792910000000  0.5919100000000 1.0
C      1  0.5924610000000  0.5074810000000  0.4791480000000 1.0
C      1  0.4805330000000  0.5914440000000  0.4942680000000 1.0
C      1  0.5064400000000  0.4801720000000  0.4078820000000 1.0
C      1  0.4934210000000  0.5198470000000  0.4079560000000 1.0
C      1  0.5067690000000  0.5188350000000  0.5922420000000 1.0
C      1  0.4076160000000  0.5081730000000  0.5209330000000 1.0
C      1  0.5922160000000  0.4925530000000  0.5207170000000 1.0
C      1  0.4077170000000  0.4936710000000  0.4792120000000 1.0
C      1  0.5203630000000  0.5911850000000  0.5066700000000 1.0
C      1  0.4785780000000  0.4088510000000  0.4925900000000 1.0
C      1  0.5205270000000  0.4085740000000  0.5064720000000 1.0
C      1  0.5262730000000  0.4942490000000  0.4532580000000 1.0
C      1  0.4928800000000  0.4518010000000  0.5274330000000 1.0
C      1  0.4514810000000  0.5278830000000  0.4933340000000 1.0
C      1  0.4736690000000  0.4940270000000  0.5466820000000 1.0
C      1  0.4733070000000  0.5061870000000  0.4526860000000 1.0
C      1  0.5267500000000  0.5054390000000  0.5473740000000 1.0
C      1  0.5066490000000  0.4520170000000  0.4720730000000 1.0
C      1  0.5059450000000  0.5453810000000  0.5264010000000 1.0
C      1  0.4945020000000  0.5457060000000  0.4740670000000 1.0
C      1  0.5487900000000  0.5273360000000  0.5069490000000 1.0
C      1  0.5487920000000  0.4724120000000  0.4928670000000 1.0
C      1  0.4509400000000  0.4728200000000  0.5068520000000 1.0
C      1  0.4526270000000  0.4942820000000  0.5266930000000 1.0
C      1  0.5259440000000  0.4543580000000  0.4940440000000 1.0
C      1  0.4931430000000  0.5276700000000  0.4512150000000 1.0
C      1  0.5473160000000  0.4940920000000  0.4732480000000 1.0
C      1  0.4533170000000  0.5062260000000  0.4737290000000 1.0
C      1  0.5467400000000  0.5054980000000  0.5263310000000 1.0
C      1  0.4736090000000  0.4545560000000  0.5054880000000 1.0
C      1  0.5279160000000  0.5479200000000  0.5071310000000 1.0
C      1  0.4725560000000  0.5482620000000  0.4933630000000 1.0
C      1  0.5071250000000  0.5270990000000  0.5490660000000 1.0
C      1  0.4930560000000  0.4721740000000  0.5485130000000 1.0
C      1  0.5066730000000  0.4726070000000  0.4512030000000 1.0
C      1  0.4812480000000  0.5622730000000  0.5201750000000 1.0
C      1  0.5633740000000  0.5191490000000  0.4802690000000 1.0
C      1  0.5197340000000  0.4802210000000  0.5631790000000 1.0
C      1  0.5193630000000  0.5622900000000  0.4804650000000 1.0
C      1  0.5195490000000  0.4375230000000  0.5187370000000 1.0
C      1  0.4798400000000  0.4379130000000  0.4806230000000 1.0
C      1  0.4368160000000  0.5195660000000  0.5199300000000 1.0
C      1  0.4366720000000  0.4816230000000  0.4803750000000 1.0
C      1  0.5631440000000  0.4808020000000  0.5194320000000 1.0
C      1  0.4800760000000  0.4810650000000  0.4366230000000 1.0
C      1  0.4805620000000  0.5185590000000  0.5633330000000 1.0
C      1  0.5196220000000  0.5190170000000  0.4368600000000 1.0
END
