TITL C-8700-8172-266 1.22662255403566e-05 125000 -367.728578350944 0 0 60 (C1) n - 1
REM
REM in /home/bkarasulu/CARBON/AIRSS/Generating-Clusters/EDIP-Nigel-Params/Higher-Symm/Box-15A/Only-C60/SD-CG/HFTN-CG
REM
REM
REM
REM
REM
REM ./C.cell (414f73aa93bd7a1190c7fd0f31ff2f98)
REM
REM compiler GCC version 9.2.1 20190827 (Red Hat 9.2.1-1)
REM options -cpp -mtune=generic -march=x86-64 -g -O0 -fpre-include=/usr/include/finclude/math-vector-fortran.h
REM seed -1724090398 -2095866176 -1769532616 1285358259 -1598540900 -713436298 228318230 -177737428 726146927 -1783891971 1269982278 -622159873 -843891133 -1952553873 471392166 -533428354 -873226129 -1028816080 -923928849 2034305365 1656307509 547531876 -2058426885 1246565497 -1835502812 -269253001 2002899595 1659863313 15888357 2145618328 951500405 1266018482 1867779917
REM
CELL 1.54180   50.00000   50.00000   50.00000   90.00000   90.00000   90.00000
LATT -1
SFAC C  
C      1  0.5462380000000  0.5418780000000  0.5202940000000 1.0
C      1  0.5180320000000  0.5339660000000  0.5591290000000 1.0
C      1  0.4988930000000  0.5135330000000  0.5709560000000 1.0
C      1  0.5261180000000  0.5006410000000  0.4700320000000 1.0
C      1  0.4538180000000  0.4664000000000  0.4688590000000 1.0
C      1  0.5722490000000  0.5350540000000  0.5125370000000 1.0
C      1  0.4965600000000  0.5079330000000  0.4583070000000 1.0
C      1  0.4643930000000  0.4722450000000  0.4961130000000 1.0
C      1  0.5385970000000  0.5275420000000  0.4747680000000 1.0
C      1  0.4565020000000  0.4902050000000  0.4518910000000 1.0
C      1  0.4677120000000  0.4477630000000  0.5346750000000 1.0
C      1  0.5234090000000  0.4302020000000  0.5049650000000 1.0
C      1  0.5724300000000  0.4866650000000  0.5012290000000 1.0
C      1  0.5001730000000  0.4730420000000  0.4318560000000 1.0
C      1  0.5169290000000  0.4401570000000  0.5333730000000 1.0
C      1  0.4764080000000  0.4889050000000  0.4314380000000 1.0
C      1  0.5045530000000  0.5722930000000  0.4616170000000 1.0
C      1  0.4912610000000  0.4368040000000  0.4641810000000 1.0
C      1  0.4794450000000  0.5549900000000  0.4551560000000 1.0
C      1  0.4502500000000  0.4574400000000  0.5164950000000 1.0
C      1  0.4481970000000  0.4786960000000  0.5876350000000 1.0
C      1  0.4642950000000  0.4421650000000  0.4589270000000 1.0
C      1  0.4388110000000  0.5171550000000  0.5046710000000 1.0
C      1  0.5095440000000  0.5684600000000  0.4915110000000 1.0
C      1  0.5342610000000  0.4712640000000  0.5674250000000 1.0
C      1  0.5352300000000  0.5211500000000  0.5384470000000 1.0
C      1  0.5222260000000  0.4848720000000  0.4979800000000 1.0
C      1  0.5490040000000  0.4721410000000  0.5055830000000 1.0
C      1  0.5457260000000  0.5426330000000  0.4527940000000 1.0
C      1  0.4695190000000  0.5446370000000  0.4814260000000 1.0
C      1  0.5056050000000  0.5574280000000  0.5490860000000 1.0
C      1  0.4965110000000  0.4879600000000  0.5414440000000 1.0
C      1  0.4819630000000  0.5631360000000  0.5039660000000 1.0
C      1  0.4414010000000  0.5324330000000  0.4793980000000 1.0
C      1  0.5466760000000  0.4880580000000  0.4261100000000 1.0
C      1  0.5823280000000  0.5111590000000  0.5054850000000 1.0
C      1  0.4831760000000  0.5532510000000  0.5324070000000 1.0
C      1  0.5217630000000  0.4828600000000  0.4171310000000 1.0
C      1  0.4639610000000  0.5014310000000  0.5018520000000 1.0
C      1  0.5092540000000  0.4838370000000  0.5687090000000 1.0
C      1  0.5462530000000  0.4833000000000  0.4539530000000 1.0
C      1  0.5155160000000  0.5035160000000  0.5222290000000 1.0
C      1  0.5076180000000  0.4586020000000  0.4562260000000 1.0
C      1  0.4833680000000  0.5180880000000  0.4860890000000 1.0
C      1  0.4984480000000  0.4264010000000  0.4898370000000 1.0
C      1  0.4953890000000  0.4637120000000  0.4984260000000 1.0
C      1  0.5367780000000  0.4502530000000  0.5505450000000 1.0
C      1  0.4611760000000  0.5382780000000  0.5442770000000 1.0
C      1  0.4281640000000  0.4895570000000  0.5732140000000 1.0
C      1  0.4697620000000  0.5162100000000  0.5616970000000 1.0
C      1  0.4392340000000  0.5335710000000  0.5274400000000 1.0
C      1  0.4501630000000  0.5060140000000  0.5802690000000 1.0
C      1  0.5444560000000  0.4472690000000  0.4899750000000 1.0
C      1  0.5217850000000  0.5531610000000  0.4426460000000 1.0
C      1  0.4418660000000  0.5137250000000  0.4581730000000 1.0
C      1  0.5362300000000  0.4561650000000  0.4614150000000 1.0
C      1  0.5039130000000  0.5245630000000  0.5060360000000 1.0
C      1  0.4969640000000  0.5339540000000  0.4412560000000 1.0
C      1  0.5258460000000  0.5422680000000  0.4974750000000 1.0
C      1  0.4936480000000  0.4590070000000  0.5289650000000 1.0
END
