TITL C-8702-7969-128 -5.00530112591232e-07 125000 -362.36892885489 0 0 60 (D5) n - 1
REM
REM in /home/bkarasulu/CARBON/AIRSS/Generating-Clusters/EDIP-Nigel-Params/Higher-Symm/Box-15A/Only-C60/SD-CG/HFTN-CG
REM
REM
REM
REM
REM
REM ./C.cell (414f73aa93bd7a1190c7fd0f31ff2f98)
REM
REM compiler GCC version 9.2.1 20190827 (Red Hat 9.2.1-1)
REM options -cpp -mtune=generic -march=x86-64 -g -O0 -fpre-include=/usr/include/finclude/math-vector-fortran.h
REM seed 1885852020 17943480 1779565732 -1767834491 2133047165 -1220600217 1224605709 -1952011566 938314501 2097497781 -677967369 -82134029 455964842 180948070 1709597001 -1790414890 1949385923 1862263284 799593542 -1821583900 -1926518764 247701250 -1324698017 2001682150 -2027897327 964607114 1388251243 159018121 2026390583 1145520673 610409116 -772562660 -30533162
REM
CELL 1.54180   50.00000   50.00000   50.00000   90.00000   90.00000   90.00000
LATT -1
SFAC C  
C      1  0.4376640000000  0.4682770000000  0.5457130000000 1.0
C      1  0.4938540000000  0.4303430000000  0.4544770000000 1.0
C      1  0.5108520000000  0.4309390000000  0.5457670000000 1.0
C      1  0.5644040000000  0.4726030000000  0.4545720000000 1.0
C      1  0.5689780000000  0.4890070000000  0.5458580000000 1.0
C      1  0.5460140000000  0.5527590000000  0.4545970000000 1.0
C      1  0.5317150000000  0.5622320000000  0.5458600000000 1.0
C      1  0.4640980000000  0.5600390000000  0.4545180000000 1.0
C      1  0.4505580000000  0.5494200000000  0.5457710000000 1.0
C      1  0.4318610000000  0.4843810000000  0.4544440000000 1.0
C      1  0.5061580000000  0.4708250000000  0.4835920000000 1.0
C      1  0.5121900000000  0.4727810000000  0.5163950000000 1.0
C      1  0.5296700000000  0.4968310000000  0.4836300000000 1.0
C      1  0.5296340000000  0.5031920000000  0.5164300000000 1.0
C      1  0.5122020000000  0.5272290000000  0.4836290000000 1.0
C      1  0.5061020000000  0.5291800000000  0.5164200000000 1.0
C      1  0.4778940000000  0.5200100000000  0.4835900000000 1.0
C      1  0.4741140000000  0.5148300000000  0.5163800000000 1.0
C      1  0.4741590000000  0.4851500000000  0.4835670000000 1.0
C      1  0.4778770000000  0.4799730000000  0.5163650000000 1.0
C      1  0.5597510000000  0.4928130000000  0.4751190000000 1.0
C      1  0.5596940000000  0.5072340000000  0.5250030000000 1.0
C      1  0.5253300000000  0.5545910000000  0.4751180000000 1.0
C      1  0.5115360000000  0.5590230000000  0.5249820000000 1.0
C      1  0.4559390000000  0.5409450000000  0.4750400000000 1.0
C      1  0.4474000000000  0.5292250000000  0.5249010000000 1.0
C      1  0.4474740000000  0.4707340000000  0.4749920000000 1.0
C      1  0.4559210000000  0.4590200000000  0.5248710000000 1.0
C      1  0.5116330000000  0.4409860000000  0.4750410000000 1.0
C      1  0.5253220000000  0.4454290000000  0.5249340000000 1.0
C      1  0.4463520000000  0.4934690000000  0.5564240000000 1.0
C      1  0.4773540000000  0.4510550000000  0.4434680000000 1.0
C      1  0.4895640000000  0.4469930000000  0.5564430000000 1.0
C      1  0.5396210000000  0.4633040000000  0.4435380000000 1.0
C      1  0.5471190000000  0.4737280000000  0.5565160000000 1.0
C      1  0.5472130000000  0.5263090000000  0.4435800000000 1.0
C      1  0.5394770000000  0.5367270000000  0.5565430000000 1.0
C      1  0.4896370000000  0.5529990000000  0.4435360000000 1.0
C      1  0.4772000000000  0.5489270000000  0.5564860000000 1.0
C      1  0.4464620000000  0.5064890000000  0.4434670000000 1.0
C      1  0.4317570000000  0.5155650000000  0.5454180000000 1.0
C      1  0.4506900000000  0.4505410000000  0.4541290000000 1.0
C      1  0.4640530000000  0.4399330000000  0.5454090000000 1.0
C      1  0.5318570000000  0.4377930000000  0.4542050000000 1.0
C      1  0.5459630000000  0.4472770000000  0.5454960000000 1.0
C      1  0.5690630000000  0.5110480000000  0.4542830000000 1.0
C      1  0.5642900000000  0.5274480000000  0.5455590000000 1.0
C      1  0.5108900000000  0.5690700000000  0.4542550000000 1.0
C      1  0.4937070000000  0.5696520000000  0.5455100000000 1.0
C      1  0.4377320000000  0.5316740000000  0.4541610000000 1.0
C      1  0.4898400000000  0.4776340000000  0.4428880000000 1.0
C      1  0.4950630000000  0.4758390000000  0.5570710000000 1.0
C      1  0.5182010000000  0.4833930000000  0.4429200000000 1.0
C      1  0.5213830000000  0.4878720000000  0.5571050000000 1.0
C      1  0.5214890000000  0.5121450000000  0.4429390000000 1.0
C      1  0.5180720000000  0.5166220000000  0.5571170000000 1.0
C      1  0.4951600000000  0.5241570000000  0.4429190000000 1.0
C      1  0.4897060000000  0.5223580000000  0.5570910000000 1.0
C      1  0.4756000000000  0.5028280000000  0.4428870000000 1.0
C      1  0.4754860000000  0.4971530000000  0.5570630000000 1.0
END
