TITL C-8703-8361-92 2.29961062669883e-06 125000 -361.588394140302 0 0 60 (C5) n - 1
REM
REM in /home/bkarasulu/CARBON/AIRSS/Generating-Clusters/EDIP-Nigel-Params/Higher-Symm/Box-15A/Only-C60/SD-CG/HFTN-CG
REM
REM
REM
REM
REM
REM ./C.cell (414f73aa93bd7a1190c7fd0f31ff2f98)
REM
REM compiler GCC version 9.2.1 20190827 (Red Hat 9.2.1-1)
REM options -cpp -mtune=generic -march=x86-64 -g -O0 -fpre-include=/usr/include/finclude/math-vector-fortran.h
REM seed 1603130167 1127664554 -1613468226 -1741005309 -453875621 1148562693 776406081 1837375774 -1261538508 -589750047 1228487942 530557286 296653995 -1320094047 -831914389 1258514356 91894413 1655788935 -1123604253 -1469049283 -1457657241 -94930827 70955287 1524948043 -2051551469 936977896 910461337 -1424388646 1377354176 1927087627 -82127543 2127604998 -176121911
REM
CELL 1.54180   50.00000   50.00000   50.00000   90.00000   90.00000   90.00000
LATT -1
SFAC C  
C      1  0.4539300000000  0.4929790000000  0.5510080000000 1.0
C      1  0.4539350000000  0.5463470000000  0.5224390000000 1.0
C      1  0.4539400000000  0.5356690000000  0.4628540000000 1.0
C      1  0.4539380000000  0.4757000000000  0.4545980000000 1.0
C      1  0.4539310000000  0.4493170000000  0.5090800000000 1.0
C      1  0.5372540000000  0.4701650000000  0.4940000000000 1.0
C      1  0.5372520000000  0.4850700000000  0.5265220000000 1.0
C      1  0.5372540000000  0.5206050000000  0.5223960000000 1.0
C      1  0.5372580000000  0.5276620000000  0.4873240000000 1.0
C      1  0.5372580000000  0.4964880000000  0.4697750000000 1.0
C      1  0.4379690000000  0.4971700000000  0.5255990000000 1.0
C      1  0.4379720000000  0.5234790000000  0.5106010000000 1.0
C      1  0.4379740000000  0.5173450000000  0.4809450000000 1.0
C      1  0.4379730000000  0.4872450000000  0.4776140000000 1.0
C      1  0.4379700000000  0.4747760000000  0.5052120000000 1.0
C      1  0.5323620000000  0.5452920000000  0.5400060000000 1.0
C      1  0.5323680000000  0.5520400000000  0.4692880000000 1.0
C      1  0.5323670000000  0.4868690000000  0.4410170000000 1.0
C      1  0.5323600000000  0.4398420000000  0.4942620000000 1.0
C      1  0.5323570000000  0.4759490000000  0.5554410000000 1.0
C      1  0.4908090000000  0.4840610000000  0.4245570000000 1.0
C      1  0.4908000000000  0.4233250000000  0.4918460000000 1.0
C      1  0.4907960000000  0.4685520000000  0.5704020000000 1.0
C      1  0.4908020000000  0.5572400000000  0.5516640000000 1.0
C      1  0.4908100000000  0.5668250000000  0.4615270000000 1.0
C      1  0.5686370000000  0.5239410000000  0.4913810000000 1.0
C      1  0.5686380000000  0.4991930000000  0.4745680000000 1.0
C      1  0.5686350000000  0.4755550000000  0.4929100000000 1.0
C      1  0.5686330000000  0.4856950000000  0.5210580000000 1.0
C      1  0.5686340000000  0.5155990000000  0.5201130000000 1.0
C      1  0.5041520000000  0.5166830000000  0.5707130000000 1.0
C      1  0.5041610000000  0.5724060000000  0.5059850000000 1.0
C      1  0.5041650000000  0.5280670000000  0.4329870000000 1.0
C      1  0.5041590000000  0.4449390000000  0.4525990000000 1.0
C      1  0.5041510000000  0.4379040000000  0.5377180000000 1.0
C      1  0.5242220000000  0.4312210000000  0.5196650000000 1.0
C      1  0.5242210000000  0.4974460000000  0.5714900000000 1.0
C      1  0.5242290000000  0.5671980000000  0.5245210000000 1.0
C      1  0.5242350000000  0.5440840000000  0.4436680000000 1.0
C      1  0.5242310000000  0.4600450000000  0.4406670000000 1.0
C      1  0.4934350000000  0.5231550000000  0.4895020000000 1.0
C      1  0.4934350000000  0.4971720000000  0.4747340000000 1.0
C      1  0.4934320000000  0.4750980000000  0.4948820000000 1.0
C      1  0.4934300000000  0.4874380000000  0.5221020000000 1.0
C      1  0.4934320000000  0.5171390000000  0.5187770000000 1.0
C      1  0.4678530000000  0.5168990000000  0.5610450000000 1.0
C      1  0.4678600000000  0.5632830000000  0.5027920000000 1.0
C      1  0.4678640000000  0.5222140000000  0.4406770000000 1.0
C      1  0.4678580000000  0.4504490000000  0.4605400000000 1.0
C      1  0.4678510000000  0.4471630000000  0.5349320000000 1.0
C      1  0.4763580000000  0.4739940000000  0.5448750000000 1.0
C      1  0.4763620000000  0.5346450000000  0.5386000000000 1.0
C      1  0.4763680000000  0.5474200000000  0.4789780000000 1.0
C      1  0.4763680000000  0.4946640000000  0.4484050000000 1.0
C      1  0.4763620000000  0.4492840000000  0.4891310000000 1.0
C      1  0.5129940000000  0.5430670000000  0.5622170000000 1.0
C      1  0.5130030000000  0.5724790000000  0.4782670000000 1.0
C      1  0.5130040000000  0.5017260000000  0.4243530000000 1.0
C      1  0.5129960000000  0.4285880000000  0.4749820000000 1.0
C      1  0.5129900000000  0.4541370000000  0.5601860000000 1.0
END
