TITL C-8702-7969-131 -1.02995804820731e-05 125000 -368.221432447253 0 0 60 (C1) n - 1
REM
REM in /home/bkarasulu/CARBON/AIRSS/Generating-Clusters/EDIP-Nigel-Params/Higher-Symm/Box-15A/Only-C60/SD-CG/HFTN-CG
REM
REM
REM
REM
REM
REM ./C.cell (414f73aa93bd7a1190c7fd0f31ff2f98)
REM
REM compiler GCC version 9.2.1 20190827 (Red Hat 9.2.1-1)
REM options -cpp -mtune=generic -march=x86-64 -g -O0 -fpre-include=/usr/include/finclude/math-vector-fortran.h
REM seed 1513548924 -1933117688 32416841 -1274347882 1195954525 -1749011689 -2031808193 325463909 1737286342 -1827398134 -1957905027 1376079591 -188789746 259074565 1103390926 -666960340 616978380 419980266 2053270530 -35778955 -149092957 200162793 737101408 1252976754 -129088245 -1142527452 -1063854533 605534560 -562994987 2017194155 355269476 1307260086 -1751174407
REM
CELL 1.54180   50.00000   50.00000   50.00000   90.00000   90.00000   90.00000
LATT -1
SFAC C  
C      1  0.4532710000000  0.5153760000000  0.4469910000000 1.0
C      1  0.5111500000000  0.5079280000000  0.5068180000000 1.0
C      1  0.4265010000000  0.4909160000000  0.5186830000000 1.0
C      1  0.4829930000000  0.5094020000000  0.5077600000000 1.0
C      1  0.4347270000000  0.5169600000000  0.5590820000000 1.0
C      1  0.4438450000000  0.4710010000000  0.4622660000000 1.0
C      1  0.5659750000000  0.4908630000000  0.5389390000000 1.0
C      1  0.4519960000000  0.4875130000000  0.4387630000000 1.0
C      1  0.4826140000000  0.5508290000000  0.5575470000000 1.0
C      1  0.4957060000000  0.4412140000000  0.5414440000000 1.0
C      1  0.4706620000000  0.5673070000000  0.5079470000000 1.0
C      1  0.4843240000000  0.5232390000000  0.5660870000000 1.0
C      1  0.4997260000000  0.5637850000000  0.5124630000000 1.0
C      1  0.4436090000000  0.5403730000000  0.5177360000000 1.0
C      1  0.4466190000000  0.5160090000000  0.4748300000000 1.0
C      1  0.4431800000000  0.4713410000000  0.5334770000000 1.0
C      1  0.5059030000000  0.5573170000000  0.5411970000000 1.0
C      1  0.4653140000000  0.4802210000000  0.5495040000000 1.0
C      1  0.5709900000000  0.4653200000000  0.4835550000000 1.0
C      1  0.5044290000000  0.5218590000000  0.4716360000000 1.0
C      1  0.5418530000000  0.4756300000000  0.5385300000000 1.0
C      1  0.4759120000000  0.5327270000000  0.4394650000000 1.0
C      1  0.5781170000000  0.5151600000000  0.5006280000000 1.0
C      1  0.5695730000000  0.5176930000000  0.5291360000000 1.0
C      1  0.5175300000000  0.4362240000000  0.5240190000000 1.0
C      1  0.5442510000000  0.5313250000000  0.5244760000000 1.0
C      1  0.4871450000000  0.5487470000000  0.4638230000000 1.0
C      1  0.4723100000000  0.4281390000000  0.5324220000000 1.0
C      1  0.4833620000000  0.4662530000000  0.4420330000000 1.0
C      1  0.4800900000000  0.4582530000000  0.4919330000000 1.0
C      1  0.5633580000000  0.5351800000000  0.4836600000000 1.0
C      1  0.5117220000000  0.5134620000000  0.5592270000000 1.0
C      1  0.5265160000000  0.4891500000000  0.4913390000000 1.0
C      1  0.4730050000000  0.5329940000000  0.5251510000000 1.0
C      1  0.5640440000000  0.4962770000000  0.4400750000000 1.0
C      1  0.4611400000000  0.5071330000000  0.5585020000000 1.0
C      1  0.5585720000000  0.4871130000000  0.4998520000000 1.0
C      1  0.5421450000000  0.5156500000000  0.4371210000000 1.0
C      1  0.4418030000000  0.5410510000000  0.4874420000000 1.0
C      1  0.4411760000000  0.4897380000000  0.4869460000000 1.0
C      1  0.4668200000000  0.4833760000000  0.5053070000000 1.0
C      1  0.4685290000000  0.4553250000000  0.4642390000000 1.0
C      1  0.4924620000000  0.4689970000000  0.5481780000000 1.0
C      1  0.5428180000000  0.4493830000000  0.5239820000000 1.0
C      1  0.5582420000000  0.4734900000000  0.4573300000000 1.0
C      1  0.5090530000000  0.4778520000000  0.4466330000000 1.0
C      1  0.5320430000000  0.4605340000000  0.4538260000000 1.0
C      1  0.5265350000000  0.5365920000000  0.5469660000000 1.0
C      1  0.4700400000000  0.4353400000000  0.5062030000000 1.0
C      1  0.4272940000000  0.5181240000000  0.5317550000000 1.0
C      1  0.5167760000000  0.4847800000000  0.5521190000000 1.0
C      1  0.5538690000000  0.4431850000000  0.4949440000000 1.0
C      1  0.5122560000000  0.4597150000000  0.4941030000000 1.0
C      1  0.5466800000000  0.5144900000000  0.4697300000000 1.0
C      1  0.4945480000000  0.5195280000000  0.4227420000000 1.0
C      1  0.5124360000000  0.5076940000000  0.4425440000000 1.0
C      1  0.5165570000000  0.5539350000000  0.4894420000000 1.0
C      1  0.5286180000000  0.4416170000000  0.4762960000000 1.0
C      1  0.5440130000000  0.5489910000000  0.5011210000000 1.0
C      1  0.4632560000000  0.5603790000000  0.4800320000000 1.0
END
