TITL C-8701-7969-215 -3.07767143100916e-06 125000 -363.98981404504 0 0 60 (C1) n - 1
REM
REM in /home/bkarasulu/CARBON/AIRSS/Generating-Clusters/EDIP-Nigel-Params/Higher-Symm/Box-15A/Only-C60/SD-CG/HFTN-CG
REM
REM
REM
REM
REM
REM ./C.cell (414f73aa93bd7a1190c7fd0f31ff2f98)
REM
REM compiler GCC version 9.2.1 20190827 (Red Hat 9.2.1-1)
REM options -cpp -mtune=generic -march=x86-64 -g -O0 -fpre-include=/usr/include/finclude/math-vector-fortran.h
REM seed -1152934043 840571461 -1527829876 458634023 1160324771 -1930966513 1898797033 -718374785 -2143749764 1180172668 -2138656838 -2066185633 -1173131403 1277177428 -487408359 1115760310 1132506336 -1300765754 233705669 -1028415644 -2050839671 335451190 105531361 -1937982549 202139753 -946716174 -1120457583 -1897342232 1999866468 1648909227 -590998539 334340557 -1643666764
REM
CELL 1.54180   50.00000   50.00000   50.00000   90.00000   90.00000   90.00000
LATT -1
SFAC C  
C      1  0.4799380000000  0.4401530000000  0.4592340000000 1.0
C      1  0.5099880000000  0.5388060000000  0.4733670000000 1.0
C      1  0.5092310000000  0.4398230000000  0.4631650000000 1.0
C      1  0.4897000000000  0.5573320000000  0.4641010000000 1.0
C      1  0.5072680000000  0.5182700000000  0.4508270000000 1.0
C      1  0.4897350000000  0.4736970000000  0.4422710000000 1.0
C      1  0.5140400000000  0.4549100000000  0.4885400000000 1.0
C      1  0.4708460000000  0.5690910000000  0.4810730000000 1.0
C      1  0.5502410000000  0.5178720000000  0.4522470000000 1.0
C      1  0.4408260000000  0.4929570000000  0.4393620000000 1.0
C      1  0.4600810000000  0.4821700000000  0.5609780000000 1.0
C      1  0.5393640000000  0.5239270000000  0.5628660000000 1.0
C      1  0.4508510000000  0.5242400000000  0.5335660000000 1.0
C      1  0.5455380000000  0.4806220000000  0.5381360000000 1.0
C      1  0.4605350000000  0.5042030000000  0.4185030000000 1.0
C      1  0.5239510000000  0.5041670000000  0.4264960000000 1.0
C      1  0.4651590000000  0.4525630000000  0.5099520000000 1.0
C      1  0.5323280000000  0.5587300000000  0.5129050000000 1.0
C      1  0.4437640000000  0.4701100000000  0.4688990000000 1.0
C      1  0.5582270000000  0.5332390000000  0.4759470000000 1.0
C      1  0.5299210000000  0.4600720000000  0.5525600000000 1.0
C      1  0.4676680000000  0.5432320000000  0.5500270000000 1.0
C      1  0.5296380000000  0.5087300000000  0.5086310000000 1.0
C      1  0.4886640000000  0.4934990000000  0.5071170000000 1.0
C      1  0.5517830000000  0.4707390000000  0.5113800000000 1.0
C      1  0.4464800000000  0.5349810000000  0.5060540000000 1.0
C      1  0.4808320000000  0.4615970000000  0.5575500000000 1.0
C      1  0.5185370000000  0.5429540000000  0.5600750000000 1.0
C      1  0.5002700000000  0.4229710000000  0.5332790000000 1.0
C      1  0.4996790000000  0.5747910000000  0.5270400000000 1.0
C      1  0.4501970000000  0.4944610000000  0.5370010000000 1.0
C      1  0.5537870000000  0.5075530000000  0.5450820000000 1.0
C      1  0.5326820000000  0.5368050000000  0.4926670000000 1.0
C      1  0.4598850000000  0.4476050000000  0.4791470000000 1.0
C      1  0.5248930000000  0.4373760000000  0.5332500000000 1.0
C      1  0.4721000000000  0.5669460000000  0.5309670000000 1.0
C      1  0.5153710000000  0.4570270000000  0.4380490000000 1.0
C      1  0.4821430000000  0.5447690000000  0.4390930000000 1.0
C      1  0.4581930000000  0.5616270000000  0.5049690000000 1.0
C      1  0.5360690000000  0.4459760000000  0.5062760000000 1.0
C      1  0.5611550000000  0.4870770000000  0.4877990000000 1.0
C      1  0.4458570000000  0.5172550000000  0.4823460000000 1.0
C      1  0.5460200000000  0.4914000000000  0.4625860000000 1.0
C      1  0.4387920000000  0.5198890000000  0.4536660000000 1.0
C      1  0.4426160000000  0.4898040000000  0.4897320000000 1.0
C      1  0.5711660000000  0.5141330000000  0.4955850000000 1.0
C      1  0.4568430000000  0.5331480000000  0.4311460000000 1.0
C      1  0.5375930000000  0.4777010000000  0.4376710000000 1.0
C      1  0.5135770000000  0.5511050000000  0.5326860000000 1.0
C      1  0.4807800000000  0.4431730000000  0.5339690000000 1.0
C      1  0.4606870000000  0.4822160000000  0.5116590000000 1.0
C      1  0.5637530000000  0.5215360000000  0.5226290000000 1.0
C      1  0.4917560000000  0.5324110000000  0.5692920000000 1.0
C      1  0.5071300000000  0.4684390000000  0.5702900000000 1.0
C      1  0.4893800000000  0.5052970000000  0.5543850000000 1.0
C      1  0.5073720000000  0.4970790000000  0.5765940000000 1.0
C      1  0.4952340000000  0.4943500000000  0.4632910000000 1.0
C      1  0.5101320000000  0.4857630000000  0.4876040000000 1.0
C      1  0.4879470000000  0.4930050000000  0.4193960000000 1.0
C      1  0.5026790000000  0.5083870000000  0.5269550000000 1.0
END
