TITL C-8703-8361-136 -4.16805828885743e-07 125000 -371.475322686625 0 0 60 (Ci) n - 1
REM
REM in /home/bkarasulu/CARBON/AIRSS/Generating-Clusters/EDIP-Nigel-Params/Higher-Symm/Box-15A/Only-C60/SD-CG/HFTN-CG
REM
REM
REM
REM
REM
REM ./C.cell (414f73aa93bd7a1190c7fd0f31ff2f98)
REM
REM compiler GCC version 9.2.1 20190827 (Red Hat 9.2.1-1)
REM options -cpp -mtune=generic -march=x86-64 -g -O0 -fpre-include=/usr/include/finclude/math-vector-fortran.h
REM seed 1228495414 1251680990 570666100 1227806264 -638120255 1908159168 -941811503 792730744 516024562 -287891858 142084499 549871879 -234010382 1392076598 -1970987934 -1806017830 -1557766506 970063494 -354153092 -2063134595 -1065669147 380626391 -730641576 -806734038 307618083 -898195998 94605773 -984331437 1841684114 1403188169 1777606355 396757098 1976052925
REM
CELL 1.54180   50.00000   50.00000   50.00000   90.00000   90.00000   90.00000
LATT -1
SFAC C  
C      1  0.4417100000000  0.4456110000000  0.4848420000000 1.0
C      1  0.5574540000000  0.5543390000000  0.4836940000000 1.0
C      1  0.4425460000000  0.4456610000000  0.5163060000000 1.0
C      1  0.5582900000000  0.5543890000000  0.5151580000000 1.0
C      1  0.5442840000000  0.4550940000000  0.4831840000000 1.0
C      1  0.4552530000000  0.5451440000000  0.4878720000000 1.0
C      1  0.5447470000000  0.4548560000000  0.5121280000000 1.0
C      1  0.4557160000000  0.5449060000000  0.5168160000000 1.0
C      1  0.4648370000000  0.5193600000000  0.4753890000000 1.0
C      1  0.5357720000000  0.4817320000000  0.4716980000000 1.0
C      1  0.4642280000000  0.5182680000000  0.5283020000000 1.0
C      1  0.5351630000000  0.4806400000000  0.5246110000000 1.0
C      1  0.5388520000000  0.5319950000000  0.4740740000000 1.0
C      1  0.4595240000000  0.4679570000000  0.4736230000000 1.0
C      1  0.5404760000000  0.5320430000000  0.5263770000000 1.0
C      1  0.4611480000000  0.4680050000000  0.5259260000000 1.0
C      1  0.4879850000000  0.4620730000000  0.4832330000000 1.0
C      1  0.5114550000000  0.5377970000000  0.4861670000000 1.0
C      1  0.4885450000000  0.4622030000000  0.5138330000000 1.0
C      1  0.5120150000000  0.5379270000000  0.5167670000000 1.0
C      1  0.5055590000000  0.4860130000000  0.4760660000000 1.0
C      1  0.4936730000000  0.5135090000000  0.4841890000000 1.0
C      1  0.5063270000000  0.4864910000000  0.5158110000000 1.0
C      1  0.4944410000000  0.5139870000000  0.5239340000000 1.0
C      1  0.4592160000000  0.5194700000000  0.5566440000000 1.0
C      1  0.5367280000000  0.4763700000000  0.5534570000000 1.0
C      1  0.4632720000000  0.5236300000000  0.4465430000000 1.0
C      1  0.5407840000000  0.4805300000000  0.4433560000000 1.0
C      1  0.5371740000000  0.5306870000000  0.5552950000000 1.0
C      1  0.4668990000000  0.4701320000000  0.5543640000000 1.0
C      1  0.5331010000000  0.5298680000000  0.4456360000000 1.0
C      1  0.4628260000000  0.4693130000000  0.4447050000000 1.0
C      1  0.5007200000000  0.4377980000000  0.5257830000000 1.0
C      1  0.5008180000000  0.5626850000000  0.5286070000000 1.0
C      1  0.4991820000000  0.4373150000000  0.4713930000000 1.0
C      1  0.4992800000000  0.5622020000000  0.4742170000000 1.0
C      1  0.4819080000000  0.4175340000000  0.5264490000000 1.0
C      1  0.5195810000000  0.5829480000000  0.5273110000000 1.0
C      1  0.4804190000000  0.4170520000000  0.4726890000000 1.0
C      1  0.5180920000000  0.5824660000000  0.4735510000000 1.0
C      1  0.4735450000000  0.5677290000000  0.5214580000000 1.0
C      1  0.5273360000000  0.4319840000000  0.5170890000000 1.0
C      1  0.4726640000000  0.5680160000000  0.4829110000000 1.0
C      1  0.5264550000000  0.4322710000000  0.4785420000000 1.0
C      1  0.5450510000000  0.5824830000000  0.5152870000000 1.0
C      1  0.4558050000000  0.4176340000000  0.5158740000000 1.0
C      1  0.5441950000000  0.5823660000000  0.4841260000000 1.0
C      1  0.4549490000000  0.4175170000000  0.4847130000000 1.0
C      1  0.5139640000000  0.5154000000000  0.4303190000000 1.0
C      1  0.4842370000000  0.4819980000000  0.4316380000000 1.0
C      1  0.5157630000000  0.5180020000000  0.5683620000000 1.0
C      1  0.4860360000000  0.4846000000000  0.5696810000000 1.0
C      1  0.4857000000000  0.5099750000000  0.4372230000000 1.0
C      1  0.5214260000000  0.4874490000000  0.4248490000000 1.0
C      1  0.4785740000000  0.5125510000000  0.5751510000000 1.0
C      1  0.5143000000000  0.4900250000000  0.5627770000000 1.0
C      1  0.4512430000000  0.4943180000000  0.5150600000000 1.0
C      1  0.5492610000000  0.5052610000000  0.5143970000000 1.0
C      1  0.4507390000000  0.4947390000000  0.4856030000000 1.0
C      1  0.5487570000000  0.5056820000000  0.4849400000000 1.0
END
