TITL C-8704-7456-44 1.4676584738753e-05 125000 -370.510169740638 0 0 60 (C1) n - 1
REM
REM in /home/bkarasulu/CARBON/AIRSS/Generating-Clusters/EDIP-Nigel-Params/Higher-Symm/Box-15A/Only-C60/SD-CG/HFTN-CG
REM
REM
REM
REM
REM
REM ./C.cell (414f73aa93bd7a1190c7fd0f31ff2f98)
REM
REM compiler GCC version 9.2.1 20190827 (Red Hat 9.2.1-1)
REM options -cpp -mtune=generic -march=x86-64 -g -O0 -fpre-include=/usr/include/finclude/math-vector-fortran.h
REM seed -1357258764 -1286994360 -781927966 -175929042 792215602 -1216643469 -1050618718 1238857319 676801767 -1428715214 804785690 601139432 851976053 -144783827 -1491209851 -2132620286 -263774031 1875463983 1115978133 1181069720 -767177642 846062433 -1903016815 1557329866 2146684348 830970833 -924124205 805788033 -244687234 1883644762 -1686955137 -1583187620 746460593
REM
CELL 1.54180   50.00000   50.00000   50.00000   90.00000   90.00000   90.00000
LATT -1
SFAC C  
C      1  0.4754640000000  0.4334090000000  0.4678130000000 1.0
C      1  0.5244150000000  0.5669220000000  0.5322880000000 1.0
C      1  0.4415380000000  0.5064310000000  0.4798460000000 1.0
C      1  0.5582980000000  0.4935230000000  0.5199950000000 1.0
C      1  0.5139930000000  0.5101240000000  0.5711740000000 1.0
C      1  0.4858770000000  0.4897460000000  0.4288820000000 1.0
C      1  0.5012550000000  0.5484220000000  0.5320350000000 1.0
C      1  0.4987740000000  0.4517550000000  0.4678370000000 1.0
C      1  0.4834140000000  0.5169470000000  0.4230520000000 1.0
C      1  0.5167950000000  0.4829560000000  0.5770250000000 1.0
C      1  0.5134970000000  0.4841330000000  0.4303070000000 1.0
C      1  0.4863340000000  0.5154680000000  0.5697160000000 1.0
C      1  0.5535770000000  0.4980790000000  0.5467260000000 1.0
C      1  0.4459690000000  0.5018920000000  0.4530140000000 1.0
C      1  0.4703900000000  0.4219800000000  0.4955340000000 1.0
C      1  0.5294900000000  0.5784080000000  0.5045940000000 1.0
C      1  0.5316710000000  0.4463980000000  0.5517110000000 1.0
C      1  0.4683900000000  0.5534980000000  0.4481920000000 1.0
C      1  0.5088980000000  0.5200330000000  0.5223480000000 1.0
C      1  0.4916670000000  0.4801250000000  0.4780680000000 1.0
C      1  0.4353080000000  0.4842320000000  0.4977360000000 1.0
C      1  0.5623520000000  0.5159360000000  0.5017800000000 1.0
C      1  0.5573840000000  0.4963960000000  0.4527950000000 1.0
C      1  0.4426060000000  0.5034800000000  0.5468770000000 1.0
C      1  0.5668230000000  0.5124180000000  0.4740160000000 1.0
C      1  0.4326820000000  0.4876590000000  0.5257180000000 1.0
C      1  0.5227400000000  0.5445810000000  0.4772840000000 1.0
C      1  0.4777520000000  0.4555200000000  0.5230000000000 1.0
C      1  0.5189000000000  0.5193270000000  0.4932500000000 1.0
C      1  0.4829080000000  0.4804810000000  0.5073000000000 1.0
C      1  0.5502780000000  0.4680700000000  0.5094820000000 1.0
C      1  0.4496540000000  0.5318210000000  0.4904390000000 1.0
C      1  0.5453420000000  0.5459990000000  0.5388320000000 1.0
C      1  0.4545820000000  0.4543190000000  0.4613220000000 1.0
C      1  0.5610790000000  0.5432420000000  0.5130370000000 1.0
C      1  0.4385720000000  0.4568590000000  0.4869660000000 1.0
C      1  0.5403740000000  0.4676390000000  0.4818940000000 1.0
C      1  0.4597400000000  0.5323220000000  0.5179710000000 1.0
C      1  0.4788670000000  0.5697820000000  0.4940960000000 1.0
C      1  0.5211750000000  0.4301030000000  0.5057330000000 1.0
C      1  0.5242290000000  0.4422330000000  0.4789830000000 1.0
C      1  0.4757880000000  0.5577260000000  0.5208160000000 1.0
C      1  0.5104290000000  0.4587560000000  0.5647270000000 1.0
C      1  0.4897750000000  0.5410830000000  0.4354660000000 1.0
C      1  0.5319170000000  0.5175720000000  0.5470570000000 1.0
C      1  0.4677980000000  0.4824890000000  0.4529690000000 1.0
C      1  0.4630820000000  0.5531160000000  0.4756300000000 1.0
C      1  0.5370990000000  0.4466160000000  0.5242830000000 1.0
C      1  0.4390720000000  0.5304850000000  0.5387260000000 1.0
C      1  0.5611160000000  0.4694750000000  0.4611870000000 1.0
C      1  0.4722180000000  0.4994640000000  0.5510080000000 1.0
C      1  0.5277610000000  0.5003170000000  0.4487600000000 1.0
C      1  0.4862140000000  0.4577090000000  0.5504800000000 1.0
C      1  0.5138780000000  0.5420930000000  0.4499260000000 1.0
C      1  0.5194020000000  0.4935240000000  0.4768340000000 1.0
C      1  0.4812580000000  0.5062620000000  0.5231810000000 1.0
C      1  0.5058660000000  0.5777420000000  0.4872060000000 1.0
C      1  0.4941580000000  0.4222420000000  0.5127600000000 1.0
C      1  0.5519480000000  0.5630570000000  0.4936890000000 1.0
C      1  0.4481710000000  0.4376030000000  0.5066230000000 1.0
END
