TITL C-8704-7456-180 2.38458783198193e-05 125000 -376.997754997938 0 0 60 (C1) n - 1
REM
REM in /home/bkarasulu/CARBON/AIRSS/Generating-Clusters/EDIP-Nigel-Params/Higher-Symm/Box-15A/Only-C60/SD-CG/HFTN-CG
REM
REM
REM
REM
REM
REM ./C.cell (414f73aa93bd7a1190c7fd0f31ff2f98)
REM
REM compiler GCC version 9.2.1 20190827 (Red Hat 9.2.1-1)
REM options -cpp -mtune=generic -march=x86-64 -g -O0 -fpre-include=/usr/include/finclude/math-vector-fortran.h
REM seed 1466556576 1752467641 -857966848 -418332476 266319399 1695274121 1266045607 -2145292177 1521615007 1155175390 -1196580685 108227404 -269720532 -1225124088 1717861839 2024625641 -2000566491 -617218897 1908567130 423651330 -1012988420 1737215382 998073448 -1331028164 -659934782 -1446180296 -998269317 50333316 1689891170 1297263907 2146244290 1171329712 1603923435
REM
CELL 1.54180   50.00000   50.00000   50.00000   90.00000   90.00000   90.00000
LATT -1
SFAC C  
C      1  0.4275300000000  0.5393680000000  0.4928160000000 1.0
C      1  0.4720470000000  0.5389260000000  0.5620990000000 1.0
C      1  0.5519940000000  0.5390870000000  0.5446480000000 1.0
C      1  0.5617580000000  0.5381950000000  0.4645390000000 1.0
C      1  0.4849270000000  0.5360130000000  0.4351340000000 1.0
C      1  0.5729200000000  0.5404140000000  0.4914530000000 1.0
C      1  0.5279510000000  0.5389060000000  0.5610070000000 1.0
C      1  0.4476300000000  0.5388720000000  0.5462670000000 1.0
C      1  0.4376070000000  0.5376890000000  0.4654600000000 1.0
C      1  0.5140400000000  0.5360690000000  0.4350710000000 1.0
C      1  0.4712600000000  0.4606580000000  0.4416730000000 1.0
C      1  0.4226930000000  0.4667820000000  0.5112890000000 1.0
C      1  0.4853860000000  0.4635720000000  0.5679540000000 1.0
C      1  0.5593190000000  0.4642640000000  0.5285990000000 1.0
C      1  0.5491310000000  0.4609220000000  0.4619960000000 1.0
C      1  0.5281250000000  0.4610320000000  0.4421320000000 1.0
C      1  0.5798350000000  0.4672760000000  0.5097260000000 1.0
C      1  0.5136860000000  0.4632980000000  0.5617420000000 1.0
C      1  0.4425280000000  0.4629170000000  0.5306730000000 1.0
C      1  0.4503990000000  0.4603360000000  0.4617110000000 1.0
C      1  0.4855000000000  0.4362570000000  0.4486800000000 1.0
C      1  0.4575150000000  0.4286840000000  0.5003400000000 1.0
C      1  0.4854630000000  0.4370800000000  0.5398470000000 1.0
C      1  0.5389800000000  0.4441250000000  0.5237580000000 1.0
C      1  0.5433340000000  0.4339440000000  0.4735300000000 1.0
C      1  0.5141620000000  0.4365320000000  0.4491000000000 1.0
C      1  0.5420600000000  0.4290900000000  0.5006950000000 1.0
C      1  0.5139170000000  0.4457210000000  0.5389050000000 1.0
C      1  0.4631930000000  0.4438560000000  0.5228580000000 1.0
C      1  0.4563670000000  0.4334520000000  0.4731580000000 1.0
C      1  0.5612530000000  0.5139320000000  0.5329170000000 1.0
C      1  0.5519930000000  0.5115000000000  0.4565090000000 1.0
C      1  0.4715980000000  0.5107680000000  0.4413650000000 1.0
C      1  0.4277570000000  0.5139860000000  0.5078620000000 1.0
C      1  0.4857080000000  0.5133070000000  0.5645910000000 1.0
C      1  0.4392060000000  0.5131300000000  0.5346370000000 1.0
C      1  0.4473770000000  0.5110870000000  0.4568980000000 1.0
C      1  0.5274610000000  0.5109690000000  0.4415120000000 1.0
C      1  0.5744380000000  0.5149740000000  0.5068590000000 1.0
C      1  0.5144640000000  0.5131980000000  0.5658610000000 1.0
C      1  0.4708840000000  0.4881880000000  0.5641550000000 1.0
C      1  0.5525470000000  0.4883550000000  0.5437310000000 1.0
C      1  0.5613630000000  0.4869300000000  0.4692020000000 1.0
C      1  0.4852660000000  0.4857390000000  0.4365770000000 1.0
C      1  0.4224960000000  0.4887290000000  0.4938000000000 1.0
C      1  0.5278510000000  0.4884960000000  0.5586990000000 1.0
C      1  0.4485290000000  0.4875310000000  0.5456110000000 1.0
C      1  0.4385560000000  0.4862980000000  0.4696670000000 1.0
C      1  0.5140170000000  0.4858840000000  0.4366760000000 1.0
C      1  0.5789180000000  0.4894660000000  0.4923590000000 1.0
C      1  0.5185670000000  0.5600200000000  0.4510450000000 1.0
C      1  0.4560010000000  0.5606910000000  0.4662360000000 1.0
C      1  0.4534410000000  0.5619750000000  0.5291450000000 1.0
C      1  0.5141330000000  0.5618000000000  0.5490940000000 1.0
C      1  0.5562520000000  0.5626500000000  0.5012650000000 1.0
C      1  0.4803860000000  0.5598870000000  0.4512460000000 1.0
C      1  0.5431900000000  0.5610060000000  0.4656200000000 1.0
C      1  0.5459630000000  0.5623610000000  0.5280250000000 1.0
C      1  0.4854350000000  0.5618620000000  0.5497790000000 1.0
C      1  0.4436970000000  0.5619480000000  0.5021970000000 1.0
END
