TITL C-8700-8172-336 4.31200127869051e-07 125000 -344.367575889132 0 0 60 (C2) n - 1
REM
REM in /home/bkarasulu/CARBON/AIRSS/Generating-Clusters/EDIP-Nigel-Params/Higher-Symm/Box-15A/Only-C60/SD-CG/HFTN-CG
REM
REM
REM
REM
REM
REM ./C.cell (414f73aa93bd7a1190c7fd0f31ff2f98)
REM
REM compiler GCC version 9.2.1 20190827 (Red Hat 9.2.1-1)
REM options -cpp -mtune=generic -march=x86-64 -g -O0 -fpre-include=/usr/include/finclude/math-vector-fortran.h
REM seed -960198296 1252522304 -1568677668 -429245370 -2058505075 1492405958 985388675 -1684693389 -1983506916 2021326443 -430056535 -1546910990 -331838505 332105055 1912405235 -1424594198 -1205989453 939130378 768725935 1798831698 -642350686 -881034282 -1690205862 -1391820671 -1087134725 1742307826 -705250148 261843732 -1036458939 -657176862 -873276962 -1179004480 216034181
REM
CELL 1.54180   50.00000   50.00000   50.00000   90.00000   90.00000   90.00000
LATT -1
SFAC C  
C      1  0.4811830000000  0.4330820000000  0.4802400000000 1.0
C      1  0.5602180000000  0.4857810000000  0.4731790000000 1.0
C      1  0.5182570000000  0.5669150000000  0.4796500000000 1.0
C      1  0.4390400000000  0.5142150000000  0.4750650000000 1.0
C      1  0.4856420000000  0.5672330000000  0.4784330000000 1.0
C      1  0.5661020000000  0.5165530000000  0.4750340000000 1.0
C      1  0.5137440000000  0.4327630000000  0.4780080000000 1.0
C      1  0.4332170000000  0.4834430000000  0.4771090000000 1.0
C      1  0.4890740000000  0.5306060000000  0.5028140000000 1.0
C      1  0.4693970000000  0.4871770000000  0.5025040000000 1.0
C      1  0.5110740000000  0.4693950000000  0.5024760000000 1.0
C      1  0.5307310000000  0.5128240000000  0.5015450000000 1.0
C      1  0.4857890000000  0.4683710000000  0.5143570000000 1.0
C      1  0.4694160000000  0.5134020000000  0.5128570000000 1.0
C      1  0.5147170000000  0.5316320000000  0.5139000000000 1.0
C      1  0.5310350000000  0.4866010000000  0.5118990000000 1.0
C      1  0.4521940000000  0.4807990000000  0.4490710000000 1.0
C      1  0.5124130000000  0.4569940000000  0.4600350000000 1.0
C      1  0.5462600000000  0.5191920000000  0.4476010000000 1.0
C      1  0.4864130000000  0.5429990000000  0.4604320000000 1.0
C      1  0.4588760000000  0.5094540000000  0.4521500000000 1.0
C      1  0.5178840000000  0.5436010000000  0.4594830000000 1.0
C      1  0.5396770000000  0.4905380000000  0.4508910000000 1.0
C      1  0.4809270000000  0.4563920000000  0.4600670000000 1.0
C      1  0.4843390000000  0.4260880000000  0.5275830000000 1.0
C      1  0.5743090000000  0.4837810000000  0.5206580000000 1.0
C      1  0.5165780000000  0.5739170000000  0.5270660000000 1.0
C      1  0.4264360000000  0.5162240000000  0.5229610000000 1.0
C      1  0.4866510000000  0.5719040000000  0.5285550000000 1.0
C      1  0.5729760000000  0.5135160000000  0.5241280000000 1.0
C      1  0.5142980000000  0.4281020000000  0.5281370000000 1.0
C      1  0.4278770000000  0.4864890000000  0.5263920000000 1.0
C      1  0.5310730000000  0.4822280000000  0.5556810000000 1.0
C      1  0.5198180000000  0.5314970000000  0.5574790000000 1.0
C      1  0.4707430000000  0.5177830000000  0.5566190000000 1.0
C      1  0.4820490000000  0.4685140000000  0.5580730000000 1.0
C      1  0.5363500000000  0.5090210000000  0.5642910000000 1.0
C      1  0.5095950000000  0.4663600000000  0.5659530000000 1.0
C      1  0.4657370000000  0.4909910000000  0.5653940000000 1.0
C      1  0.4925310000000  0.5336530000000  0.5662130000000 1.0
C      1  0.4659770000000  0.4793750000000  0.4204600000000 1.0
C      1  0.5132910000000  0.4578920000000  0.4300350000000 1.0
C      1  0.5315920000000  0.5206100000000  0.4194340000000 1.0
C      1  0.4846000000000  0.5420950000000  0.4304750000000 1.0
C      1  0.4702060000000  0.5172030000000  0.4262530000000 1.0
C      1  0.5157690000000  0.5439660000000  0.4274050000000 1.0
C      1  0.5275460000000  0.4827830000000  0.4253620000000 1.0
C      1  0.4820400000000  0.4560210000000  0.4279390000000 1.0
C      1  0.4452810000000  0.5284000000000  0.5028640000000 1.0
C      1  0.4704660000000  0.4432750000000  0.5073760000000 1.0
C      1  0.5548470000000  0.4716010000000  0.5011610000000 1.0
C      1  0.5298140000000  0.5567270000000  0.5064400000000 1.0
C      1  0.4440000000000  0.4721130000000  0.5036590000000 1.0
C      1  0.4731710000000  0.5559880000000  0.5046290000000 1.0
C      1  0.5561520000000  0.5278880000000  0.5019050000000 1.0
C      1  0.5270260000000  0.4440140000000  0.5038000000000 1.0
C      1  0.5063470000000  0.4377890000000  0.5571770000000 1.0
C      1  0.5638610000000  0.5032960000000  0.5524560000000 1.0
C      1  0.4955040000000  0.5622220000000  0.5573350000000 1.0
C      1  0.4378710000000  0.4967140000000  0.5544210000000 1.0
END
