TITL C-8704-7456-290 -2.36514108876181e-06 125000 -366.568099305735 0 0 60 (C1) n - 1
REM
REM in /home/bkarasulu/CARBON/AIRSS/Generating-Clusters/EDIP-Nigel-Params/Higher-Symm/Box-15A/Only-C60/SD-CG/HFTN-CG
REM
REM
REM
REM
REM
REM ./C.cell (414f73aa93bd7a1190c7fd0f31ff2f98)
REM
REM compiler GCC version 9.2.1 20190827 (Red Hat 9.2.1-1)
REM options -cpp -mtune=generic -march=x86-64 -g -O0 -fpre-include=/usr/include/finclude/math-vector-fortran.h
REM seed 339208523 -1721936191 -1160179214 -1459770304 1438793960 -2145572633 -127349065 -1003313210 -1960261435 1663573068 -1401141211 -1700559416 1238367515 230877722 -1119302803 2122758651 -1775354660 -1870185069 1485894870 1595646489 -2011038365 -490226763 -480786155 -1703858116 1870106265 545373599 833021711 316811653 -328492860 1426012966 623239354 1447897720 -1127584948
REM
CELL 1.54180   50.00000   50.00000   50.00000   90.00000   90.00000   90.00000
LATT -1
SFAC C  
C      1  0.4713590000000  0.5478540000000  0.4843700000000 1.0
C      1  0.4759060000000  0.4354150000000  0.5453600000000 1.0
C      1  0.5116500000000  0.5707330000000  0.4979450000000 1.0
C      1  0.5008140000000  0.4481380000000  0.5416600000000 1.0
C      1  0.4969620000000  0.5647610000000  0.4471790000000 1.0
C      1  0.5648430000000  0.4695570000000  0.4863530000000 1.0
C      1  0.5224340000000  0.4314410000000  0.4894100000000 1.0
C      1  0.4743440000000  0.4564060000000  0.4724070000000 1.0
C      1  0.4726000000000  0.5227050000000  0.4435850000000 1.0
C      1  0.5222640000000  0.4562570000000  0.4732080000000 1.0
C      1  0.4272230000000  0.5164160000000  0.4828800000000 1.0
C      1  0.5530700000000  0.4902350000000  0.5282410000000 1.0
C      1  0.4808310000000  0.4452960000000  0.4999900000000 1.0
C      1  0.4444040000000  0.5158250000000  0.5302250000000 1.0
C      1  0.5014620000000  0.5647230000000  0.5459220000000 1.0
C      1  0.4979050000000  0.4806690000000  0.4379800000000 1.0
C      1  0.4584800000000  0.4906320000000  0.5400080000000 1.0
C      1  0.4973210000000  0.4214960000000  0.4969610000000 1.0
C      1  0.4990890000000  0.4651460000000  0.5154570000000 1.0
C      1  0.4654270000000  0.5608600000000  0.5103740000000 1.0
C      1  0.4419470000000  0.4668060000000  0.5308900000000 1.0
C      1  0.4909410000000  0.5757890000000  0.5190300000000 1.0
C      1  0.5528520000000  0.5437970000000  0.4926170000000 1.0
C      1  0.4976970000000  0.5271090000000  0.5276110000000 1.0
C      1  0.5496150000000  0.4605380000000  0.4616910000000 1.0
C      1  0.5632190000000  0.4648850000000  0.5353290000000 1.0
C      1  0.4957320000000  0.5389820000000  0.4342060000000 1.0
C      1  0.4984060000000  0.5556320000000  0.4751760000000 1.0
C      1  0.4984300000000  0.4563130000000  0.4545940000000 1.0
C      1  0.5185250000000  0.4803190000000  0.4922560000000 1.0
C      1  0.4820130000000  0.4973380000000  0.4569860000000 1.0
C      1  0.4524320000000  0.4754230000000  0.4682200000000 1.0
C      1  0.5468030000000  0.4787360000000  0.4406650000000 1.0
C      1  0.4853030000000  0.5111610000000  0.5046960000000 1.0
C      1  0.4252380000000  0.5055870000000  0.5096450000000 1.0
C      1  0.4536850000000  0.5362930000000  0.4633530000000 1.0
C      1  0.4974350000000  0.4977510000000  0.5697090000000 1.0
C      1  0.4572860000000  0.5437840000000  0.5337570000000 1.0
C      1  0.5289190000000  0.5472340000000  0.5387610000000 1.0
C      1  0.4698040000000  0.4930030000000  0.5667440000000 1.0
C      1  0.5491900000000  0.5538470000000  0.4662880000000 1.0
C      1  0.5138920000000  0.4570370000000  0.5645050000000 1.0
C      1  0.5167850000000  0.5306120000000  0.4721700000000 1.0
C      1  0.4783900000000  0.5471660000000  0.5536850000000 1.0
C      1  0.4235490000000  0.4769810000000  0.5115060000000 1.0
C      1  0.5638980000000  0.4508100000000  0.5103620000000 1.0
C      1  0.5222360000000  0.5233960000000  0.4338520000000 1.0
C      1  0.5012610000000  0.5045940000000  0.4807890000000 1.0
C      1  0.5300970000000  0.5509520000000  0.5093590000000 1.0
C      1  0.4393310000000  0.5004760000000  0.4626300000000 1.0
C      1  0.5455660000000  0.5370740000000  0.4444420000000 1.0
C      1  0.5546730000000  0.5163960000000  0.4895120000000 1.0
C      1  0.5474510000000  0.4907730000000  0.4992670000000 1.0
C      1  0.5239160000000  0.4932290000000  0.4329440000000 1.0
C      1  0.5116570000000  0.4771790000000  0.5825050000000 1.0
C      1  0.5391920000000  0.5103040000000  0.5448810000000 1.0
C      1  0.4588240000000  0.4424330000000  0.5236150000000 1.0
C      1  0.5108710000000  0.5074560000000  0.5455330000000 1.0
C      1  0.4801370000000  0.4873230000000  0.5203300000000 1.0
C      1  0.5444110000000  0.4309150000000  0.5063750000000 1.0
END
