TITL C-8705-8172-6 1.02630965398687e-06 125000 -358.660704250596 0 0 60 (Ci) n - 1
REM
REM in /home/bkarasulu/CARBON/AIRSS/Generating-Clusters/EDIP-Nigel-Params/Higher-Symm/Box-15A/Only-C60/SD-CG/HFTN-CG
REM
REM
REM
REM
REM
REM ./C.cell (414f73aa93bd7a1190c7fd0f31ff2f98)
REM
REM compiler GCC version 9.2.1 20190827 (Red Hat 9.2.1-1)
REM options -cpp -mtune=generic -march=x86-64 -g -O0 -fpre-include=/usr/include/finclude/math-vector-fortran.h
REM seed -251832165 1033530054 1148188872 -934176081 265744102 -232563219 -1589537031 1980183188 -586647402 -1825164347 -2061818333 -256449132 1650666061 932515810 1806840105 4266527 1095509513 -1380174212 -1887451183 1769718812 -314690635 -888568471 -502100891 -2115453278 -1900394089 743259067 -2075075236 1506949483 -2104489621 614610905 1046745901 2022972772 -1186691543
REM
CELL 1.54180   50.00000   50.00000   50.00000   90.00000   90.00000   90.00000
LATT -1
SFAC C  
C      1  0.5306170000000  0.5021540000000  0.4243520000000 1.0
C      1  0.4693830000000  0.4978460000000  0.5756480000000 1.0
C      1  0.5068360000000  0.4216160000000  0.5124060000000 1.0
C      1  0.4931640000000  0.5783840000000  0.4875940000000 1.0
C      1  0.4432890000000  0.5085900000000  0.5649760000000 1.0
C      1  0.5567110000000  0.4914100000000  0.4350240000000 1.0
C      1  0.4304130000000  0.4729900000000  0.4992120000000 1.0
C      1  0.5695870000000  0.5270100000000  0.5007880000000 1.0
C      1  0.4959710000000  0.4817880000000  0.5199180000000 1.0
C      1  0.5040290000000  0.5182120000000  0.4800820000000 1.0
C      1  0.5501710000000  0.4835140000000  0.5232510000000 1.0
C      1  0.4498290000000  0.5164860000000  0.4767490000000 1.0
C      1  0.4281660000000  0.5190870000000  0.5206020000000 1.0
C      1  0.5718340000000  0.4809130000000  0.4793980000000 1.0
C      1  0.4525680000000  0.4757530000000  0.4471430000000 1.0
C      1  0.5474320000000  0.5242470000000  0.5528570000000 1.0
C      1  0.4942880000000  0.5400670000000  0.5625860000000 1.0
C      1  0.5057120000000  0.4599330000000  0.4374140000000 1.0
C      1  0.4726230000000  0.5238610000000  0.5349640000000 1.0
C      1  0.5273770000000  0.4761390000000  0.4650360000000 1.0
C      1  0.5004140000000  0.4670390000000  0.5552000000000 1.0
C      1  0.4995860000000  0.5329610000000  0.4448000000000 1.0
C      1  0.5101670000000  0.5367210000000  0.5008660000000 1.0
C      1  0.4898330000000  0.4632790000000  0.4991340000000 1.0
C      1  0.4858010000000  0.5081170000000  0.4409340000000 1.0
C      1  0.5141990000000  0.4918830000000  0.5590660000000 1.0
C      1  0.4831150000000  0.4380410000000  0.5126730000000 1.0
C      1  0.5168850000000  0.5619590000000  0.4873270000000 1.0
C      1  0.5279960000000  0.5031270000000  0.4779030000000 1.0
C      1  0.4720040000000  0.4968730000000  0.5220970000000 1.0
C      1  0.4527050000000  0.4592110000000  0.5534330000000 1.0
C      1  0.5472950000000  0.5407890000000  0.4465670000000 1.0
C      1  0.5045930000000  0.4880200000000  0.4300150000000 1.0
C      1  0.4954070000000  0.5119800000000  0.5699850000000 1.0
C      1  0.4729210000000  0.5613010000000  0.4984590000000 1.0
C      1  0.5270790000000  0.4386990000000  0.5015410000000 1.0
C      1  0.5656610000000  0.5488370000000  0.4794160000000 1.0
C      1  0.4343390000000  0.4511630000000  0.5205840000000 1.0
C      1  0.4603070000000  0.4504550000000  0.4554880000000 1.0
C      1  0.5396930000000  0.5495450000000  0.5445120000000 1.0
C      1  0.5253560000000  0.5312660000000  0.4308800000000 1.0
C      1  0.4746440000000  0.4687340000000  0.5691200000000 1.0
C      1  0.4882060000000  0.5459450000000  0.5192310000000 1.0
C      1  0.5117940000000  0.4540550000000  0.4807690000000 1.0
C      1  0.4480800000000  0.4838070000000  0.5365590000000 1.0
C      1  0.5519200000000  0.5161930000000  0.4634410000000 1.0
C      1  0.4588670000000  0.5429020000000  0.4819130000000 1.0
C      1  0.5411330000000  0.4570980000000  0.5180870000000 1.0
C      1  0.4882480000000  0.4433170000000  0.4529110000000 1.0
C      1  0.5117520000000  0.5566830000000  0.5470890000000 1.0
C      1  0.4614280000000  0.5008670000000  0.4546590000000 1.0
C      1  0.5385720000000  0.4991330000000  0.5453410000000 1.0
C      1  0.4437580000000  0.5274940000000  0.5426010000000 1.0
C      1  0.5562420000000  0.4725060000000  0.4573990000000 1.0
C      1  0.5458680000000  0.5679370000000  0.4944470000000 1.0
C      1  0.4541320000000  0.4320630000000  0.5055530000000 1.0
C      1  0.5542990000000  0.5559350000000  0.5207520000000 1.0
C      1  0.4457010000000  0.4440650000000  0.4792480000000 1.0
C      1  0.5650420000000  0.4973650000000  0.5015470000000 1.0
C      1  0.4349580000000  0.5026350000000  0.4984530000000 1.0
END
