TITL C-8705-8172-207 -1.62284204925191e-05 125000 -365.211743402071 0 0 60 (C1) n - 1
REM
REM in /home/bkarasulu/CARBON/AIRSS/Generating-Clusters/EDIP-Nigel-Params/Higher-Symm/Box-15A/Only-C60/SD-CG/HFTN-CG
REM
REM
REM
REM
REM
REM ./C.cell (414f73aa93bd7a1190c7fd0f31ff2f98)
REM
REM compiler GCC version 9.2.1 20190827 (Red Hat 9.2.1-1)
REM options -cpp -mtune=generic -march=x86-64 -g -O0 -fpre-include=/usr/include/finclude/math-vector-fortran.h
REM seed 758639660 368201360 1267919351 1755310175 -129323010 570032506 89725648 1058731533 1215029331 485285402 1242638449 1790218732 1072100718 2091209735 -1782992349 -672464049 -1721664246 -1689766222 758205016 1140108697 -2142023288 1571526373 2039685081 -2036244435 570777 -1839187684 -376282072 -1254362369 366040857 2054295693 586639412 987716743 1746013599
REM
CELL 1.54180   50.00000   50.00000   50.00000   90.00000   90.00000   90.00000
LATT -1
SFAC C  
C      1  0.4238900000000  0.4696910000000  0.5209530000000 1.0
C      1  0.4449380000000  0.4460530000000  0.4861450000000 1.0
C      1  0.4767700000000  0.4200980000000  0.5101150000000 1.0
C      1  0.5145150000000  0.4222760000000  0.4821250000000 1.0
C      1  0.5581020000000  0.4428720000000  0.5044110000000 1.0
C      1  0.5826510000000  0.4896400000000  0.5100870000000 1.0
C      1  0.5863290000000  0.5250080000000  0.4948110000000 1.0
C      1  0.5456220000000  0.5719540000000  0.5142510000000 1.0
C      1  0.5133220000000  0.5918600000000  0.5073590000000 1.0
C      1  0.4554890000000  0.5755270000000  0.4688640000000 1.0
C      1  0.4354320000000  0.5410930000000  0.5261720000000 1.0
C      1  0.4155740000000  0.5063950000000  0.4930590000000 1.0
C      1  0.5130000000000  0.4704550000000  0.4892390000000 1.0
C      1  0.5292320000000  0.4669170000000  0.5366540000000 1.0
C      1  0.5382940000000  0.4942310000000  0.4840900000000 1.0
C      1  0.5366400000000  0.5187760000000  0.5028150000000 1.0
C      1  0.5223580000000  0.5412580000000  0.4869190000000 1.0
C      1  0.4945980000000  0.5457330000000  0.5015540000000 1.0
C      1  0.4736480000000  0.5318170000000  0.4801560000000 1.0
C      1  0.4660430000000  0.5024990000000  0.5185990000000 1.0
C      1  0.4658310000000  0.5015530000000  0.4874490000000 1.0
C      1  0.4764120000000  0.4766320000000  0.5329140000000 1.0
C      1  0.4857790000000  0.4771740000000  0.4737000000000 1.0
C      1  0.5045030000000  0.4611820000000  0.5200410000000 1.0
C      1  0.5622740000000  0.5535590000000  0.5263330000000 1.0
C      1  0.5246350000000  0.5901280000000  0.4805040000000 1.0
C      1  0.4713220000000  0.5867420000000  0.4877030000000 1.0
C      1  0.4342850000000  0.5501700000000  0.5009290000000 1.0
C      1  0.4173130000000  0.4988620000000  0.5214370000000 1.0
C      1  0.4256390000000  0.4688040000000  0.4897010000000 1.0
C      1  0.4511920000000  0.4352470000000  0.5136760000000 1.0
C      1  0.4844770000000  0.4238200000000  0.4810600000000 1.0
C      1  0.5220690000000  0.4166800000000  0.5097280000000 1.0
C      1  0.5543220000000  0.4454030000000  0.4774850000000 1.0
C      1  0.5775390000000  0.4752330000000  0.5333050000000 1.0
C      1  0.5821000000000  0.5091900000000  0.4712030000000 1.0
C      1  0.4831070000000  0.4949900000000  0.5583940000000 1.0
C      1  0.4922730000000  0.4861920000000  0.4455830000000 1.0
C      1  0.5086830000000  0.4930240000000  0.5695890000000 1.0
C      1  0.5194040000000  0.4862030000000  0.4388520000000 1.0
C      1  0.5262820000000  0.4937420000000  0.5476090000000 1.0
C      1  0.5311080000000  0.5045530000000  0.4566780000000 1.0
C      1  0.5188890000000  0.5118020000000  0.5253630000000 1.0
C      1  0.5170000000000  0.5303200000000  0.4596500000000 1.0
C      1  0.4978590000000  0.5306420000000  0.5280690000000 1.0
C      1  0.4879950000000  0.5296320000000  0.4539880000000 1.0
C      1  0.4795780000000  0.5227910000000  0.5487140000000 1.0
C      1  0.4791550000000  0.5092260000000  0.4368630000000 1.0
C      1  0.4378000000000  0.4951700000000  0.4778020000000 1.0
C      1  0.4506220000000  0.4584510000000  0.5339610000000 1.0
C      1  0.4707680000000  0.4496140000000  0.4712940000000 1.0
C      1  0.5011280000000  0.4308380000000  0.5233800000000 1.0
C      1  0.5263580000000  0.4475590000000  0.4738810000000 1.0
C      1  0.5557850000000  0.4589380000000  0.5271870000000 1.0
C      1  0.5682040000000  0.4869550000000  0.4839720000000 1.0
C      1  0.5634990000000  0.5294750000000  0.5121680000000 1.0
C      1  0.5397370000000  0.5660540000000  0.4861360000000 1.0
C      1  0.4890800000000  0.5757030000000  0.5062440000000 1.0
C      1  0.4494980000000  0.5496470000000  0.4777900000000 1.0
C      1  0.4400500000000  0.5139460000000  0.5312830000000 1.0
END
