TITL C-8702-7969-246 0.000267858837251664 125000 -355.925613686988 0 0 60 (C1) n - 1
REM
REM in /home/bkarasulu/CARBON/AIRSS/Generating-Clusters/EDIP-Nigel-Params/Higher-Symm/Box-15A/Only-C60/SD-CG/HFTN-CG
REM
REM
REM
REM
REM
REM ./C.cell (414f73aa93bd7a1190c7fd0f31ff2f98)
REM
REM compiler GCC version 9.2.1 20190827 (Red Hat 9.2.1-1)
REM options -cpp -mtune=generic -march=x86-64 -g -O0 -fpre-include=/usr/include/finclude/math-vector-fortran.h
REM seed 1477880622 78158779 -270378608 -1860768123 -1497357626 921603004 -1097134056 1609227552 2026498115 -405939537 -141564716 1209848807 -1951668347 1570367680 924346597 963517211 1444777404 789771860 -1208675649 -1817151995 -216545234 418384812 -726581832 -108490467 -1818063503 -627002329 1224443465 133231422 -421228092 -929501895 676052711 -576250876 1007337724
REM
CELL 1.54180   50.00000   50.00000   50.00000   90.00000   90.00000   90.00000
LATT -1
SFAC C  
C      1  0.5510790000000  0.5166900000000  0.5518650000000 1.0
C      1  0.5192300000000  0.5139480000000  0.4313300000000 1.0
C      1  0.4305800000000  0.5158000000000  0.5181230000000 1.0
C      1  0.5161690000000  0.4671270000000  0.4817770000000 1.0
C      1  0.4750440000000  0.4694490000000  0.4967150000000 1.0
C      1  0.5088240000000  0.4724290000000  0.5247100000000 1.0
C      1  0.5279950000000  0.5727800000000  0.5050310000000 1.0
C      1  0.4906200000000  0.5727770000000  0.4727350000000 1.0
C      1  0.4811660000000  0.5725610000000  0.5214680000000 1.0
C      1  0.4979730000000  0.4474920000000  0.4377460000000 1.0
C      1  0.4437510000000  0.4483960000000  0.5266590000000 1.0
C      1  0.5522020000000  0.4482600000000  0.5317960000000 1.0
C      1  0.5189420000000  0.5676000000000  0.4772110000000 1.0
C      1  0.4709890000000  0.5683300000000  0.4944880000000 1.0
C      1  0.5097800000000  0.5686430000000  0.5275460000000 1.0
C      1  0.4514670000000  0.5064540000000  0.4446420000000 1.0
C      1  0.4777400000000  0.5040060000000  0.5676010000000 1.0
C      1  0.5705340000000  0.5050360000000  0.4860750000000 1.0
C      1  0.5448840000000  0.5389690000000  0.4984400000000 1.0
C      1  0.4757900000000  0.5392860000000  0.4614710000000 1.0
C      1  0.4794520000000  0.5394060000000  0.5409890000000 1.0
C      1  0.5563400000000  0.4495180000000  0.4819720000000 1.0
C      1  0.4581330000000  0.4521340000000  0.4662410000000 1.0
C      1  0.4918120000000  0.4500430000000  0.5415980000000 1.0
C      1  0.4731110000000  0.4890890000000  0.4362320000000 1.0
C      1  0.4597470000000  0.4871260000000  0.5516680000000 1.0
C      1  0.5665300000000  0.4888230000000  0.5095710000000 1.0
C      1  0.5369600000000  0.5190860000000  0.4527040000000 1.0
C      1  0.4391910000000  0.5212650000000  0.4915920000000 1.0
C      1  0.5236860000000  0.5211850000000  0.5578670000000 1.0
C      1  0.5233050000000  0.4407390000000  0.5000690000000 1.0
C      1  0.4842260000000  0.4396000000000  0.4923120000000 1.0
C      1  0.4980440000000  0.4305070000000  0.5176020000000 1.0
C      1  0.4711400000000  0.5316670000000  0.5678200000000 1.0
C      1  0.5724110000000  0.5328930000000  0.4912350000000 1.0
C      1  0.4563220000000  0.5341470000000  0.4404230000000 1.0
C      1  0.5345150000000  0.4686120000000  0.5412950000000 1.0
C      1  0.5177720000000  0.4620910000000  0.4515320000000 1.0
C      1  0.4459030000000  0.4680170000000  0.5059670000000 1.0
C      1  0.4954320000000  0.5019240000000  0.4249060000000 1.0
C      1  0.4378980000000  0.5011580000000  0.5403680000000 1.0
C      1  0.5669370000000  0.5024960000000  0.5343120000000 1.0
C      1  0.5066740000000  0.4981130000000  0.5682240000000 1.0
C      1  0.5547550000000  0.4971340000000  0.4626260000000 1.0
C      1  0.4388790000000  0.4995640000000  0.4704230000000 1.0
C      1  0.5022880000000  0.5023070000000  0.5245970000000 1.0
C      1  0.5182370000000  0.4990740000000  0.4871240000000 1.0
C      1  0.4780040000000  0.5007460000000  0.4907710000000 1.0
C      1  0.5293990000000  0.5395960000000  0.4727950000000 1.0
C      1  0.4605440000000  0.5413320000000  0.4872620000000 1.0
C      1  0.5096020000000  0.5421310000000  0.5417790000000 1.0
C      1  0.5156290000000  0.4694130000000  0.5647690000000 1.0
C      1  0.5482650000000  0.4671050000000  0.4589800000000 1.0
C      1  0.4355970000000  0.4701830000000  0.4775790000000 1.0
C      1  0.5622740000000  0.4602420000000  0.5079090000000 1.0
C      1  0.4740200000000  0.4610450000000  0.4431610000000 1.0
C      1  0.4631290000000  0.4584910000000  0.5454250000000 1.0
C      1  0.4949190000000  0.5142730000000  0.4645190000000 1.0
C      1  0.4715970000000  0.5159630000000  0.5210910000000 1.0
C      1  0.5325630000000  0.5157280000000  0.5152620000000 1.0
END
