TITL C-8703-8361-12 -4.12604100750179e-07 125000 -359.366743859173 0 0 60 (C3) n - 1
REM
REM in /home/bkarasulu/CARBON/AIRSS/Generating-Clusters/EDIP-Nigel-Params/Higher-Symm/Box-15A/Only-C60/SD-CG/HFTN-CG
REM
REM
REM
REM
REM
REM ./C.cell (414f73aa93bd7a1190c7fd0f31ff2f98)
REM
REM compiler GCC version 9.2.1 20190827 (Red Hat 9.2.1-1)
REM options -cpp -mtune=generic -march=x86-64 -g -O0 -fpre-include=/usr/include/finclude/math-vector-fortran.h
REM seed 520462971 -568467699 1265952875 927088705 741853712 1945222808 1411403596 360841306 572949508 -830919512 1249304566 1003537414 -1114600948 487193839 348533175 162136736 23741064 -1788021444 -504635765 -1653071751 -440359141 -204445043 895326142 1572683939 1223324682 1069958546 -1777147587 -1756833776 -284824745 1676216860 828025259 -1986214396 -1741059095
REM
CELL 1.54180   50.00000   50.00000   50.00000   90.00000   90.00000   90.00000
LATT -1
SFAC C  
C      1  0.5546050000000  0.4715760000000  0.5320310000000 1.0
C      1  0.5546050000000  0.5419510000000  0.5086000000000 1.0
C      1  0.5546050000000  0.4864720000000  0.4593680000000 1.0
C      1  0.4415660000000  0.5327370000000  0.4648280000000 1.0
C      1  0.4415660000000  0.4531720000000  0.4892360000000 1.0
C      1  0.4415670000000  0.5140920000000  0.5459370000000 1.0
C      1  0.4932840000000  0.5616090000000  0.5212280000000 1.0
C      1  0.4932830000000  0.4875790000000  0.4360310000000 1.0
C      1  0.4932830000000  0.4508120000000  0.5427410000000 1.0
C      1  0.5151400000000  0.5216020000000  0.5233120000000 1.0
C      1  0.5151400000000  0.5093880000000  0.4696360000000 1.0
C      1  0.5151400000000  0.4690100000000  0.5070520000000 1.0
C      1  0.4393150000000  0.4781590000000  0.5050460000000 1.0
C      1  0.4393150000000  0.5152910000000  0.5163930000000 1.0
C      1  0.4393150000000  0.5065510000000  0.4785630000000 1.0
C      1  0.5449700000000  0.5165920000000  0.5172930000000 1.0
C      1  0.5449690000000  0.5066800000000  0.4769840000000 1.0
C      1  0.5449690000000  0.4767280000000  0.5057220000000 1.0
C      1  0.5416370000000  0.4291460000000  0.4977050000000 1.0
C      1  0.5416380000000  0.5334400000000  0.5625080000000 1.0
C      1  0.5416370000000  0.5374140000000  0.4397860000000 1.0
C      1  0.5136210000000  0.4418480000000  0.5216200000000 1.0
C      1  0.5136220000000  0.5477990000000  0.5395510000000 1.0
C      1  0.5136210000000  0.5103530000000  0.4388290000000 1.0
C      1  0.4946800000000  0.4869620000000  0.4806710000000 1.0
C      1  0.4946810000000  0.4897800000000  0.5209560000000 1.0
C      1  0.4946810000000  0.5232590000000  0.4983730000000 1.0
C      1  0.5188630000000  0.5528070000000  0.4764410000000 1.0
C      1  0.5188630000000  0.4531940000000  0.4660460000000 1.0
C      1  0.5188640000000  0.4939980000000  0.5575120000000 1.0
C      1  0.4740290000000  0.4445720000000  0.4585130000000 1.0
C      1  0.4740310000000  0.4917850000000  0.5687460000000 1.0
C      1  0.4740300000000  0.5636430000000  0.4727420000000 1.0
C      1  0.4680920000000  0.5489470000000  0.5301900000000 1.0
C      1  0.4680910000000  0.5016720000000  0.4425160000000 1.0
C      1  0.4680910000000  0.4493820000000  0.5272940000000 1.0
C      1  0.4516500000000  0.4607160000000  0.4634730000000 1.0
C      1  0.4516510000000  0.4880080000000  0.5522850000000 1.0
C      1  0.4516500000000  0.5512760000000  0.4842430000000 1.0
C      1  0.5470410000000  0.5518720000000  0.4840790000000 1.0
C      1  0.5470400000000  0.4602760000000  0.4630370000000 1.0
C      1  0.5470410000000  0.4878510000000  0.5528830000000 1.0
C      1  0.4975390000000  0.5389110000000  0.5645530000000 1.0
C      1  0.4975380000000  0.5364490000000  0.4340260000000 1.0
C      1  0.4975380000000  0.4246400000000  0.5014210000000 1.0
C      1  0.5564460000000  0.5322980000000  0.4644020000000 1.0
C      1  0.5564460000000  0.4530220000000  0.4898270000000 1.0
C      1  0.5564470000000  0.5146790000000  0.5457700000000 1.0
C      1  0.5182350000000  0.5192350000000  0.5727270000000 1.0
C      1  0.5182340000000  0.5533660000000  0.4469790000000 1.0
C      1  0.5182340000000  0.4273990000000  0.4802940000000 1.0
C      1  0.4970810000000  0.5662940000000  0.4904310000000 1.0
C      1  0.4970800000000  0.4585660000000  0.4473720000000 1.0
C      1  0.4970810000000  0.4751400000000  0.5621970000000 1.0
C      1  0.4703360000000  0.5279350000000  0.5543340000000 1.0
C      1  0.4703350000000  0.5330870000000  0.4486410000000 1.0
C      1  0.4703350000000  0.4389780000000  0.4970260000000 1.0
C      1  0.4618720000000  0.4883820000000  0.4678680000000 1.0
C      1  0.4618720000000  0.4779820000000  0.5261280000000 1.0
C      1  0.4618720000000  0.5336360000000  0.5060050000000 1.0
END
