TITL C-8706-7473-193 -3.14027950477283e-06 125000 -358.993595114824 0 0 60 (C1) n - 1
REM
REM in /home/bkarasulu/CARBON/AIRSS/Generating-Clusters/EDIP-Nigel-Params/Higher-Symm/Box-15A/Only-C60/SD-CG/HFTN-CG
REM
REM
REM
REM
REM
REM ./C.cell (414f73aa93bd7a1190c7fd0f31ff2f98)
REM
REM compiler GCC version 9.2.1 20190827 (Red Hat 9.2.1-1)
REM options -cpp -mtune=generic -march=x86-64 -g -O0 -fpre-include=/usr/include/finclude/math-vector-fortran.h
REM seed -154217193 220781889 -746921762 -1839591421 376051080 -1155247240 1814084681 -1150318745 -2022925561 1471823757 -501198241 1789284121 428458135 -699988188 1362200990 1048558293 423980764 -2006920102 -361396315 -2125083833 1568463817 746874312 -1719843941 869402514 2070873142 -932670872 826900191 -1047198286 -1115120284 -1988925398 1639061073 -1261760690 1690114573
REM
CELL 1.54180   50.00000   50.00000   50.00000   90.00000   90.00000   90.00000
LATT -1
SFAC C  
C      1  0.5248680000000  0.5434380000000  0.4315440000000 1.0
C      1  0.4430900000000  0.5406350000000  0.4538690000000 1.0
C      1  0.4413060000000  0.5430340000000  0.5426060000000 1.0
C      1  0.5191580000000  0.5416770000000  0.5698200000000 1.0
C      1  0.5715060000000  0.5404960000000  0.5016770000000 1.0
C      1  0.4786170000000  0.5382630000000  0.4302300000000 1.0
C      1  0.5568700000000  0.5369180000000  0.4593380000000 1.0
C      1  0.5583790000000  0.5386720000000  0.5459230000000 1.0
C      1  0.4762340000000  0.5370660000000  0.5666810000000 1.0
C      1  0.4267280000000  0.5371860000000  0.4987180000000 1.0
C      1  0.5782540000000  0.5143750000000  0.5108480000000 1.0
C      1  0.5334350000000  0.5172960000000  0.4236010000000 1.0
C      1  0.4433380000000  0.5142590000000  0.4428370000000 1.0
C      1  0.4303180000000  0.5165940000000  0.5421060000000 1.0
C      1  0.5151510000000  0.5148910000000  0.5788600000000 1.0
C      1  0.4215750000000  0.5131030000000  0.5125440000000 1.0
C      1  0.4669550000000  0.5135900000000  0.4227350000000 1.0
C      1  0.5561520000000  0.5133070000000  0.4440930000000 1.0
C      1  0.5710500000000  0.5139170000000  0.5410980000000 1.0
C      1  0.4848410000000  0.5129220000000  0.5786510000000 1.0
C      1  0.5126390000000  0.4631000000000  0.4259100000000 1.0
C      1  0.4442180000000  0.4661360000000  0.4670270000000 1.0
C      1  0.4498750000000  0.4641020000000  0.5502780000000 1.0
C      1  0.5300870000000  0.4650760000000  0.5649710000000 1.0
C      1  0.5634580000000  0.4660670000000  0.4926150000000 1.0
C      1  0.4831170000000  0.4621380000000  0.4261700000000 1.0
C      1  0.5542750000000  0.4656850000000  0.4647250000000 1.0
C      1  0.5539930000000  0.4634220000000  0.5478480000000 1.0
C      1  0.4738460000000  0.4637330000000  0.5672050000000 1.0
C      1  0.4363150000000  0.4658660000000  0.4953620000000 1.0
C      1  0.4795560000000  0.4898100000000  0.4387110000000 1.0
C      1  0.4421560000000  0.4914190000000  0.5078500000000 1.0
C      1  0.4849070000000  0.4902130000000  0.5581820000000 1.0
C      1  0.5505800000000  0.4908950000000  0.5353800000000 1.0
C      1  0.5416610000000  0.4908400000000  0.4579420000000 1.0
C      1  0.5188560000000  0.4911550000000  0.4371370000000 1.0
C      1  0.5579640000000  0.4919180000000  0.5051670000000 1.0
C      1  0.5173870000000  0.4916930000000  0.5577480000000 1.0
C      1  0.4508100000000  0.4918160000000  0.5374640000000 1.0
C      1  0.4562490000000  0.4916740000000  0.4594900000000 1.0
C      1  0.5355470000000  0.4434950000000  0.4667450000000 1.0
C      1  0.4798950000000  0.4398240000000  0.4450480000000 1.0
C      1  0.4534840000000  0.4439580000000  0.5041820000000 1.0
C      1  0.4873750000000  0.4409090000000  0.5554580000000 1.0
C      1  0.5452600000000  0.4409780000000  0.5309290000000 1.0
C      1  0.4630550000000  0.4437210000000  0.4680330000000 1.0
C      1  0.5173880000000  0.4406440000000  0.4445640000000 1.0
C      1  0.5471350000000  0.4438180000000  0.5024290000000 1.0
C      1  0.5159390000000  0.4416950000000  0.5546400000000 1.0
C      1  0.4573000000000  0.4416880000000  0.5325440000000 1.0
C      1  0.4630080000000  0.5510430000000  0.4715890000000 1.0
C      1  0.4623390000000  0.5522790000000  0.5253730000000 1.0
C      1  0.5132260000000  0.5523010000000  0.5440910000000 1.0
C      1  0.5454950000000  0.5518550000000  0.5020250000000 1.0
C      1  0.5149350000000  0.5522510000000  0.4567980000000 1.0
C      1  0.5353000000000  0.5440520000000  0.4759410000000 1.0
C      1  0.5366570000000  0.5448970000000  0.5289450000000 1.0
C      1  0.4855820000000  0.5438080000000  0.5407710000000 1.0
C      1  0.4541390000000  0.5441140000000  0.4984490000000 1.0
C      1  0.4871670000000  0.5442760000000  0.4564870000000 1.0
END
