TITL C-8703-8361-221 0.000137895865384974 125000 -363.999713659504 0 0 60 (C1) n - 1
REM
REM in /home/bkarasulu/CARBON/AIRSS/Generating-Clusters/EDIP-Nigel-Params/Higher-Symm/Box-15A/Only-C60/SD-CG/HFTN-CG
REM
REM
REM
REM
REM
REM ./C.cell (414f73aa93bd7a1190c7fd0f31ff2f98)
REM
REM compiler GCC version 9.2.1 20190827 (Red Hat 9.2.1-1)
REM options -cpp -mtune=generic -march=x86-64 -g -O0 -fpre-include=/usr/include/finclude/math-vector-fortran.h
REM seed -821096853 1409329594 -951564484 553652480 2076101606 -2059753403 1275237759 1276838743 -1883059936 -1237947416 -1253019514 -573852268 -400315939 928729946 -1959003826 105697877 1710040554 -34276810 -2103837498 -1594342378 1892698632 2004247781 -1655606312 1020458347 1257114785 -544625331 -854469292 -1943506007 -1643771217 -1318102770 -399560820 -649279730 521702167
REM
CELL 1.54180   50.00000   50.00000   50.00000   90.00000   90.00000   90.00000
LATT -1
SFAC C  
C      1  0.5205150000000  0.4949760000000  0.5064570000000 1.0
C      1  0.5100840000000  0.5165020000000  0.5542010000000 1.0
C      1  0.4338860000000  0.4899380000000  0.5287750000000 1.0
C      1  0.4651930000000  0.5482750000000  0.4767020000000 1.0
C      1  0.5538950000000  0.4783780000000  0.4723480000000 1.0
C      1  0.4355390000000  0.4802610000000  0.4850990000000 1.0
C      1  0.5799060000000  0.5070680000000  0.4981690000000 1.0
C      1  0.4731240000000  0.5439470000000  0.5436940000000 1.0
C      1  0.4214160000000  0.5112300000000  0.5129980000000 1.0
C      1  0.5014140000000  0.4759290000000  0.4787740000000 1.0
C      1  0.5487830000000  0.5315790000000  0.4639370000000 1.0
C      1  0.5090000000000  0.5223710000000  0.4985570000000 1.0
C      1  0.5261450000000  0.5030890000000  0.4261700000000 1.0
C      1  0.5449960000000  0.5472090000000  0.5434590000000 1.0
C      1  0.5197320000000  0.4924480000000  0.5679620000000 1.0
C      1  0.5403200000000  0.4786740000000  0.5512250000000 1.0
C      1  0.4828990000000  0.4740070000000  0.5046820000000 1.0
C      1  0.4487650000000  0.4778920000000  0.4586940000000 1.0
C      1  0.5091560000000  0.4343550000000  0.4715500000000 1.0
C      1  0.5369120000000  0.5555770000000  0.4821040000000 1.0
C      1  0.4899810000000  0.5493610000000  0.4621270000000 1.0
C      1  0.4904070000000  0.4993640000000  0.4591730000000 1.0
C      1  0.5801540000000  0.5294530000000  0.5155830000000 1.0
C      1  0.4820590000000  0.5158700000000  0.5477810000000 1.0
C      1  0.5321970000000  0.4714910000000  0.4557820000000 1.0
C      1  0.4620060000000  0.4314860000000  0.4644670000000 1.0
C      1  0.5170800000000  0.4483960000000  0.4486340000000 1.0
C      1  0.5270170000000  0.5458710000000  0.5094480000000 1.0
C      1  0.5222010000000  0.4584090000000  0.5379520000000 1.0
C      1  0.5050510000000  0.5244800000000  0.4661370000000 1.0
C      1  0.4369370000000  0.5362250000000  0.5078660000000 1.0
C      1  0.4931900000000  0.4612420000000  0.4365690000000 1.0
C      1  0.4694620000000  0.4570250000000  0.4553620000000 1.0
C      1  0.4611720000000  0.5038340000000  0.4578050000000 1.0
C      1  0.4128850000000  0.4978480000000  0.4888250000000 1.0
C      1  0.5083990000000  0.5672680000000  0.5198400000000 1.0
C      1  0.5473580000000  0.4963000000000  0.5268640000000 1.0
C      1  0.4949750000000  0.4766520000000  0.5672730000000 1.0
C      1  0.5583480000000  0.5067620000000  0.4785110000000 1.0
C      1  0.4772890000000  0.5237000000000  0.5049190000000 1.0
C      1  0.5589830000000  0.4618150000000  0.4957450000000 1.0
C      1  0.5306190000000  0.4460760000000  0.5132280000000 1.0
C      1  0.4714190000000  0.4904690000000  0.5584740000000 1.0
C      1  0.5267330000000  0.5247860000000  0.4451250000000 1.0
C      1  0.4877500000000  0.5721590000000  0.4999440000000 1.0
C      1  0.5064400000000  0.4374090000000  0.4991260000000 1.0
C      1  0.5000750000000  0.4916550000000  0.4318190000000 1.0
C      1  0.5205680000000  0.5431040000000  0.5579150000000 1.0
C      1  0.4559300000000  0.4744800000000  0.5396590000000 1.0
C      1  0.5579100000000  0.5246740000000  0.5321320000000 1.0
C      1  0.5710970000000  0.4821870000000  0.5132660000000 1.0
C      1  0.4985100000000  0.5601130000000  0.5468300000000 1.0
C      1  0.5076170000000  0.5685530000000  0.4755440000000 1.0
C      1  0.4787100000000  0.4318330000000  0.5105280000000 1.0
C      1  0.5019300000000  0.4812300000000  0.5291170000000 1.0
C      1  0.4618330000000  0.4224860000000  0.4900020000000 1.0
C      1  0.4609070000000  0.4949890000000  0.5011080000000 1.0
C      1  0.4588240000000  0.5544220000000  0.5196370000000 1.0
C      1  0.4485730000000  0.5249200000000  0.4728770000000 1.0
C      1  0.4657230000000  0.4479000000000  0.5314470000000 1.0
END
