TITL C-8702-7969-192 -0.000225215802126829 125000 -367.529458740453 0 0 60 (C2v) n - 1
REM
REM in /home/bkarasulu/CARBON/AIRSS/Generating-Clusters/EDIP-Nigel-Params/Higher-Symm/Box-15A/Only-C60/SD-CG/HFTN-CG
REM
REM
REM
REM
REM
REM ./C.cell (414f73aa93bd7a1190c7fd0f31ff2f98)
REM
REM compiler GCC version 9.2.1 20190827 (Red Hat 9.2.1-1)
REM options -cpp -mtune=generic -march=x86-64 -g -O0 -fpre-include=/usr/include/finclude/math-vector-fortran.h
REM seed 108064443 -460613730 -296538993 -1023387207 -213258678 -1479850399 -2092394666 -386148539 -1535308010 2049821899 -1465698344 -1195392032 -2011032701 -649622607 -750929419 850936181 1593855479 -877758189 1479182201 -1040672939 -1350707088 121010198 547986817 -1627360077 309161781 -1827741821 280874365 -1140872698 792444766 -876221801 -1866415526 -2019985760 -2127995829
REM
CELL 1.54180   50.00000   50.00000   50.00000   90.00000   90.00000   90.00000
LATT -1
SFAC C  
C      1  0.5626590000000  0.4712490000000  0.4998110000000 1.0
C      1  0.5629970000000  0.5142650000000  0.5246560000000 1.0
C      1  0.5629690000000  0.5144010000000  0.4752490000000 1.0
C      1  0.4373410000000  0.4712490000000  0.4998110000000 1.0
C      1  0.4370030000000  0.5142650000000  0.5246560000000 1.0
C      1  0.4370310000000  0.5144010000000  0.4752490000000 1.0
C      1  0.5626590000000  0.5287510000000  0.4998110000000 1.0
C      1  0.5629970000000  0.4857350000000  0.5246560000000 1.0
C      1  0.5629690000000  0.4855990000000  0.4752490000000 1.0
C      1  0.4373410000000  0.5287510000000  0.4998110000000 1.0
C      1  0.4370030000000  0.4857350000000  0.5246560000000 1.0
C      1  0.4370310000000  0.4855990000000  0.4752490000000 1.0
C      1  0.5577380000000  0.4437790000000  0.4985690000000 1.0
C      1  0.5588200000000  0.5271930000000  0.5491940000000 1.0
C      1  0.5586240000000  0.5291480000000  0.4517870000000 1.0
C      1  0.4422620000000  0.4437790000000  0.4985690000000 1.0
C      1  0.4411800000000  0.5271930000000  0.5491940000000 1.0
C      1  0.4413760000000  0.5291470000000  0.4517870000000 1.0
C      1  0.5577380000000  0.5562210000000  0.4985690000000 1.0
C      1  0.5588200000000  0.4728070000000  0.5491940000000 1.0
C      1  0.5586240000000  0.4708530000000  0.4517870000000 1.0
C      1  0.4422620000000  0.5562210000000  0.4985690000000 1.0
C      1  0.4411800000000  0.4728070000000  0.5491940000000 1.0
C      1  0.4413760000000  0.4708520000000  0.4517870000000 1.0
C      1  0.4698270000000  0.5590920000000  0.5024030000000 1.0
C      1  0.4690260000000  0.4722020000000  0.4477310000000 1.0
C      1  0.4687520000000  0.4682280000000  0.5500690000000 1.0
C      1  0.5301730000000  0.5590920000000  0.5024030000000 1.0
C      1  0.5309740000000  0.4722020000000  0.4477310000000 1.0
C      1  0.5312480000000  0.4682280000000  0.5500690000000 1.0
C      1  0.4698270000000  0.4409080000000  0.5024030000000 1.0
C      1  0.4690260000000  0.5277980000000  0.4477310000000 1.0
C      1  0.4687520000000  0.5317720000000  0.5500690000000 1.0
C      1  0.5301730000000  0.4409080000000  0.5024030000000 1.0
C      1  0.5309740000000  0.5277980000000  0.4477310000000 1.0
C      1  0.5312480000000  0.5317720000000  0.5500690000000 1.0
C      1  0.5238410000000  0.5727610000000  0.5259940000000 1.0
C      1  0.5239370000000  0.4864050000000  0.4246760000000 1.0
C      1  0.5243930000000  0.4411440000000  0.5493410000000 1.0
C      1  0.4761590000000  0.5727620000000  0.5259940000000 1.0
C      1  0.4760630000000  0.4864050000000  0.4246760000000 1.0
C      1  0.4756070000000  0.4411440000000  0.5493410000000 1.0
C      1  0.5238410000000  0.4272390000000  0.5259940000000 1.0
C      1  0.5239370000000  0.5135950000000  0.4246760000000 1.0
C      1  0.5243930000000  0.5588560000000  0.5493410000000 1.0
C      1  0.4761590000000  0.4272390000000  0.5259950000000 1.0
C      1  0.4760630000000  0.5135940000000  0.4246760000000 1.0
C      1  0.4756070000000  0.5588560000000  0.5493410000000 1.0
C      1  0.5184560000000  0.4840730000000  0.4724670000000 1.0
C      1  0.5185000000000  0.4837970000000  0.5276500000000 1.0
C      1  0.5157300000000  0.5326150000000  0.5004030000000 1.0
C      1  0.4815440000000  0.4840730000000  0.4724670000000 1.0
C      1  0.4815000000000  0.4837970000000  0.5276500000000 1.0
C      1  0.4842700000000  0.5326150000000  0.5004030000000 1.0
C      1  0.5184560000000  0.5159270000000  0.4724670000000 1.0
C      1  0.5185000000000  0.5162030000000  0.5276500000000 1.0
C      1  0.5157300000000  0.4673850000000  0.5004030000000 1.0
C      1  0.4815440000000  0.5159270000000  0.4724670000000 1.0
C      1  0.4815000000000  0.5162030000000  0.5276500000000 1.0
C      1  0.4842700000000  0.4673850000000  0.5004030000000 1.0
END
