TITL C-8700-8172-111 9.17652250557785e-07 125000 -365.584273633062 0 0 60 (C1) n - 1
REM
REM in /home/bkarasulu/CARBON/AIRSS/Generating-Clusters/EDIP-Nigel-Params/Higher-Symm/Box-15A/Only-C60/SD-CG/HFTN-CG
REM
REM
REM
REM
REM
REM ./C.cell (414f73aa93bd7a1190c7fd0f31ff2f98)
REM
REM compiler GCC version 9.2.1 20190827 (Red Hat 9.2.1-1)
REM options -cpp -mtune=generic -march=x86-64 -g -O0 -fpre-include=/usr/include/finclude/math-vector-fortran.h
REM seed -1869410781 376833868 1321017464 -638503640 234182450 27552216 2143510982 616258567 -1299394758 -1441223922 569104548 72484206 13640358 -1951412397 517965700 1806109831 135109269 1028363299 989987727 -2131906675 185717174 -1076024211 329503992 -1571675886 -1568528343 1671626413 100258245 1947255855 -229232252 859887948 422900779 -86368398 1261034596
REM
CELL 1.54180   50.00000   50.00000   50.00000   90.00000   90.00000   90.00000
LATT -1
SFAC C  
C      1  0.4857190000000  0.4398460000000  0.5044420000000 1.0
C      1  0.5152350000000  0.4391020000000  0.5046690000000 1.0
C      1  0.5615600000000  0.4800680000000  0.4749110000000 1.0
C      1  0.4382310000000  0.4813460000000  0.4731050000000 1.0
C      1  0.5524690000000  0.5017000000000  0.5354970000000 1.0
C      1  0.4519690000000  0.5006610000000  0.5370920000000 1.0
C      1  0.5154700000000  0.5057150000000  0.4652590000000 1.0
C      1  0.4843220000000  0.5067330000000  0.4617960000000 1.0
C      1  0.4362910000000  0.4793730000000  0.5246510000000 1.0
C      1  0.5672970000000  0.4787240000000  0.5244970000000 1.0
C      1  0.4702310000000  0.5414950000000  0.5562660000000 1.0
C      1  0.5307110000000  0.5421990000000  0.5541950000000 1.0
C      1  0.5068710000000  0.5219840000000  0.5160000000000 1.0
C      1  0.4758430000000  0.5236800000000  0.5081780000000 1.0
C      1  0.5292120000000  0.4455520000000  0.5290290000000 1.0
C      1  0.4720560000000  0.4455620000000  0.5292220000000 1.0
C      1  0.4870550000000  0.4454960000000  0.4302650000000 1.0
C      1  0.5137720000000  0.4442670000000  0.4312570000000 1.0
C      1  0.5124660000000  0.5471230000000  0.4985540000000 1.0
C      1  0.4859300000000  0.5572970000000  0.4921320000000 1.0
C      1  0.5603800000000  0.5418430000000  0.4870230000000 1.0
C      1  0.4426630000000  0.5423420000000  0.4872750000000 1.0
C      1  0.5235750000000  0.4913520000000  0.4391090000000 1.0
C      1  0.4769070000000  0.4926000000000  0.4358000000000 1.0
C      1  0.5523710000000  0.5300030000000  0.4630730000000 1.0
C      1  0.4476990000000  0.5316380000000  0.4617960000000 1.0
C      1  0.5278750000000  0.5386380000000  0.4502440000000 1.0
C      1  0.4715290000000  0.5402210000000  0.4475270000000 1.0
C      1  0.4690020000000  0.4401430000000  0.4818430000000 1.0
C      1  0.5321940000000  0.4379410000000  0.4824500000000 1.0
C      1  0.4452730000000  0.4533090000000  0.5292070000000 1.0
C      1  0.5559830000000  0.4535220000000  0.5292160000000 1.0
C      1  0.5548410000000  0.5519240000000  0.5128640000000 1.0
C      1  0.4446460000000  0.5526930000000  0.5135720000000 1.0
C      1  0.5316790000000  0.4959310000000  0.5552320000000 1.0
C      1  0.4685040000000  0.4949830000000  0.5605740000000 1.0
C      1  0.5148780000000  0.4549990000000  0.5516260000000 1.0
C      1  0.4865910000000  0.4553690000000  0.5516820000000 1.0
C      1  0.5285520000000  0.4715430000000  0.5692860000000 1.0
C      1  0.4734730000000  0.4694670000000  0.5717900000000 1.0
C      1  0.4793470000000  0.4985790000000  0.4905280000000 1.0
C      1  0.5099310000000  0.4977070000000  0.4969960000000 1.0
C      1  0.5167160000000  0.5651110000000  0.5413620000000 1.0
C      1  0.4858950000000  0.5607240000000  0.5399960000000 1.0
C      1  0.4855540000000  0.5285120000000  0.4246490000000 1.0
C      1  0.5145350000000  0.5265190000000  0.4271930000000 1.0
C      1  0.5535680000000  0.5325190000000  0.5360950000000 1.0
C      1  0.4501840000000  0.5310470000000  0.5361450000000 1.0
C      1  0.4385600000000  0.5053210000000  0.4585520000000 1.0
C      1  0.5604590000000  0.5035590000000  0.4600890000000 1.0
C      1  0.4859610000000  0.5183710000000  0.5665840000000 1.0
C      1  0.5122710000000  0.5186340000000  0.5503470000000 1.0
C      1  0.4708780000000  0.5671310000000  0.5146970000000 1.0
C      1  0.5288690000000  0.5670700000000  0.5136310000000 1.0
C      1  0.5311350000000  0.4635560000000  0.4415270000000 1.0
C      1  0.4693220000000  0.4649150000000  0.4394950000000 1.0
C      1  0.4580080000000  0.4607500000000  0.4658280000000 1.0
C      1  0.5436640000000  0.4584070000000  0.4669500000000 1.0
C      1  0.4275130000000  0.4826760000000  0.4986910000000 1.0
C      1  0.5763050000000  0.4805090000000  0.4984400000000 1.0
END
