TITL C-8700-8172-364 4.79815482401101e-06 125000 -352.100049197523 0 0 60 (C1) n - 1
REM
REM in /home/bkarasulu/CARBON/AIRSS/Generating-Clusters/EDIP-Nigel-Params/Higher-Symm/Box-15A/Only-C60/SD-CG/HFTN-CG
REM
REM
REM
REM
REM
REM ./C.cell (414f73aa93bd7a1190c7fd0f31ff2f98)
REM
REM compiler GCC version 9.2.1 20190827 (Red Hat 9.2.1-1)
REM options -cpp -mtune=generic -march=x86-64 -g -O0 -fpre-include=/usr/include/finclude/math-vector-fortran.h
REM seed 1643294636 -1012099694 2023361431 -298043067 -203585426 1650605402 -1902843285 566455212 -1983641868 -229816995 -1675831445 122318764 1955189015 717926072 -1489401956 1108348819 -1193029320 -1880910030 1979345380 -575648357 -719259260 677794656 -1537149136 -1781751429 1323462254 1607512615 -794560724 -1447921529 1341469596 -1773048137 1227956471 290332253 -1852802545
REM
CELL 1.54180   50.00000   50.00000   50.00000   90.00000   90.00000   90.00000
LATT -1
SFAC C  
C      1  0.4614310000000  0.4768790000000  0.5546600000000 1.0
C      1  0.5600310000000  0.4753080000000  0.5051570000000 1.0
C      1  0.4766310000000  0.4713540000000  0.4293690000000 1.0
C      1  0.5311430000000  0.5693230000000  0.4800880000000 1.0
C      1  0.4642490000000  0.5649840000000  0.4821790000000 1.0
C      1  0.5027330000000  0.5683350000000  0.5412900000000 1.0
C      1  0.5647290000000  0.5410750000000  0.5383660000000 1.0
C      1  0.5026000000000  0.5362030000000  0.4277750000000 1.0
C      1  0.4412520000000  0.5306710000000  0.5388300000000 1.0
C      1  0.4708390000000  0.4505220000000  0.5115920000000 1.0
C      1  0.5216240000000  0.4481550000000  0.5223720000000 1.0
C      1  0.5018680000000  0.4404490000000  0.4638720000000 1.0
C      1  0.5091980000000  0.5814920000000  0.4678600000000 1.0
C      1  0.4653380000000  0.5745420000000  0.5081690000000 1.0
C      1  0.5222290000000  0.5828930000000  0.5277070000000 1.0
C      1  0.5316890000000  0.5011530000000  0.4490900000000 1.0
C      1  0.4404740000000  0.4983430000000  0.4998290000000 1.0
C      1  0.5392830000000  0.5030650000000  0.5566410000000 1.0
C      1  0.4220710000000  0.4780050000000  0.4920420000000 1.0
C      1  0.5462330000000  0.4774680000000  0.5672060000000 1.0
C      1  0.5248890000000  0.4736290000000  0.4447900000000 1.0
C      1  0.5228630000000  0.4350670000000  0.4453820000000 1.0
C      1  0.4423140000000  0.4501400000000  0.5091700000000 1.0
C      1  0.5383490000000  0.4469230000000  0.5454660000000 1.0
C      1  0.4287690000000  0.4519660000000  0.4848860000000 1.0
C      1  0.5301170000000  0.4550670000000  0.5707420000000 1.0
C      1  0.5417240000000  0.4532320000000  0.4362350000000 1.0
C      1  0.4863740000000  0.4590080000000  0.5635440000000 1.0
C      1  0.5543130000000  0.4576640000000  0.4788960000000 1.0
C      1  0.4545320000000  0.4579900000000  0.4489520000000 1.0
C      1  0.5124910000000  0.5108570000000  0.5463760000000 1.0
C      1  0.5293650000000  0.5117450000000  0.4769120000000 1.0
C      1  0.4623230000000  0.5062170000000  0.4814050000000 1.0
C      1  0.4502680000000  0.4647620000000  0.4218990000000 1.0
C      1  0.4653470000000  0.4666830000000  0.5806760000000 1.0
C      1  0.5797680000000  0.4668420000000  0.4868020000000 1.0
C      1  0.4848760000000  0.5314510000000  0.5636850000000 1.0
C      1  0.5583930000000  0.5324720000000  0.4897140000000 1.0
C      1  0.4595750000000  0.5301900000000  0.4511900000000 1.0
C      1  0.5441070000000  0.5464250000000  0.4690960000000 1.0
C      1  0.4489750000000  0.5420570000000  0.4747780000000 1.0
C      1  0.5084300000000  0.5469680000000  0.5594120000000 1.0
C      1  0.5299710000000  0.4661870000000  0.4996900000000 1.0
C      1  0.4838720000000  0.4642880000000  0.4595530000000 1.0
C      1  0.4837630000000  0.4691150000000  0.5329370000000 1.0
C      1  0.5000230000000  0.4944580000000  0.5243620000000 1.0
C      1  0.5113280000000  0.4918160000000  0.4955600000000 1.0
C      1  0.4858120000000  0.4873100000000  0.4790550000000 1.0
C      1  0.4765250000000  0.5634880000000  0.5309330000000 1.0
C      1  0.5368740000000  0.5695400000000  0.5082490000000 1.0
C      1  0.4871660000000  0.5646860000000  0.4651060000000 1.0
C      1  0.5226250000000  0.5186620000000  0.4296830000000 1.0
C      1  0.4316370000000  0.5171420000000  0.5180170000000 1.0
C      1  0.5585360000000  0.5228060000000  0.5567170000000 1.0
C      1  0.4926660000000  0.4189540000000  0.4802700000000 1.0
C      1  0.4827580000000  0.4241090000000  0.5070320000000 1.0
C      1  0.5103520000000  0.4234320000000  0.5146940000000 1.0
C      1  0.5550180000000  0.5479850000000  0.5135100000000 1.0
C      1  0.4824720000000  0.5457780000000  0.4440070000000 1.0
C      1  0.4647980000000  0.5426710000000  0.5465220000000 1.0
END
