TITL C-8706-7473-255 0.000654688392649981 125000 -357.136862014392 0 0 60 (C1) n - 1
REM
REM in /home/bkarasulu/CARBON/AIRSS/Generating-Clusters/EDIP-Nigel-Params/Higher-Symm/Box-15A/Only-C60/SD-CG/HFTN-CG
REM
REM
REM
REM
REM
REM ./C.cell (414f73aa93bd7a1190c7fd0f31ff2f98)
REM
REM compiler GCC version 9.2.1 20190827 (Red Hat 9.2.1-1)
REM options -cpp -mtune=generic -march=x86-64 -g -O0 -fpre-include=/usr/include/finclude/math-vector-fortran.h
REM seed 599961056 1680244334 2128824681 597755546 1747994491 -1689279194 422584767 1589991726 -302137585 637370985 -1138079374 76481849 1936092351 -2080466217 1014619288 1972559251 183223160 1828085191 1786146297 1790574368 -1098001837 1743787960 -1873450823 -1557684284 1496362493 -1572824711 1244961605 2111097127 1394914234 776069321 -2092566622 -1297111883 1254017410
REM
CELL 1.54180   50.00000   50.00000   50.00000   90.00000   90.00000   90.00000
LATT -1
SFAC C  
C      1  0.5571860000000  0.5184370000000  0.5277430000000 1.0
C      1  0.5691760000000  0.5138060000000  0.4636290000000 1.0
C      1  0.4455580000000  0.5097250000000  0.5172200000000 1.0
C      1  0.4342260000000  0.5133760000000  0.4906650000000 1.0
C      1  0.4826780000000  0.4749750000000  0.5520870000000 1.0
C      1  0.4822160000000  0.4774130000000  0.4491140000000 1.0
C      1  0.5383330000000  0.4304430000000  0.5134850000000 1.0
C      1  0.5382170000000  0.4311880000000  0.4851330000000 1.0
C      1  0.4734300000000  0.5624700000000  0.4642910000000 1.0
C      1  0.4598410000000  0.5598260000000  0.5394920000000 1.0
C      1  0.4890690000000  0.4308720000000  0.4850390000000 1.0
C      1  0.4891510000000  0.4301370000000  0.5140600000000 1.0
C      1  0.4679170000000  0.5239930000000  0.4759500000000 1.0
C      1  0.4703220000000  0.5242100000000  0.5263810000000 1.0
C      1  0.4623390000000  0.5451380000000  0.5627420000000 1.0
C      1  0.4710020000000  0.5495620000000  0.4403840000000 1.0
C      1  0.4666820000000  0.4403030000000  0.5291500000000 1.0
C      1  0.4664930000000  0.4418440000000  0.4707710000000 1.0
C      1  0.4921140000000  0.5086940000000  0.4867060000000 1.0
C      1  0.4936720000000  0.5081290000000  0.5157670000000 1.0
C      1  0.5445590000000  0.4801610000000  0.4078080000000 1.0
C      1  0.5419500000000  0.4781570000000  0.5841820000000 1.0
C      1  0.4349600000000  0.4968740000000  0.4671310000000 1.0
C      1  0.4339800000000  0.4927770000000  0.5376340000000 1.0
C      1  0.4441490000000  0.4524430000000  0.4858440000000 1.0
C      1  0.4438510000000  0.4512090000000  0.5148510000000 1.0
C      1  0.5279840000000  0.5201080000000  0.5641350000000 1.0
C      1  0.5324210000000  0.5173810000000  0.4360940000000 1.0
C      1  0.5425220000000  0.4952880000000  0.5640470000000 1.0
C      1  0.5471290000000  0.4933850000000  0.4305580000000 1.0
C      1  0.5436230000000  0.5271570000000  0.4608050000000 1.0
C      1  0.5380050000000  0.5355270000000  0.5418660000000 1.0
C      1  0.5557600000000  0.5601690000000  0.4942650000000 1.0
C      1  0.5428330000000  0.5760450000000  0.5140800000000 1.0
C      1  0.5185940000000  0.5674130000000  0.4778250000000 1.0
C      1  0.5171540000000  0.5807380000000  0.5025020000000 1.0
C      1  0.4714730000000  0.4515410000000  0.4447830000000 1.0
C      1  0.4722460000000  0.4487570000000  0.5554740000000 1.0
C      1  0.5023380000000  0.5225240000000  0.5744700000000 1.0
C      1  0.5058810000000  0.5206570000000  0.4289110000000 1.0
C      1  0.5180890000000  0.4641800000000  0.4849740000000 1.0
C      1  0.5181860000000  0.4633880000000  0.5152880000000 1.0
C      1  0.4786280000000  0.5239040000000  0.4331730000000 1.0
C      1  0.4748760000000  0.5212300000000  0.5697750000000 1.0
C      1  0.4261190000000  0.4672240000000  0.5294870000000 1.0
C      1  0.4277200000000  0.4703870000000  0.4722160000000 1.0
C      1  0.4627100000000  0.5519370000000  0.4881330000000 1.0
C      1  0.4728410000000  0.5526950000000  0.5149640000000 1.0
C      1  0.5701430000000  0.4909620000000  0.4472150000000 1.0
C      1  0.5625840000000  0.4948690000000  0.5436090000000 1.0
C      1  0.5420840000000  0.5540470000000  0.4705610000000 1.0
C      1  0.5289280000000  0.5614860000000  0.5343080000000 1.0
C      1  0.4636400000000  0.4961290000000  0.5592430000000 1.0
C      1  0.4638270000000  0.4999290000000  0.4433520000000 1.0
C      1  0.4968160000000  0.4825830000000  0.4742480000000 1.0
C      1  0.4969000000000  0.4811500000000  0.5268680000000 1.0
C      1  0.5141840000000  0.4271080000000  0.5277410000000 1.0
C      1  0.5139450000000  0.4284770000000  0.4709570000000 1.0
C      1  0.5791500000000  0.5075200000000  0.5116830000000 1.0
C      1  0.5775960000000  0.4979410000000  0.4851290000000 1.0
END
