TITL C-8704-7456-223 -1.16142737272815e-06 125000 -372.77969848025 0 0 60 (S4) n - 1
REM
REM in /home/bkarasulu/CARBON/AIRSS/Generating-Clusters/EDIP-Nigel-Params/Higher-Symm/Box-15A/Only-C60/SD-CG/HFTN-CG
REM
REM
REM
REM
REM
REM ./C.cell (414f73aa93bd7a1190c7fd0f31ff2f98)
REM
REM compiler GCC version 9.2.1 20190827 (Red Hat 9.2.1-1)
REM options -cpp -mtune=generic -march=x86-64 -g -O0 -fpre-include=/usr/include/finclude/math-vector-fortran.h
REM seed 2829481 -1565099058 1619296016 -1509052606 -574506196 -624460512 524123847 -53836690 -1726299357 2007406359 392843861 -378304828 -1061072593 -929127678 1188336743 -1899720999 -1976300770 -697252106 -957805475 78335969 -211229830 30949399 -1848796032 -334363717 -46716636 -1180437612 -1267207722 419130939 -1051188491 -1684375135 451406810 -1281799091 -2073288547
REM
CELL 1.54180   50.00000   50.00000   50.00000   90.00000   90.00000   90.00000
LATT -1
SFAC C  
C      1  0.4445800000000  0.5294630000000  0.5128620000000 1.0
C      1  0.5293730000000  0.5553370000000  0.4865900000000 1.0
C      1  0.5554280000000  0.4707080000000  0.5132100000000 1.0
C      1  0.4706180000000  0.4444920000000  0.4873380000000 1.0
C      1  0.4468460000000  0.4782420000000  0.5274190000000 1.0
C      1  0.4780530000000  0.5529830000000  0.4724010000000 1.0
C      1  0.5531720000000  0.5221160000000  0.5270950000000 1.0
C      1  0.5219280000000  0.4466590000000  0.4730850000000 1.0
C      1  0.4800310000000  0.4823260000000  0.4219390000000 1.0
C      1  0.4828660000000  0.5204550000000  0.5780560000000 1.0
C      1  0.5199160000000  0.5166470000000  0.4217000000000 1.0
C      1  0.5171870000000  0.4805720000000  0.5783060000000 1.0
C      1  0.5575950000000  0.5474880000000  0.4908820000000 1.0
C      1  0.5475500000000  0.4424610000000  0.5091480000000 1.0
C      1  0.4423990000000  0.4523960000000  0.4915450000000 1.0
C      1  0.4524560000000  0.5576540000000  0.5084240000000 1.0
C      1  0.5544800000000  0.5051980000000  0.5518830000000 1.0
C      1  0.5048390000000  0.4451980000000  0.4484230000000 1.0
C      1  0.4455550000000  0.4954850000000  0.5519830000000 1.0
C      1  0.4951260000000  0.5541200000000  0.4477110000000 1.0
C      1  0.4968680000000  0.5242110000000  0.4381950000000 1.0
C      1  0.5246370000000  0.5035150000000  0.5616160000000 1.0
C      1  0.5030900000000  0.4749790000000  0.4385160000000 1.0
C      1  0.4754040000000  0.4972940000000  0.5616730000000 1.0
C      1  0.4907220000000  0.4727860000000  0.5716080000000 1.0
C      1  0.4722920000000  0.5088330000000  0.4285260000000 1.0
C      1  0.5093270000000  0.5281520000000  0.5712380000000 1.0
C      1  0.5276600000000  0.4902290000000  0.4286290000000 1.0
C      1  0.5203400000000  0.5596210000000  0.4598170000000 1.0
C      1  0.5598970000000  0.4799080000000  0.5398960000000 1.0
C      1  0.4796330000000  0.4398570000000  0.4606180000000 1.0
C      1  0.4401300000000  0.5206140000000  0.5396690000000 1.0
C      1  0.5015210000000  0.5136000000000  0.4651950000000 1.0
C      1  0.5138400000000  0.4986950000000  0.5347190000000 1.0
C      1  0.4984560000000  0.4859440000000  0.4653780000000 1.0
C      1  0.4861840000000  0.5017610000000  0.5347080000000 1.0
C      1  0.4512780000000  0.5093350000000  0.4467760000000 1.0
C      1  0.5097020000000  0.5490520000000  0.5528540000000 1.0
C      1  0.5486860000000  0.4899660000000  0.4468700000000 1.0
C      1  0.4903340000000  0.4516460000000  0.5535000000000 1.0
C      1  0.4364470000000  0.4749720000000  0.4760370000000 1.0
C      1  0.4751380000000  0.5637020000000  0.5237390000000 1.0
C      1  0.5635370000000  0.5247110000000  0.4756680000000 1.0
C      1  0.5248780000000  0.4366150000000  0.5245560000000 1.0
C      1  0.5122700000000  0.4712880000000  0.4863450000000 1.0
C      1  0.4713830000000  0.4878170000000  0.5139290000000 1.0
C      1  0.4877210000000  0.5285300000000  0.4859780000000 1.0
C      1  0.5286260000000  0.5123650000000  0.5137480000000 1.0
C      1  0.4884790000000  0.4621550000000  0.5047110000000 1.0
C      1  0.4621230000000  0.5114930000000  0.4954780000000 1.0
C      1  0.5115240000000  0.5379040000000  0.5042060000000 1.0
C      1  0.5378740000000  0.4884490000000  0.4956040000000 1.0
C      1  0.4454700000000  0.5009510000000  0.4726120000000 1.0
C      1  0.5011400000000  0.5547000000000  0.5270410000000 1.0
C      1  0.5545120000000  0.4986900000000  0.4725890000000 1.0
C      1  0.4988790000000  0.4456600000000  0.5277580000000 1.0
C      1  0.4346540000000  0.4541180000000  0.5189630000000 1.0
C      1  0.4539890000000  0.5652280000000  0.4809470000000 1.0
C      1  0.5653580000000  0.5461260000000  0.5183150000000 1.0
C      1  0.5459990000000  0.4345270000000  0.4817750000000 1.0
END
