TITL C-8705-8172-16 1.21331832419842e-05 125000 -359.823538128511 0 0 60 (C1) n - 1
REM
REM in /home/bkarasulu/CARBON/AIRSS/Generating-Clusters/EDIP-Nigel-Params/Higher-Symm/Box-15A/Only-C60/SD-CG/HFTN-CG
REM
REM
REM
REM
REM
REM ./C.cell (414f73aa93bd7a1190c7fd0f31ff2f98)
REM
REM compiler GCC version 9.2.1 20190827 (Red Hat 9.2.1-1)
REM options -cpp -mtune=generic -march=x86-64 -g -O0 -fpre-include=/usr/include/finclude/math-vector-fortran.h
REM seed -1818233639 1812016912 -1713675042 -518523822 -1378591179 -1818366010 -916171680 1498085419 1864758335 734208444 -515467564 641755687 -2074582357 -1725333944 1539687296 -1889025419 2028136032 1732657793 -1849468659 -1712910591 -95980595 -475516936 1836427695 1811243250 1489689494 1884837305 -2096067932 -1915990988 500396596 -1983115996 134058076 -1858627661 -2068787915
REM
CELL 1.54180   50.00000   50.00000   50.00000   90.00000   90.00000   90.00000
LATT -1
SFAC C  
C      1  0.4459640000000  0.5245950000000  0.5462330000000 1.0
C      1  0.4622490000000  0.4734970000000  0.4613580000000 1.0
C      1  0.4503890000000  0.5239050000000  0.4559000000000 1.0
C      1  0.4401630000000  0.4762870000000  0.5501460000000 1.0
C      1  0.5748480000000  0.4896080000000  0.5331380000000 1.0
C      1  0.5711360000000  0.5014870000000  0.4598400000000 1.0
C      1  0.5719900000000  0.4754140000000  0.4757960000000 1.0
C      1  0.5641600000000  0.5154300000000  0.5461870000000 1.0
C      1  0.5059580000000  0.4692590000000  0.5449020000000 1.0
C      1  0.5032140000000  0.5308240000000  0.4447890000000 1.0
C      1  0.5077360000000  0.4688420000000  0.4438640000000 1.0
C      1  0.4956710000000  0.5342920000000  0.5567400000000 1.0
C      1  0.4660860000000  0.4439630000000  0.5209070000000 1.0
C      1  0.4648370000000  0.5652480000000  0.4877350000000 1.0
C      1  0.4634200000000  0.4346660000000  0.4917970000000 1.0
C      1  0.4666140000000  0.5589080000000  0.5175860000000 1.0
C      1  0.5587490000000  0.5486580000000  0.5277740000000 1.0
C      1  0.5563400000000  0.4397400000000  0.4770740000000 1.0
C      1  0.5574420000000  0.5461390000000  0.4795590000000 1.0
C      1  0.5553680000000  0.4464050000000  0.5238290000000 1.0
C      1  0.4878200000000  0.5387920000000  0.4706200000000 1.0
C      1  0.4941230000000  0.4577760000000  0.5183890000000 1.0
C      1  0.4941370000000  0.5447810000000  0.5201360000000 1.0
C      1  0.4896400000000  0.4633160000000  0.4678190000000 1.0
C      1  0.5426860000000  0.5507800000000  0.5501150000000 1.0
C      1  0.5524670000000  0.4524580000000  0.4524730000000 1.0
C      1  0.5462470000000  0.5513830000000  0.4544860000000 1.0
C      1  0.5572590000000  0.4662820000000  0.5431760000000 1.0
C      1  0.4917500000000  0.4350270000000  0.4795230000000 1.0
C      1  0.5141030000000  0.5641550000000  0.5048070000000 1.0
C      1  0.5120380000000  0.4373240000000  0.5032430000000 1.0
C      1  0.4970200000000  0.5670730000000  0.4795080000000 1.0
C      1  0.4917060000000  0.5125990000000  0.4272650000000 1.0
C      1  0.4880510000000  0.4843230000000  0.5615370000000 1.0
C      1  0.4825740000000  0.5116980000000  0.5678090000000 1.0
C      1  0.4967150000000  0.4864600000000  0.4254320000000 1.0
C      1  0.5228910000000  0.5309790000000  0.5505790000000 1.0
C      1  0.5349870000000  0.4751850000000  0.4511810000000 1.0
C      1  0.5319560000000  0.5279510000000  0.4482260000000 1.0
C      1  0.5322680000000  0.4819400000000  0.5431140000000 1.0
C      1  0.4416170000000  0.4601370000000  0.5271630000000 1.0
C      1  0.4447420000000  0.5433330000000  0.4759890000000 1.0
C      1  0.4453230000000  0.4558730000000  0.4786680000000 1.0
C      1  0.4428880000000  0.5428960000000  0.5254890000000 1.0
C      1  0.5669180000000  0.5182400000000  0.4844590000000 1.0
C      1  0.5602110000000  0.4849380000000  0.5042860000000 1.0
C      1  0.5461390000000  0.5017660000000  0.4442360000000 1.0
C      1  0.5375230000000  0.5071680000000  0.5561350000000 1.0
C      1  0.5439900000000  0.5559130000000  0.5036810000000 1.0
C      1  0.5406570000000  0.4454400000000  0.5002270000000 1.0
C      1  0.4569320000000  0.4983420000000  0.5431730000000 1.0
C      1  0.4622340000000  0.5024190000000  0.4709040000000 1.0
C      1  0.4339750000000  0.4727100000000  0.5012840000000 1.0
C      1  0.4326560000000  0.5303190000000  0.5004070000000 1.0
C      1  0.4917470000000  0.4789980000000  0.4946420000000 1.0
C      1  0.4913460000000  0.5231440000000  0.4969930000000 1.0
C      1  0.4189980000000  0.5015190000000  0.5001150000000 1.0
C      1  0.4535370000000  0.5007460000000  0.4995790000000 1.0
C      1  0.5374570000000  0.5040040000000  0.5048910000000 1.0
C      1  0.5105910000000  0.5016010000000  0.4941140000000 1.0
END
