TITL C-8701-7969-258 -6.32031448673289e-06 125000 -360.300841493958 0 0 60 (C2) n - 1
REM
REM in /home/bkarasulu/CARBON/AIRSS/Generating-Clusters/EDIP-Nigel-Params/Higher-Symm/Box-15A/Only-C60/SD-CG/HFTN-CG
REM
REM
REM
REM
REM
REM ./C.cell (414f73aa93bd7a1190c7fd0f31ff2f98)
REM
REM compiler GCC version 9.2.1 20190827 (Red Hat 9.2.1-1)
REM options -cpp -mtune=generic -march=x86-64 -g -O0 -fpre-include=/usr/include/finclude/math-vector-fortran.h
REM seed 240860768 1495657812 -639963904 -1614527950 -1598720263 -1982398908 -1609304162 -1083811632 -324845311 -757734314 488180909 458470818 -1729843397 -273454775 525895414 1799886201 -286292545 -1178608297 11593475 -1426981439 -2074997933 634453524 1089903126 -3173742 -622580435 -808816731 1189389350 -921634564 -728769586 -736962770 447372923 425812750 -1053915293
REM
CELL 1.54180   50.00000   50.00000   50.00000   90.00000   90.00000   90.00000
LATT -1
SFAC C  
C      1  0.4440190000000  0.4637960000000  0.5061290000000 1.0
C      1  0.4440170000000  0.5362010000000  0.4938740000000 1.0
C      1  0.5297930000000  0.5334610000000  0.5605280000000 1.0
C      1  0.5297910000000  0.4665400000000  0.4394710000000 1.0
C      1  0.4604070000000  0.5489640000000  0.5361110000000 1.0
C      1  0.4604070000000  0.4510350000000  0.4638910000000 1.0
C      1  0.5336030000000  0.4445400000000  0.5394860000000 1.0
C      1  0.5335990000000  0.5554610000000  0.4605120000000 1.0
C      1  0.5407730000000  0.4490030000000  0.5101530000000 1.0
C      1  0.5407700000000  0.5509980000000  0.4898450000000 1.0
C      1  0.4765960000000  0.5256770000000  0.5399100000000 1.0
C      1  0.4765950000000  0.4743230000000  0.4600910000000 1.0
C      1  0.4403070000000  0.5109720000000  0.5093490000000 1.0
C      1  0.4403070000000  0.4890260000000  0.4906550000000 1.0
C      1  0.4824600000000  0.4377500000000  0.5329160000000 1.0
C      1  0.4824560000000  0.5622490000000  0.4670840000000 1.0
C      1  0.5127720000000  0.5138130000000  0.5702060000000 1.0
C      1  0.5127680000000  0.4861880000000  0.4297940000000 1.0
C      1  0.5076080000000  0.4963920000000  0.5249410000000 1.0
C      1  0.5076070000000  0.5036080000000  0.4750580000000 1.0
C      1  0.5463220000000  0.4799410000000  0.5529290000000 1.0
C      1  0.5463190000000  0.5200600000000  0.4470690000000 1.0
C      1  0.5160820000000  0.4888990000000  0.5534760000000 1.0
C      1  0.5160790000000  0.5111010000000  0.4465240000000 1.0
C      1  0.4623110000000  0.4190600000000  0.4982470000000 1.0
C      1  0.4623080000000  0.5809390000000  0.5017550000000 1.0
C      1  0.5256190000000  0.4462730000000  0.4849550000000 1.0
C      1  0.5256180000000  0.5537280000000  0.5150440000000 1.0
C      1  0.4518010000000  0.5225660000000  0.4577290000000 1.0
C      1  0.4518050000000  0.4774320000000  0.5422740000000 1.0
C      1  0.4682310000000  0.4906980000000  0.4147430000000 1.0
C      1  0.4682350000000  0.5093010000000  0.5852580000000 1.0
C      1  0.5007490000000  0.4748800000000  0.4806890000000 1.0
C      1  0.5007490000000  0.5251200000000  0.5193110000000 1.0
C      1  0.5606550000000  0.5092040000000  0.4711660000000 1.0
C      1  0.5606570000000  0.4907980000000  0.5288300000000 1.0
C      1  0.5548450000000  0.5185220000000  0.5204680000000 1.0
C      1  0.5548450000000  0.4814810000000  0.4795290000000 1.0
C      1  0.4500920000000  0.5583550000000  0.5123500000000 1.0
C      1  0.4500930000000  0.4416430000000  0.4876530000000 1.0
C      1  0.5397600000000  0.5385890000000  0.5351710000000 1.0
C      1  0.5397590000000  0.4614120000000  0.4648270000000 1.0
C      1  0.4633370000000  0.4996940000000  0.5265890000000 1.0
C      1  0.4633350000000  0.5003040000000  0.4734130000000 1.0
C      1  0.5003600000000  0.4673510000000  0.5652860000000 1.0
C      1  0.5003560000000  0.5326490000000  0.4347140000000 1.0
C      1  0.4906130000000  0.4797410000000  0.5086290000000 1.0
C      1  0.4906110000000  0.5202590000000  0.4913720000000 1.0
C      1  0.4847880000000  0.4777580000000  0.4311060000000 1.0
C      1  0.4847910000000  0.5222410000000  0.5688940000000 1.0
C      1  0.5594430000000  0.4714750000000  0.5065370000000 1.0
C      1  0.5594420000000  0.5285270000000  0.4934600000000 1.0
C      1  0.5051560000000  0.5546790000000  0.4511360000000 1.0
C      1  0.5051610000000  0.4453210000000  0.5488640000000 1.0
C      1  0.4574420000000  0.4499130000000  0.5397200000000 1.0
C      1  0.4574380000000  0.5500860000000  0.4602820000000 1.0
C      1  0.4811070000000  0.4145220000000  0.5172760000000 1.0
C      1  0.4811030000000  0.5854770000000  0.4827250000000 1.0
C      1  0.5529610000000  0.5473540000000  0.4409320000000 1.0
C      1  0.5529660000000  0.4526480000000  0.5590660000000 1.0
END
