TITL C-8703-8361-85 -2.55088260037021e-05 125000 -363.3049464993 0 0 60 (C1) n - 1
REM
REM in /home/bkarasulu/CARBON/AIRSS/Generating-Clusters/EDIP-Nigel-Params/Higher-Symm/Box-15A/Only-C60/SD-CG/HFTN-CG
REM
REM
REM
REM
REM
REM ./C.cell (414f73aa93bd7a1190c7fd0f31ff2f98)
REM
REM compiler GCC version 9.2.1 20190827 (Red Hat 9.2.1-1)
REM options -cpp -mtune=generic -march=x86-64 -g -O0 -fpre-include=/usr/include/finclude/math-vector-fortran.h
REM seed 1073931856 -487952921 23629380 1443021479 920937140 -525433813 2053309648 1278461475 1390965772 905738350 -1334801622 -1148962864 1903515617 -619972721 -1727827731 -398043780 729300280 -1582365815 -2099058301 1688431390 1712417374 1324544470 1040822792 -697554615 569998424 299461286 408527349 -1050900427 1807629654 -1441834585 685786833 -1576419886 1373144036
REM
CELL 1.54180   50.00000   50.00000   50.00000   90.00000   90.00000   90.00000
LATT -1
SFAC C  
C      1  0.4630090000000  0.4619300000000  0.5321760000000 1.0
C      1  0.4481290000000  0.5147400000000  0.4282040000000 1.0
C      1  0.5370660000000  0.4458190000000  0.4702050000000 1.0
C      1  0.5717700000000  0.4813000000000  0.4805980000000 1.0
C      1  0.5618540000000  0.5328470000000  0.5320000000000 1.0
C      1  0.4454200000000  0.5528780000000  0.4593720000000 1.0
C      1  0.5398830000000  0.5259250000000  0.5495600000000 1.0
C      1  0.5514140000000  0.4704290000000  0.4627330000000 1.0
C      1  0.4656320000000  0.4783440000000  0.5556010000000 1.0
C      1  0.4823650000000  0.4406480000000  0.5242510000000 1.0
C      1  0.4600850000000  0.5381140000000  0.4397450000000 1.0
C      1  0.5215560000000  0.5466990000000  0.5572020000000 1.0
C      1  0.4378810000000  0.5519650000000  0.5142250000000 1.0
C      1  0.4410910000000  0.4636330000000  0.4463550000000 1.0
C      1  0.5334090000000  0.5479990000000  0.4374860000000 1.0
C      1  0.5572800000000  0.5302100000000  0.4760290000000 1.0
C      1  0.5620620000000  0.4461330000000  0.5315180000000 1.0
C      1  0.4521780000000  0.4534460000000  0.4708500000000 1.0
C      1  0.5667670000000  0.4586190000000  0.5557560000000 1.0
C      1  0.5495440000000  0.5286410000000  0.4485060000000 1.0
C      1  0.4478380000000  0.5424100000000  0.5392960000000 1.0
C      1  0.4677300000000  0.5567540000000  0.5541240000000 1.0
C      1  0.4792930000000  0.4439640000000  0.4717410000000 1.0
C      1  0.5347420000000  0.4425260000000  0.5232330000000 1.0
C      1  0.5592610000000  0.4830320000000  0.5636260000000 1.0
C      1  0.4757530000000  0.5453890000000  0.5785380000000 1.0
C      1  0.5551370000000  0.5542660000000  0.4897400000000 1.0
C      1  0.4178130000000  0.4793460000000  0.4481650000000 1.0
C      1  0.4361520000000  0.5208420000000  0.5520330000000 1.0
C      1  0.5526070000000  0.5049740000000  0.4348190000000 1.0
C      1  0.5089060000000  0.5542030000000  0.4293020000000 1.0
C      1  0.5154110000000  0.4430930000000  0.5440630000000 1.0
C      1  0.4930790000000  0.4405900000000  0.4478620000000 1.0
C      1  0.4519490000000  0.5709080000000  0.4994680000000 1.0
C      1  0.4365550000000  0.4538940000000  0.4935110000000 1.0
C      1  0.5830290000000  0.4421130000000  0.5137990000000 1.0
C      1  0.5390040000000  0.5016610000000  0.5652340000000 1.0
C      1  0.4945390000000  0.4253510000000  0.5458190000000 1.0
C      1  0.5841330000000  0.4626180000000  0.4967760000000 1.0
C      1  0.4248800000000  0.5042920000000  0.4396600000000 1.0
C      1  0.4457730000000  0.4970750000000  0.5597570000000 1.0
C      1  0.5516720000000  0.4782230000000  0.4358360000000 1.0
C      1  0.5197830000000  0.4379770000000  0.4497390000000 1.0
C      1  0.5024370000000  0.5407120000000  0.5765350000000 1.0
C      1  0.4828600000000  0.5490770000000  0.4288800000000 1.0
C      1  0.4389150000000  0.4615820000000  0.5188930000000 1.0
C      1  0.4577780000000  0.5738820000000  0.4731220000000 1.0
C      1  0.5584880000000  0.5559570000000  0.5165720000000 1.0
C      1  0.4582680000000  0.4715740000000  0.4256950000000 1.0
C      1  0.4943360000000  0.4404420000000  0.4963890000000 1.0
C      1  0.4249010000000  0.5402620000000  0.4734110000000 1.0
C      1  0.4900750000000  0.4819940000000  0.5680010000000 1.0
C      1  0.4638660000000  0.4958700000000  0.4146820000000 1.0
C      1  0.5141420000000  0.4924860000000  0.5734490000000 1.0
C      1  0.5233650000000  0.4429740000000  0.4963790000000 1.0
C      1  0.5149570000000  0.5679970000000  0.5401790000000 1.0
C      1  0.4879170000000  0.5709230000000  0.5409850000000 1.0
C      1  0.5757500000000  0.5130910000000  0.5177220000000 1.0
C      1  0.5692630000000  0.5084100000000  0.4908090000000 1.0
C      1  0.4192470000000  0.5369470000000  0.4997810000000 1.0
END
