TITL C-8701-7969-140 3.80535146259995e-06 125000 -370.171372115495 0 0 60 (C1) n - 1
REM
REM in /home/bkarasulu/CARBON/AIRSS/Generating-Clusters/EDIP-Nigel-Params/Higher-Symm/Box-15A/Only-C60/SD-CG/HFTN-CG
REM
REM
REM
REM
REM
REM ./C.cell (414f73aa93bd7a1190c7fd0f31ff2f98)
REM
REM compiler GCC version 9.2.1 20190827 (Red Hat 9.2.1-1)
REM options -cpp -mtune=generic -march=x86-64 -g -O0 -fpre-include=/usr/include/finclude/math-vector-fortran.h
REM seed -1804208128 -297904644 226175301 -92191414 -1662984086 -1189269215 1911232989 -2061441207 1838097634 -1792732690 -241017354 -1679036274 26237141 1254923221 983703533 165573700 -1602487134 707696071 450923294 -2138222801 2037123964 -1213804350 -1488780475 146687676 51788274 1327442705 -1443537725 -93117655 248369830 -2066352193 103532224 1062455306 -812499016
REM
CELL 1.54180   50.00000   50.00000   50.00000   90.00000   90.00000   90.00000
LATT -1
SFAC C  
C      1  0.4621260000000  0.5231470000000  0.4808400000000 1.0
C      1  0.4900800000000  0.4987160000000  0.5877430000000 1.0
C      1  0.4507890000000  0.4981490000000  0.5563180000000 1.0
C      1  0.5233660000000  0.4426110000000  0.4821360000000 1.0
C      1  0.5140550000000  0.5674680000000  0.4522190000000 1.0
C      1  0.4666530000000  0.4922490000000  0.4780020000000 1.0
C      1  0.5239380000000  0.5397850000000  0.4478080000000 1.0
C      1  0.5353440000000  0.4538880000000  0.5288410000000 1.0
C      1  0.5141290000000  0.5301600000000  0.4209570000000 1.0
C      1  0.4883140000000  0.5405930000000  0.4161500000000 1.0
C      1  0.5282850000000  0.4614460000000  0.4363920000000 1.0
C      1  0.5586390000000  0.5215050000000  0.4732510000000 1.0
C      1  0.5023510000000  0.4458720000000  0.5639520000000 1.0
C      1  0.4789730000000  0.4609590000000  0.5586520000000 1.0
C      1  0.5421470000000  0.4859390000000  0.4419860000000 1.0
C      1  0.5191040000000  0.5005970000000  0.4836580000000 1.0
C      1  0.5401050000000  0.5594330000000  0.4992940000000 1.0
C      1  0.5521430000000  0.4655440000000  0.5490750000000 1.0
C      1  0.5695240000000  0.4871140000000  0.5384770000000 1.0
C      1  0.4769600000000  0.4423590000000  0.4702900000000 1.0
C      1  0.4755800000000  0.4660910000000  0.5292760000000 1.0
C      1  0.5334390000000  0.4964080000000  0.5628970000000 1.0
C      1  0.4636180000000  0.4541780000000  0.4498850000000 1.0
C      1  0.5498670000000  0.5088150000000  0.5424310000000 1.0
C      1  0.4737690000000  0.5551390000000  0.4339180000000 1.0
C      1  0.4978700000000  0.4844720000000  0.4381080000000 1.0
C      1  0.5155010000000  0.5008400000000  0.4209840000000 1.0
C      1  0.4956860000000  0.5461000000000  0.5064040000000 1.0
C      1  0.5511750000000  0.5338020000000  0.4993720000000 1.0
C      1  0.5055410000000  0.5201740000000  0.5222440000000 1.0
C      1  0.5528430000000  0.5379800000000  0.4512710000000 1.0
C      1  0.5086850000000  0.5226680000000  0.4674300000000 1.0
C      1  0.4705120000000  0.5534320000000  0.5206410000000 1.0
C      1  0.5357010000000  0.5143440000000  0.5163280000000 1.0
C      1  0.5609550000000  0.4735090000000  0.4895420000000 1.0
C      1  0.4319860000000  0.4828820000000  0.5389790000000 1.0
C      1  0.4461640000000  0.5272500000000  0.5537190000000 1.0
C      1  0.4301360000000  0.5283640000000  0.5273450000000 1.0
C      1  0.5096210000000  0.5106340000000  0.5714270000000 1.0
C      1  0.4425650000000  0.4787690000000  0.4925170000000 1.0
C      1  0.4893840000000  0.4422740000000  0.5174350000000 1.0
C      1  0.5465500000000  0.4935550000000  0.4711560000000 1.0
C      1  0.4720770000000  0.5438310000000  0.5495640000000 1.0
C      1  0.5429260000000  0.4531580000000  0.5005160000000 1.0
C      1  0.4470470000000  0.4665400000000  0.5196660000000 1.0
C      1  0.5300280000000  0.4418410000000  0.4553210000000 1.0
C      1  0.4500580000000  0.5372350000000  0.5061780000000 1.0
C      1  0.5115540000000  0.4395640000000  0.5374930000000 1.0
C      1  0.4711260000000  0.4812020000000  0.4498530000000 1.0
C      1  0.4939630000000  0.4833540000000  0.4912070000000 1.0
C      1  0.4993000000000  0.5285050000000  0.5503650000000 1.0
C      1  0.4962040000000  0.4514360000000  0.4896770000000 1.0
C      1  0.4700860000000  0.4841940000000  0.5739860000000 1.0
C      1  0.4187410000000  0.4940640000000  0.4934560000000 1.0
C      1  0.5154620000000  0.5670760000000  0.5067530000000 1.0
C      1  0.4872840000000  0.5389510000000  0.4778600000000 1.0
C      1  0.5755170000000  0.4839320000000  0.5110580000000 1.0
C      1  0.4865770000000  0.5619220000000  0.4580030000000 1.0
C      1  0.4173880000000  0.5017730000000  0.5209760000000 1.0
C      1  0.4904900000000  0.4922060000000  0.5187160000000 1.0
END
