TITL C-8706-7473-15 -0.000219104147355636 125000 -360.701156626806 0 0 60 (C1) n - 1
REM
REM in /home/bkarasulu/CARBON/AIRSS/Generating-Clusters/EDIP-Nigel-Params/Higher-Symm/Box-15A/Only-C60/SD-CG/HFTN-CG
REM
REM
REM
REM
REM
REM ./C.cell (414f73aa93bd7a1190c7fd0f31ff2f98)
REM
REM compiler GCC version 9.2.1 20190827 (Red Hat 9.2.1-1)
REM options -cpp -mtune=generic -march=x86-64 -g -O0 -fpre-include=/usr/include/finclude/math-vector-fortran.h
REM seed 151691756 1935657306 -450045168 -203114956 996845946 -781337198 -700943294 -1673375687 685040397 1741555218 -912827122 1685094121 1614283989 15297750 1370678150 39190885 -1683513605 63493079 -1682513047 -1333483889 -240514220 1522891644 -1732133609 2061686195 105272046 -2030967464 1440749470 390312263 -1290752488 157626238 -281512637 -210580687 -1862064902
REM
CELL 1.54180   50.00000   50.00000   50.00000   90.00000   90.00000   90.00000
LATT -1
SFAC C  
C      1  0.5113070000000  0.4801250000000  0.4396790000000 1.0
C      1  0.5131220000000  0.5193350000000  0.4391530000000 1.0
C      1  0.4772550000000  0.4995870000000  0.4404260000000 1.0
C      1  0.4529080000000  0.5111930000000  0.5582330000000 1.0
C      1  0.5081670000000  0.4598900000000  0.5501460000000 1.0
C      1  0.5271350000000  0.5370040000000  0.5505300000000 1.0
C      1  0.5154740000000  0.5789780000000  0.5162980000000 1.0
C      1  0.4354630000000  0.4704860000000  0.5251270000000 1.0
C      1  0.5546070000000  0.4552830000000  0.5241570000000 1.0
C      1  0.4578230000000  0.4391240000000  0.5263820000000 1.0
C      1  0.5601540000000  0.4923760000000  0.5331070000000 1.0
C      1  0.4710060000000  0.5635080000000  0.5330870000000 1.0
C      1  0.4918610000000  0.5792870000000  0.5285520000000 1.0
C      1  0.4344720000000  0.4457040000000  0.5128730000000 1.0
C      1  0.5766010000000  0.4720490000000  0.5241040000000 1.0
C      1  0.4272430000000  0.5686610000000  0.4907360000000 1.0
C      1  0.4823450000000  0.3960220000000  0.4873180000000 1.0
C      1  0.5958990000000  0.5215940000000  0.4888280000000 1.0
C      1  0.5320310000000  0.4449790000000  0.4800340000000 1.0
C      1  0.5348430000000  0.5565480000000  0.4778820000000 1.0
C      1  0.4403980000000  0.4988380000000  0.4836980000000 1.0
C      1  0.4544770000000  0.5437990000000  0.5231660000000 1.0
C      1  0.4840000000000  0.4367610000000  0.5150940000000 1.0
C      1  0.5563740000000  0.5164660000000  0.5183360000000 1.0
C      1  0.4584640000000  0.5149000000000  0.5301820000000 1.0
C      1  0.5043550000000  0.4578840000000  0.5217250000000 1.0
C      1  0.5315910000000  0.5330700000000  0.5223290000000 1.0
C      1  0.4449870000000  0.4768730000000  0.4669390000000 1.0
C      1  0.5480680000000  0.4592840000000  0.4620540000000 1.0
C      1  0.5113700000000  0.5608340000000  0.4632220000000 1.0
C      1  0.5418770000000  0.5214390000000  0.4436310000000 1.0
C      1  0.4614680000000  0.5233850000000  0.4462560000000 1.0
C      1  0.4993240000000  0.4532780000000  0.4438110000000 1.0
C      1  0.4283440000000  0.5462450000000  0.4744190000000 1.0
C      1  0.4974470000000  0.4109880000000  0.4695880000000 1.0
C      1  0.5794770000000  0.5361560000000  0.4719180000000 1.0
C      1  0.4470590000000  0.5245720000000  0.4714470000000 1.0
C      1  0.5059300000000  0.4385900000000  0.4681320000000 1.0
C      1  0.5511390000000  0.5346240000000  0.4676860000000 1.0
C      1  0.4911300000000  0.5275210000000  0.5803160000000 1.0
C      1  0.4814680000000  0.4824460000000  0.5819120000000 1.0
C      1  0.5248040000000  0.4966190000000  0.5747900000000 1.0
C      1  0.5310560000000  0.4543840000000  0.5078600000000 1.0
C      1  0.5332640000000  0.5595930000000  0.5073270000000 1.0
C      1  0.4416410000000  0.4958650000000  0.5131230000000 1.0
C      1  0.4724980000000  0.4516980000000  0.4361770000000 1.0
C      1  0.5563920000000  0.4989570000000  0.4358960000000 1.0
C      1  0.4730040000000  0.5472060000000  0.4375250000000 1.0
C      1  0.4935730000000  0.4832100000000  0.5112510000000 1.0
C      1  0.5081360000000  0.5189330000000  0.5110270000000 1.0
C      1  0.4872710000000  0.5066240000000  0.5262160000000 1.0
C      1  0.5403670000000  0.4770920000000  0.4422560000000 1.0
C      1  0.5001460000000  0.5449400000000  0.4434420000000 1.0
C      1  0.4611700000000  0.4758590000000  0.4443720000000 1.0
C      1  0.4930000000000  0.4107030000000  0.5080050000000 1.0
C      1  0.5800010000000  0.5299300000000  0.5098500000000 1.0
C      1  0.4294460000000  0.5517530000000  0.5124420000000 1.0
C      1  0.4707590000000  0.5082160000000  0.5794230000000 1.0
C      1  0.5070580000000  0.4750310000000  0.5733480000000 1.0
C      1  0.5179520000000  0.5237020000000  0.5731600000000 1.0
END
