TITL C-8705-8172-119 4.64813171203361e-07 125000 -361.973008553875 0 0 60 (C2) n - 1
REM
REM in /home/bkarasulu/CARBON/AIRSS/Generating-Clusters/EDIP-Nigel-Params/Higher-Symm/Box-15A/Only-C60/SD-CG/HFTN-CG
REM
REM
REM
REM
REM
REM ./C.cell (414f73aa93bd7a1190c7fd0f31ff2f98)
REM
REM compiler GCC version 9.2.1 20190827 (Red Hat 9.2.1-1)
REM options -cpp -mtune=generic -march=x86-64 -g -O0 -fpre-include=/usr/include/finclude/math-vector-fortran.h
REM seed 1129086334 -1581249751 1467669964 -2075175300 -357291648 -420301341 -593075888 192686294 -1091458207 2009027253 695842289 -103074127 -71440142 -274263341 -1433775466 -953459333 -237515865 -1223690936 -1705915190 609616566 1573030058 -1258702982 -994140864 -230239450 403055367 -1558139458 1184572568 -1163847541 531001378 75528944 -1470103392 812450667 -1130819704
REM
CELL 1.54180   50.00000   50.00000   50.00000   90.00000   90.00000   90.00000
LATT -1
SFAC C  
C      1  0.5385770000000  0.4885030000000  0.4936570000000 1.0
C      1  0.4614220000000  0.5114980000000  0.4936610000000 1.0
C      1  0.4724870000000  0.5433160000000  0.4444770000000 1.0
C      1  0.5275080000000  0.4566910000000  0.4444690000000 1.0
C      1  0.4600700000000  0.4495040000000  0.5506560000000 1.0
C      1  0.5399350000000  0.5504890000000  0.5506600000000 1.0
C      1  0.4380220000000  0.5062670000000  0.5302420000000 1.0
C      1  0.5619800000000  0.4937290000000  0.5302360000000 1.0
C      1  0.4441960000000  0.5194830000000  0.4677100000000 1.0
C      1  0.5558010000000  0.4805210000000  0.4677030000000 1.0
C      1  0.5318840000000  0.4488520000000  0.5486030000000 1.0
C      1  0.4681200000000  0.5511410000000  0.5486120000000 1.0
C      1  0.5191580000000  0.4453510000000  0.5005360000000 1.0
C      1  0.4808420000000  0.5546490000000  0.5005450000000 1.0
C      1  0.4969760000000  0.5611260000000  0.5464750000000 1.0
C      1  0.5030280000000  0.4388680000000  0.5464660000000 1.0
C      1  0.4579410000000  0.4741110000000  0.5615980000000 1.0
C      1  0.5420640000000  0.5258800000000  0.5615990000000 1.0
C      1  0.5548090000000  0.5605330000000  0.5066560000000 1.0
C      1  0.4451920000000  0.4394660000000  0.5066520000000 1.0
C      1  0.4381300000000  0.5311240000000  0.5158340000000 1.0
C      1  0.5618710000000  0.4688740000000  0.5158250000000 1.0
C      1  0.5061810000000  0.5187200000000  0.4729290000000 1.0
C      1  0.4938170000000  0.4812840000000  0.4729270000000 1.0
C      1  0.5116170000000  0.4743440000000  0.4967490000000 1.0
C      1  0.4883830000000  0.5256560000000  0.4967540000000 1.0
C      1  0.5033380000000  0.4756230000000  0.4452360000000 1.0
C      1  0.4966570000000  0.5243850000000  0.4452400000000 1.0
C      1  0.4577990000000  0.5519140000000  0.5206890000000 1.0
C      1  0.5422030000000  0.4480830000000  0.5206780000000 1.0
C      1  0.5564100000000  0.4514610000000  0.4699030000000 1.0
C      1  0.4435880000000  0.5485430000000  0.4699140000000 1.0
C      1  0.4635310000000  0.4346290000000  0.5270940000000 1.0
C      1  0.5364710000000  0.5653670000000  0.5271000000000 1.0
C      1  0.5274580000000  0.4781420000000  0.5615730000000 1.0
C      1  0.4725470000000  0.5218490000000  0.5615780000000 1.0
C      1  0.5375470000000  0.5064470000000  0.4283140000000 1.0
C      1  0.4624460000000  0.4935630000000  0.4283160000000 1.0
C      1  0.4778050000000  0.4700560000000  0.4303240000000 1.0
C      1  0.5221890000000  0.5299540000000  0.4303260000000 1.0
C      1  0.5079490000000  0.5701190000000  0.5209600000000 1.0
C      1  0.4920530000000  0.4298780000000  0.5209510000000 1.0
C      1  0.5278760000000  0.5393510000000  0.4731180000000 1.0
C      1  0.4721210000000  0.4606530000000  0.4731150000000 1.0
C      1  0.4949070000000  0.4850590000000  0.5210060000000 1.0
C      1  0.5050950000000  0.5149380000000  0.5210070000000 1.0
C      1  0.5307260000000  0.4386180000000  0.4729830000000 1.0
C      1  0.4692720000000  0.5613860000000  0.4729940000000 1.0
C      1  0.5467820000000  0.4819630000000  0.4391320000000 1.0
C      1  0.4532130000000  0.5180460000000  0.4391380000000 1.0
C      1  0.5009650000000  0.5296870000000  0.5491620000000 1.0
C      1  0.4990400000000  0.4703060000000  0.5491580000000 1.0
C      1  0.5355080000000  0.5481990000000  0.4474840000000 1.0
C      1  0.4644880000000  0.4518090000000  0.4474800000000 1.0
C      1  0.4637770000000  0.4855280000000  0.5109430000000 1.0
C      1  0.5362230000000  0.5144700000000  0.5109420000000 1.0
C      1  0.4561910000000  0.5001410000000  0.5515450000000 1.0
C      1  0.5438140000000  0.4998520000000  0.5515410000000 1.0
C      1  0.5462940000000  0.5370100000000  0.4944140000000 1.0
C      1  0.4537060000000  0.4629900000000  0.4944130000000 1.0
END
