TITL C-8703-8361-331 1.11077786722689e-05 125000 -365.717947174556 0 0 60 (C1) n - 1
REM
REM in /home/bkarasulu/CARBON/AIRSS/Generating-Clusters/EDIP-Nigel-Params/Higher-Symm/Box-15A/Only-C60/SD-CG/HFTN-CG
REM
REM
REM
REM
REM
REM ./C.cell (414f73aa93bd7a1190c7fd0f31ff2f98)
REM
REM compiler GCC version 9.2.1 20190827 (Red Hat 9.2.1-1)
REM options -cpp -mtune=generic -march=x86-64 -g -O0 -fpre-include=/usr/include/finclude/math-vector-fortran.h
REM seed -2077177414 -441905092 1307656094 -1086022761 -1695227432 1248587086 1108399126 1138353350 546774704 68419087 -163827361 1211209713 -1581131169 -1779875932 304568128 -2015872327 -1376901302 1508611416 -1987426255 -770833939 57893839 -2053957262 38151842 -1670500154 -147789086 -868000010 -1579494979 -577427335 86414357 555092327 428522943 2095525618 1800071937
REM
CELL 1.54180   50.00000   50.00000   50.00000   90.00000   90.00000   90.00000
LATT -1
SFAC C  
C      1  0.4479030000000  0.4833220000000  0.4705200000000 1.0
C      1  0.4374660000000  0.5107690000000  0.5333710000000 1.0
C      1  0.4476740000000  0.4844200000000  0.5308920000000 1.0
C      1  0.4378570000000  0.5096810000000  0.4667650000000 1.0
C      1  0.4323030000000  0.4607540000000  0.4789220000000 1.0
C      1  0.4354350000000  0.5352550000000  0.5195550000000 1.0
C      1  0.4342680000000  0.4630230000000  0.5177910000000 1.0
C      1  0.4359950000000  0.5343010000000  0.4804870000000 1.0
C      1  0.4719390000000  0.4275960000000  0.4675010000000 1.0
C      1  0.4733080000000  0.5724720000000  0.5315040000000 1.0
C      1  0.4732070000000  0.4280630000000  0.5293930000000 1.0
C      1  0.4743370000000  0.5712900000000  0.4695420000000 1.0
C      1  0.4837170000000  0.4402360000000  0.5527800000000 1.0
C      1  0.4852630000000  0.5594320000000  0.4461660000000 1.0
C      1  0.4803020000000  0.4434660000000  0.4450860000000 1.0
C      1  0.4825560000000  0.5592180000000  0.5550790000000 1.0
C      1  0.4483410000000  0.4365090000000  0.4849480000000 1.0
C      1  0.4539810000000  0.5574780000000  0.5140740000000 1.0
C      1  0.4532510000000  0.4417850000000  0.5129980000000 1.0
C      1  0.4549610000000  0.5561370000000  0.4854670000000 1.0
C      1  0.5523520000000  0.5260020000000  0.4362320000000 1.0
C      1  0.5502700000000  0.4746520000000  0.5643260000000 1.0
C      1  0.5514900000000  0.5284850000000  0.5632460000000 1.0
C      1  0.5504330000000  0.4725070000000  0.4371200000000 1.0
C      1  0.4959040000000  0.4207950000000  0.4842370000000 1.0
C      1  0.4968790000000  0.5809220000000  0.5151980000000 1.0
C      1  0.4914620000000  0.4137100000000  0.5127170000000 1.0
C      1  0.4918620000000  0.5867070000000  0.4864170000000 1.0
C      1  0.5305910000000  0.4537970000000  0.4453790000000 1.0
C      1  0.5322080000000  0.5477590000000  0.5548910000000 1.0
C      1  0.5314380000000  0.4546400000000  0.5568420000000 1.0
C      1  0.5331960000000  0.5457590000000  0.4435670000000 1.0
C      1  0.5110690000000  0.4471480000000  0.4864120000000 1.0
C      1  0.5124440000000  0.5544630000000  0.5137560000000 1.0
C      1  0.5104480000000  0.4474240000000  0.5165830000000 1.0
C      1  0.5120460000000  0.5536650000000  0.4836840000000 1.0
C      1  0.5540370000000  0.5314310000000  0.5147300000000 1.0
C      1  0.5527970000000  0.4696100000000  0.4858840000000 1.0
C      1  0.5534440000000  0.5306710000000  0.4846060000000 1.0
C      1  0.5523770000000  0.4697640000000  0.5159870000000 1.0
C      1  0.5590800000000  0.5140360000000  0.4609130000000 1.0
C      1  0.5575020000000  0.4863800000000  0.5397090000000 1.0
C      1  0.5581710000000  0.5153670000000  0.5391140000000 1.0
C      1  0.5577260000000  0.4850970000000  0.4613750000000 1.0
C      1  0.4990110000000  0.4740960000000  0.5285360000000 1.0
C      1  0.5005750000000  0.5270480000000  0.4726010000000 1.0
C      1  0.4984150000000  0.4720650000000  0.4740040000000 1.0
C      1  0.4998300000000  0.5293330000000  0.5261990000000 1.0
C      1  0.5014130000000  0.4623660000000  0.5565780000000 1.0
C      1  0.5034000000000  0.5374940000000  0.4440260000000 1.0
C      1  0.5009830000000  0.4631330000000  0.4457570000000 1.0
C      1  0.5025600000000  0.5389000000000  0.5544170000000 1.0
C      1  0.4734890000000  0.4855580000000  0.4848370000000 1.0
C      1  0.4737610000000  0.5182420000000  0.5157170000000 1.0
C      1  0.4736020000000  0.4868520000000  0.5172830000000 1.0
C      1  0.4743910000000  0.5167160000000  0.4837040000000 1.0
C      1  0.5381620000000  0.4470370000000  0.4741190000000 1.0
C      1  0.5396580000000  0.5544940000000  0.5261210000000 1.0
C      1  0.5379110000000  0.4471480000000  0.5281340000000 1.0
C      1  0.5395520000000  0.5535200000000  0.4722010000000 1.0
END
