TITL C-8704-7456-220 4.81040604284107e-09 125000 -364.508577090372 0 0 60 (C1) n - 1
REM
REM in /home/bkarasulu/CARBON/AIRSS/Generating-Clusters/EDIP-Nigel-Params/Higher-Symm/Box-15A/Only-C60/SD-CG/HFTN-CG
REM
REM
REM
REM
REM
REM ./C.cell (414f73aa93bd7a1190c7fd0f31ff2f98)
REM
REM compiler GCC version 9.2.1 20190827 (Red Hat 9.2.1-1)
REM options -cpp -mtune=generic -march=x86-64 -g -O0 -fpre-include=/usr/include/finclude/math-vector-fortran.h
REM seed -207312567 910138708 -982585680 -1129380453 -440359904 -390037373 1724671362 -124343887 -1477714271 -960006906 1127141655 1408585291 805611103 -875848071 -2124614801 -1210513337 1676641201 -1167563163 -1469972043 -1044357769 -1064796712 -870346736 1354183300 150615696 1939928786 -475111332 -1179600837 -1456822297 1361135887 162219597 -1552211183 1991553721 -1818754556
REM
CELL 1.54180   50.00000   50.00000   50.00000   90.00000   90.00000   90.00000
LATT -1
SFAC C  
C      1  0.5492480000000  0.5102320000000  0.4701590000000 1.0
C      1  0.4495800000000  0.4877800000000  0.5294280000000 1.0
C      1  0.4599340000000  0.5383550000000  0.5312340000000 1.0
C      1  0.5384150000000  0.4600480000000  0.4702810000000 1.0
C      1  0.5470900000000  0.4715400000000  0.4964710000000 1.0
C      1  0.4521820000000  0.5280370000000  0.5041700000000 1.0
C      1  0.4863220000000  0.5194810000000  0.4697420000000 1.0
C      1  0.5131310000000  0.4810070000000  0.5303370000000 1.0
C      1  0.4185690000000  0.4760060000000  0.4975290000000 1.0
C      1  0.5821310000000  0.5218100000000  0.5003070000000 1.0
C      1  0.5013950000000  0.5282000000000  0.5276420000000 1.0
C      1  0.4977640000000  0.4722220000000  0.4738070000000 1.0
C      1  0.4265480000000  0.5393290000000  0.4582550000000 1.0
C      1  0.5736210000000  0.4629580000000  0.5429960000000 1.0
C      1  0.5299990000000  0.4580040000000  0.5187910000000 1.0
C      1  0.4702700000000  0.5424100000000  0.4822230000000 1.0
C      1  0.4256910000000  0.4507330000000  0.5074120000000 1.0
C      1  0.5765240000000  0.5469680000000  0.4892750000000 1.0
C      1  0.4389920000000  0.4909030000000  0.4786810000000 1.0
C      1  0.5608700000000  0.5095680000000  0.5201980000000 1.0
C      1  0.4743630000000  0.4624130000000  0.4568110000000 1.0
C      1  0.5260300000000  0.5394860000000  0.5393540000000 1.0
C      1  0.4599650000000  0.4980970000000  0.5009870000000 1.0
C      1  0.5394550000000  0.5015540000000  0.4988450000000 1.0
C      1  0.5166440000000  0.5532200000000  0.4501730000000 1.0
C      1  0.4832270000000  0.4472870000000  0.5512320000000 1.0
C      1  0.4213330000000  0.5239800000000  0.5041530000000 1.0
C      1  0.5778040000000  0.4745560000000  0.4960380000000 1.0
C      1  0.4890510000000  0.4969580000000  0.4896570000000 1.0
C      1  0.5099040000000  0.5036230000000  0.5104390000000 1.0
C      1  0.5797590000000  0.4841720000000  0.5242180000000 1.0
C      1  0.4201150000000  0.5167140000000  0.4752480000000 1.0
C      1  0.4885500000000  0.4745860000000  0.5452260000000 1.0
C      1  0.5111320000000  0.5258180000000  0.4551840000000 1.0
C      1  0.5249440000000  0.4842840000000  0.4547440000000 1.0
C      1  0.4707800000000  0.5145530000000  0.5476200000000 1.0
C      1  0.4438000000000  0.4566910000000  0.5282750000000 1.0
C      1  0.5562270000000  0.5413850000000  0.4703780000000 1.0
C      1  0.5193290000000  0.5562470000000  0.4986210000000 1.0
C      1  0.4828610000000  0.4430310000000  0.5028940000000 1.0
C      1  0.5470150000000  0.4505620000000  0.5431630000000 1.0
C      1  0.4534420000000  0.5511070000000  0.4582140000000 1.0
C      1  0.4688220000000  0.4441760000000  0.4780950000000 1.0
C      1  0.5349220000000  0.5597380000000  0.5220390000000 1.0
C      1  0.4724060000000  0.5083820000000  0.4439000000000 1.0
C      1  0.5269890000000  0.4935100000000  0.5554360000000 1.0
C      1  0.5440170000000  0.5170130000000  0.5454220000000 1.0
C      1  0.4555800000000  0.4846510000000  0.4527770000000 1.0
C      1  0.4193670000000  0.4976940000000  0.5195090000000 1.0
C      1  0.5797170000000  0.4997440000000  0.4791120000000 1.0
C      1  0.5330150000000  0.5595720000000  0.4727210000000 1.0
C      1  0.4680220000000  0.4397200000000  0.5282140000000 1.0
C      1  0.4795980000000  0.5591670000000  0.5262570000000 1.0
C      1  0.5226920000000  0.4371010000000  0.4753800000000 1.0
C      1  0.5119460000000  0.4403930000000  0.5012710000000 1.0
C      1  0.4898870000000  0.5596270000000  0.4992570000000 1.0
C      1  0.4567930000000  0.5320890000000  0.4354960000000 1.0
C      1  0.5428940000000  0.4704440000000  0.5650070000000 1.0
C      1  0.4895950000000  0.4969120000000  0.5645790000000 1.0
C      1  0.5097310000000  0.5041520000000  0.4351150000000 1.0
END
