TITL C-8704-7456-79 -2.73071098589961e-06 125000 -375.438553816189 0 0 60 (C1) n - 1
REM
REM in /home/bkarasulu/CARBON/AIRSS/Generating-Clusters/EDIP-Nigel-Params/Higher-Symm/Box-15A/Only-C60/SD-CG/HFTN-CG
REM
REM
REM
REM
REM
REM ./C.cell (414f73aa93bd7a1190c7fd0f31ff2f98)
REM
REM compiler GCC version 9.2.1 20190827 (Red Hat 9.2.1-1)
REM options -cpp -mtune=generic -march=x86-64 -g -O0 -fpre-include=/usr/include/finclude/math-vector-fortran.h
REM seed -10147642 -986821608 -289227236 -1992945060 1096878960 -1710207879 1783742661 746466949 -635730541 -519738830 224309402 -1857619359 1867466445 791393250 -1285187111 1014781938 -663358912 1392566021 1035349306 1135969081 728898817 -454850120 -1693056831 -580474735 504097115 6427719 550115034 2075420935 700625544 2015811447 -1963297869 -1591148180 -145807485
REM
CELL 1.54180   50.00000   50.00000   50.00000   90.00000   90.00000   90.00000
LATT -1
SFAC C  
C      1  0.4675490000000  0.5534800000000  0.5052400000000 1.0
C      1  0.5028440000000  0.5546430000000  0.5416280000000 1.0
C      1  0.5331540000000  0.5513010000000  0.5368220000000 1.0
C      1  0.5415190000000  0.5561570000000  0.5082940000000 1.0
C      1  0.5146170000000  0.5549950000000  0.4668140000000 1.0
C      1  0.4859530000000  0.5513660000000  0.4574840000000 1.0
C      1  0.4644140000000  0.5587980000000  0.4771160000000 1.0
C      1  0.5455040000000  0.5089300000000  0.5539810000000 1.0
C      1  0.5717030000000  0.5129050000000  0.4967170000000 1.0
C      1  0.5397900000000  0.5138980000000  0.4452910000000 1.0
C      1  0.4764080000000  0.5095830000000  0.4282880000000 1.0
C      1  0.4338920000000  0.5081300000000  0.4698420000000 1.0
C      1  0.4385520000000  0.5115640000000  0.5358640000000 1.0
C      1  0.4864160000000  0.5112220000000  0.5737810000000 1.0
C      1  0.4655970000000  0.4295830000000  0.5120900000000 1.0
C      1  0.4865700000000  0.4300230000000  0.5338990000000 1.0
C      1  0.5141850000000  0.4374010000000  0.5251160000000 1.0
C      1  0.5344390000000  0.4315400000000  0.5038320000000 1.0
C      1  0.5276980000000  0.4302180000000  0.4740140000000 1.0
C      1  0.4982780000000  0.4310490000000  0.4655730000000 1.0
C      1  0.4753710000000  0.4359190000000  0.4843840000000 1.0
C      1  0.5471400000000  0.5300480000000  0.4944030000000 1.0
C      1  0.5272260000000  0.5273520000000  0.4711310000000 1.0
C      1  0.4809050000000  0.5223580000000  0.4543330000000 1.0
C      1  0.4612160000000  0.5207700000000  0.4774290000000 1.0
C      1  0.4656510000000  0.5232850000000  0.5264040000000 1.0
C      1  0.4906480000000  0.5250710000000  0.5465600000000 1.0
C      1  0.5262550000000  0.5203450000000  0.5319570000000 1.0
C      1  0.5793460000000  0.5028190000000  0.5218060000000 1.0
C      1  0.5653650000000  0.5038550000000  0.4509770000000 1.0
C      1  0.5008300000000  0.5022420000000  0.4166880000000 1.0
C      1  0.4340120000000  0.4959480000000  0.4444570000000 1.0
C      1  0.4212020000000  0.5033070000000  0.5155310000000 1.0
C      1  0.4606780000000  0.5003340000000  0.5756390000000 1.0
C      1  0.5327590000000  0.4995840000000  0.5770010000000 1.0
C      1  0.4251140000000  0.4899970000000  0.4912930000000 1.0
C      1  0.4449350000000  0.4900700000000  0.5548710000000 1.0
C      1  0.5066390000000  0.4897170000000  0.5770090000000 1.0
C      1  0.5633350000000  0.4899540000000  0.5409020000000 1.0
C      1  0.5715940000000  0.4921700000000  0.4756320000000 1.0
C      1  0.5236650000000  0.4932380000000  0.4307630000000 1.0
C      1  0.4581560000000  0.4866520000000  0.4333120000000 1.0
C      1  0.5205740000000  0.4679940000000  0.4458280000000 1.0
C      1  0.4711660000000  0.4670130000000  0.4508000000000 1.0
C      1  0.4428190000000  0.4667090000000  0.4934270000000 1.0
C      1  0.4565210000000  0.4663800000000  0.5414280000000 1.0
C      1  0.5030740000000  0.4682450000000  0.5572340000000 1.0
C      1  0.5469070000000  0.4684620000000  0.5302640000000 1.0
C      1  0.5554270000000  0.4682600000000  0.4817060000000 1.0
C      1  0.4958890000000  0.4523220000000  0.4443040000000 1.0
C      1  0.4561210000000  0.4531440000000  0.4713530000000 1.0
C      1  0.4454710000000  0.4514750000000  0.5184860000000 1.0
C      1  0.4787030000000  0.4518470000000  0.5537340000000 1.0
C      1  0.5257050000000  0.4550180000000  0.5447870000000 1.0
C      1  0.5553360000000  0.4531300000000  0.5068580000000 1.0
C      1  0.5415400000000  0.4535380000000  0.4606120000000 1.0
C      1  0.4971780000000  0.5514040000000  0.5104950000000 1.0
C      1  0.5166850000000  0.5679140000000  0.4938230000000 1.0
C      1  0.5051640000000  0.5213470000000  0.5027530000000 1.0
C      1  0.4765530000000  0.5101140000000  0.5015810000000 1.0
END
