TITL C-8705-8172-102 2.19733915756036e-06 125000 -358.761963950669 0 0 60 (C1) n - 1
REM
REM in /home/bkarasulu/CARBON/AIRSS/Generating-Clusters/EDIP-Nigel-Params/Higher-Symm/Box-15A/Only-C60/SD-CG/HFTN-CG
REM
REM
REM
REM
REM
REM ./C.cell (414f73aa93bd7a1190c7fd0f31ff2f98)
REM
REM compiler GCC version 9.2.1 20190827 (Red Hat 9.2.1-1)
REM options -cpp -mtune=generic -march=x86-64 -g -O0 -fpre-include=/usr/include/finclude/math-vector-fortran.h
REM seed -1469965446 -271238011 -941224949 -1364347691 1001731394 875052182 1796818426 -63874195 1244197747 1426067557 -99888441 265248380 -99095095 -17086998 1919534271 1468943366 1988847052 -2106949403 473267451 608680403 1873443691 1649680732 391768453 -1673688772 -547016213 -744745433 929045678 -229699808 1416505441 -882132794 1613961812 -1012291313 17039321
REM
CELL 1.54180   50.00000   50.00000   50.00000   90.00000   90.00000   90.00000
LATT -1
SFAC C  
C      1  0.5249510000000  0.4978830000000  0.5774090000000 1.0
C      1  0.5259440000000  0.5671040000000  0.4624080000000 1.0
C      1  0.5253580000000  0.4328430000000  0.4602690000000 1.0
C      1  0.4655270000000  0.4420830000000  0.4676700000000 1.0
C      1  0.4712070000000  0.5034900000000  0.5660610000000 1.0
C      1  0.4660990000000  0.5572130000000  0.4662400000000 1.0
C      1  0.4786730000000  0.5470300000000  0.4402390000000 1.0
C      1  0.4780560000000  0.4245620000000  0.4893020000000 1.0
C      1  0.4774210000000  0.5321720000000  0.5697520000000 1.0
C      1  0.4453130000000  0.4772280000000  0.5294960000000 1.0
C      1  0.4435240000000  0.5361010000000  0.5060590000000 1.0
C      1  0.4437400000000  0.4871000000000  0.4653670000000 1.0
C      1  0.5031900000000  0.4269410000000  0.5311590000000 1.0
C      1  0.5029670000000  0.5642660000000  0.5464390000000 1.0
C      1  0.5030350000000  0.5091270000000  0.4212300000000 1.0
C      1  0.5323010000000  0.5255240000000  0.5194910000000 1.0
C      1  0.5330300000000  0.5029510000000  0.4692060000000 1.0
C      1  0.5335600000000  0.4713000000000  0.5117930000000 1.0
C      1  0.4823890000000  0.4936760000000  0.4627920000000 1.0
C      1  0.4833360000000  0.4707550000000  0.5230630000000 1.0
C      1  0.4821640000000  0.5351750000000  0.5131210000000 1.0
C      1  0.5513810000000  0.4463340000000  0.5002340000000 1.0
C      1  0.5498560000000  0.5281370000000  0.5469980000000 1.0
C      1  0.5513140000000  0.5253840000000  0.4539510000000 1.0
C      1  0.5562780000000  0.4447920000000  0.5293040000000 1.0
C      1  0.5538380000000  0.5545530000000  0.5343200000000 1.0
C      1  0.5559070000000  0.5012880000000  0.4375550000000 1.0
C      1  0.5428760000000  0.5647160000000  0.4849200000000 1.0
C      1  0.5424390000000  0.4534650000000  0.4512330000000 1.0
C      1  0.5440470000000  0.4814070000000  0.5639440000000 1.0
C      1  0.4609420000000  0.5207660000000  0.4348480000000 1.0
C      1  0.4606840000000  0.4335260000000  0.5148010000000 1.0
C      1  0.4596740000000  0.5479380000000  0.5498320000000 1.0
C      1  0.4792230000000  0.4968760000000  0.4317650000000 1.0
C      1  0.4796180000000  0.4425440000000  0.5365460000000 1.0
C      1  0.4790450000000  0.5612860000000  0.5302380000000 1.0
C      1  0.5060130000000  0.4333130000000  0.5022620000000 1.0
C      1  0.5043580000000  0.5361420000000  0.5564400000000 1.0
C      1  0.5061050000000  0.5306690000000  0.4414760000000 1.0
C      1  0.4444110000000  0.4576660000000  0.5075630000000 1.0
C      1  0.4442950000000  0.5274790000000  0.5339410000000 1.0
C      1  0.4443630000000  0.5155320000000  0.4591440000000 1.0
C      1  0.4541830000000  0.5339060000000  0.4795230000000 1.0
C      1  0.4542710000000  0.4656260000000  0.4811370000000 1.0
C      1  0.4568780000000  0.5016270000000  0.5396750000000 1.0
C      1  0.5324600000000  0.5456200000000  0.4427740000000 1.0
C      1  0.5322050000000  0.4265510000000  0.4886190000000 1.0
C      1  0.5298930000000  0.5265710000000  0.5692900000000 1.0
C      1  0.5016020000000  0.4716630000000  0.4716010000000 1.0
C      1  0.5022580000000  0.4891630000000  0.5376930000000 1.0
C      1  0.5015650000000  0.5377210000000  0.4899450000000 1.0
C      1  0.4962700000000  0.5614200000000  0.4724770000000 1.0
C      1  0.4956260000000  0.4446510000000  0.4602110000000 1.0
C      1  0.4974850000000  0.4873390000000  0.5668920000000 1.0
C      1  0.5048930000000  0.5159450000000  0.4682760000000 1.0
C      1  0.5053610000000  0.4638530000000  0.5012420000000 1.0
C      1  0.5039210000000  0.5195880000000  0.5306630000000 1.0
C      1  0.5386120000000  0.4642900000000  0.5421510000000 1.0
C      1  0.5365710000000  0.5553480000000  0.5105960000000 1.0
C      1  0.5374940000000  0.4807790000000  0.4473530000000 1.0
END
