TITL C-8700-8172-98 2.64380249217767e-05 125000 -357.121963383662 0 0 60 (D2d) n - 1
REM
REM in /home/bkarasulu/CARBON/AIRSS/Generating-Clusters/EDIP-Nigel-Params/Higher-Symm/Box-15A/Only-C60/SD-CG/HFTN-CG
REM
REM
REM
REM
REM
REM ./C.cell (414f73aa93bd7a1190c7fd0f31ff2f98)
REM
REM compiler GCC version 9.2.1 20190827 (Red Hat 9.2.1-1)
REM options -cpp -mtune=generic -march=x86-64 -g -O0 -fpre-include=/usr/include/finclude/math-vector-fortran.h
REM seed 2014291315 -820351619 1634604443 -2040660644 -1400247399 1243318070 1684971025 584634063 -1676673172 1133144774 531803626 1557969069 -1020682077 1416418690 668323584 -1534581962 918939261 710384137 527312201 479039902 312923153 500944151 -408877404 -1054996367 -2135649704 1652306528 -1720086105 303596994 581327019 -1553212540 600236090 1261242173 -893568795
REM
CELL 1.54180   50.00000   50.00000   50.00000   90.00000   90.00000   90.00000
LATT -1
SFAC C  
C      1  0.5356270000000  0.4371830000000  0.4897970000000 1.0
C      1  0.5357530000000  0.4778080000000  0.4396850000000 1.0
C      1  0.5362970000000  0.5411410000000  0.4519440000000 1.0
C      1  0.5364350000000  0.5623520000000  0.5102010000000 1.0
C      1  0.5360390000000  0.5217290000000  0.5603140000000 1.0
C      1  0.5357650000000  0.4583940000000  0.5480540000000 1.0
C      1  0.4944780000000  0.4532950000000  0.4577980000000 1.0
C      1  0.4948350000000  0.5086970000000  0.4376250000000 1.0
C      1  0.4950660000000  0.5609080000000  0.4778350000000 1.0
C      1  0.4950840000000  0.5467730000000  0.5422020000000 1.0
C      1  0.4947260000000  0.4913710000000  0.5623750000000 1.0
C      1  0.4942810000000  0.4391610000000  0.5221650000000 1.0
C      1  0.4309130000000  0.4902660000000  0.4720450000000 1.0
C      1  0.4316330000000  0.5197000000000  0.4771470000000 1.0
C      1  0.4316990000000  0.5298860000000  0.5051240000000 1.0
C      1  0.4310460000000  0.5106250000000  0.5279590000000 1.0
C      1  0.4313850000000  0.4811850000000  0.5228570000000 1.0
C      1  0.4313190000000  0.4709980000000  0.4948790000000 1.0
C      1  0.5205240000000  0.4723900000000  0.5100040000000 1.0
C      1  0.5199440000000  0.4767100000000  0.4801450000000 1.0
C      1  0.5201250000000  0.5048430000000  0.4699010000000 1.0
C      1  0.5208780000000  0.5273420000000  0.4899950000000 1.0
C      1  0.5202440000000  0.5230310000000  0.5198540000000 1.0
C      1  0.5200630000000  0.4948980000000  0.5300980000000 1.0
C      1  0.4640330000000  0.5104350000000  0.4374150000000 1.0
C      1  0.4644930000000  0.5605450000000  0.4780400000000 1.0
C      1  0.4642800000000  0.5482860000000  0.5413750000000 1.0
C      1  0.4639050000000  0.4900310000000  0.5625870000000 1.0
C      1  0.4637150000000  0.4399180000000  0.5219620000000 1.0
C      1  0.4636580000000  0.4521790000000  0.4586270000000 1.0
C      1  0.5692010000000  0.5275110000000  0.4898190000000 1.0
C      1  0.5686390000000  0.5224130000000  0.5192560000000 1.0
C      1  0.5684590000000  0.4944360000000  0.5294430000000 1.0
C      1  0.5688400000000  0.4715980000000  0.5101780000000 1.0
C      1  0.5683430000000  0.4767030000000  0.4807400000000 1.0
C      1  0.5685230000000  0.5046800000000  0.4705530000000 1.0
C      1  0.5458540000000  0.4528530000000  0.5170570000000 1.0
C      1  0.5452870000000  0.4612240000000  0.4679430000000 1.0
C      1  0.5455920000000  0.5085680000000  0.4507040000000 1.0
C      1  0.5464580000000  0.5465510000000  0.4829400000000 1.0
C      1  0.5457860000000  0.5381880000000  0.5320550000000 1.0
C      1  0.5454800000000  0.4908440000000  0.5492930000000 1.0
C      1  0.4793650000000  0.5101380000000  0.5274770000000 1.0
C      1  0.4797790000000  0.4802750000000  0.5231610000000 1.0
C      1  0.4797120000000  0.4700320000000  0.4950280000000 1.0
C      1  0.4792340000000  0.4901290000000  0.4725240000000 1.0
C      1  0.4800340000000  0.5199840000000  0.4768400000000 1.0
C      1  0.4801010000000  0.5302280000000  0.5049730000000 1.0
C      1  0.5049480000000  0.4577650000000  0.5467400000000 1.0
C      1  0.5048160000000  0.4375930000000  0.4913370000000 1.0
C      1  0.5051820000000  0.4778010000000  0.4391250000000 1.0
C      1  0.5054910000000  0.5421670000000  0.4532600000000 1.0
C      1  0.5056220000000  0.5623400000000  0.5086630000000 1.0
C      1  0.5054710000000  0.5221300000000  0.5608750000000 1.0
C      1  0.4546700000000  0.5323490000000  0.4615190000000 1.0
C      1  0.4547820000000  0.5495870000000  0.5088640000000 1.0
C      1  0.4539550000000  0.5173560000000  0.5468510000000 1.0
C      1  0.4542580000000  0.4682390000000  0.5384840000000 1.0
C      1  0.4541450000000  0.4510010000000  0.4911390000000 1.0
C      1  0.4537320000000  0.4832400000000  0.4531510000000 1.0
END
