TITL C-8705-8172-248 -3.75199334525345e-05 125000 -355.347873994303 0 0 60 (C1) n - 1
REM
REM in /home/bkarasulu/CARBON/AIRSS/Generating-Clusters/EDIP-Nigel-Params/Higher-Symm/Box-15A/Only-C60/SD-CG/HFTN-CG
REM
REM
REM
REM
REM
REM ./C.cell (414f73aa93bd7a1190c7fd0f31ff2f98)
REM
REM compiler GCC version 9.2.1 20190827 (Red Hat 9.2.1-1)
REM options -cpp -mtune=generic -march=x86-64 -g -O0 -fpre-include=/usr/include/finclude/math-vector-fortran.h
REM seed -1008219635 -248717124 575932636 1005792847 1581415860 1187316806 -1401707076 300677459 2089492862 -1737200995 -1457140155 1520110934 1549395170 2058192890 1896274485 1000362976 -1325653264 -2030216970 1964890687 -1598697362 -2081042224 1597471195 2024313614 -842022134 -154061681 770479349 -1197108903 -1246531928 -1148109993 757874975 -1784820174 680597522 1820487087
REM
CELL 1.54180   50.00000   50.00000   50.00000   90.00000   90.00000   90.00000
LATT -1
SFAC C  
C      1  0.4563390000000  0.5677300000000  0.4838220000000 1.0
C      1  0.4681730000000  0.5531430000000  0.4631190000000 1.0
C      1  0.4910970000000  0.5618470000000  0.4500130000000 1.0
C      1  0.5152880000000  0.5477750000000  0.4511790000000 1.0
C      1  0.5353320000000  0.5567820000000  0.4686370000000 1.0
C      1  0.5352050000000  0.5474190000000  0.4952170000000 1.0
C      1  0.5077520000000  0.5439570000000  0.5059440000000 1.0
C      1  0.5068200000000  0.5450880000000  0.5351160000000 1.0
C      1  0.4814260000000  0.5529260000000  0.5440130000000 1.0
C      1  0.4588520000000  0.5589350000000  0.5306620000000 1.0
C      1  0.4449650000000  0.5565310000000  0.5067260000000 1.0
C      1  0.5472040000000  0.4808540000000  0.4557680000000 1.0
C      1  0.5537010000000  0.4588440000000  0.4735640000000 1.0
C      1  0.5574590000000  0.4881050000000  0.5354060000000 1.0
C      1  0.5546580000000  0.4791300000000  0.5623300000000 1.0
C      1  0.5322380000000  0.4874070000000  0.5779630000000 1.0
C      1  0.4632310000000  0.5048730000000  0.5721540000000 1.0
C      1  0.4563070000000  0.4949280000000  0.5462200000000 1.0
C      1  0.4445510000000  0.4847340000000  0.4890420000000 1.0
C      1  0.4519580000000  0.4650960000000  0.4675760000000 1.0
C      1  0.4758390000000  0.4798850000000  0.4410860000000 1.0
C      1  0.4969450000000  0.4618580000000  0.4299890000000 1.0
C      1  0.5188290000000  0.4018480000000  0.5222270000000 1.0
C      1  0.4929910000000  0.3941840000000  0.5161690000000 1.0
C      1  0.4691440000000  0.4054460000000  0.5119900000000 1.0
C      1  0.4571370000000  0.4257630000000  0.4995210000000 1.0
C      1  0.4605370000000  0.4374130000000  0.4747450000000 1.0
C      1  0.4811560000000  0.4276200000000  0.4593850000000 1.0
C      1  0.5014280000000  0.4367120000000  0.4431250000000 1.0
C      1  0.5276930000000  0.4281510000000  0.4465630000000 1.0
C      1  0.5485010000000  0.4318110000000  0.4646690000000 1.0
C      1  0.5513840000000  0.4115530000000  0.4832290000000 1.0
C      1  0.5383490000000  0.3989980000000  0.5029050000000 1.0
C      1  0.5746850000000  0.4756320000000  0.5179500000000 1.0
C      1  0.5695880000000  0.4590520000000  0.5708370000000 1.0
C      1  0.5289890000000  0.4775560000000  0.6022800000000 1.0
C      1  0.4442570000000  0.5087810000000  0.5901250000000 1.0
C      1  0.4303580000000  0.4922590000000  0.5371090000000 1.0
C      1  0.4403130000000  0.4767410000000  0.5163870000000 1.0
C      1  0.4343810000000  0.4664670000000  0.4441460000000 1.0
C      1  0.4507860000000  0.4787090000000  0.4259700000000 1.0
C      1  0.5177410000000  0.4719600000000  0.4142510000000 1.0
C      1  0.5395230000000  0.4740460000000  0.4299390000000 1.0
C      1  0.5709360000000  0.4632360000000  0.4946650000000 1.0
C      1  0.5348540000000  0.5050300000000  0.4656840000000 1.0
C      1  0.5448480000000  0.5201990000000  0.4986200000000 1.0
C      1  0.5426260000000  0.5107750000000  0.5264470000000 1.0
C      1  0.5207860000000  0.5205140000000  0.5433670000000 1.0
C      1  0.5155450000000  0.5089470000000  0.5691600000000 1.0
C      1  0.4895740000000  0.5107990000000  0.5786820000000 1.0
C      1  0.4347380000000  0.5313130000000  0.5008170000000 1.0
C      1  0.4450910000000  0.5130660000000  0.4823360000000 1.0
C      1  0.4641220000000  0.5244320000000  0.4628430000000 1.0
C      1  0.4844210000000  0.5079010000000  0.4488690000000 1.0
C      1  0.5133080000000  0.5183700000000  0.4495910000000 1.0
C      1  0.4987330000000  0.5170820000000  0.5010850000000 1.0
C      1  0.5088930000000  0.4492520000000  0.5361840000000 1.0
C      1  0.4981710000000  0.4688030000000  0.5219430000000 1.0
C      1  0.4963350000000  0.4908040000000  0.5071650000000 1.0
C      1  0.5199540000000  0.4251110000000  0.5369220000000 1.0
END
