TITL C-8700-8172-141 8.7736696608494e-06 125000 -365.135087204647 0 0 60 (C1) n - 1
REM
REM in /home/bkarasulu/CARBON/AIRSS/Generating-Clusters/EDIP-Nigel-Params/Higher-Symm/Box-15A/Only-C60/SD-CG/HFTN-CG
REM
REM
REM
REM
REM
REM ./C.cell (414f73aa93bd7a1190c7fd0f31ff2f98)
REM
REM compiler GCC version 9.2.1 20190827 (Red Hat 9.2.1-1)
REM options -cpp -mtune=generic -march=x86-64 -g -O0 -fpre-include=/usr/include/finclude/math-vector-fortran.h
REM seed 506173126 1718302028 -1159184956 212696305 -1397139117 1232126678 -2002178417 -1625941920 -695350039 -196315541 -1175294012 2112156089 969422979 233141353 -1984813565 703567217 1091239121 -901893963 1595283041 -922495308 10183253 1406361 1064000413 -946178219 -2023955564 -1347414850 1920581884 135454621 -1695786086 -1097359103 874785191 121456390 647301989
REM
CELL 1.54180   50.00000   50.00000   50.00000   90.00000   90.00000   90.00000
LATT -1
SFAC C  
C      1  0.4301290000000  0.5274620000000  0.4870230000000 1.0
C      1  0.5464830000000  0.5307450000000  0.4460500000000 1.0
C      1  0.5241220000000  0.5272340000000  0.5663670000000 1.0
C      1  0.4300670000000  0.4725450000000  0.4863520000000 1.0
C      1  0.5474890000000  0.4740460000000  0.4485680000000 1.0
C      1  0.5226170000000  0.4724790000000  0.5674300000000 1.0
C      1  0.5230890000000  0.4393980000000  0.4834210000000 1.0
C      1  0.5019420000000  0.4399410000000  0.5285550000000 1.0
C      1  0.4737840000000  0.4398530000000  0.4880680000000 1.0
C      1  0.5244470000000  0.5655660000000  0.4798130000000 1.0
C      1  0.5044360000000  0.5594620000000  0.5271700000000 1.0
C      1  0.4747420000000  0.5590190000000  0.4885760000000 1.0
C      1  0.4763410000000  0.4741420000000  0.5160800000000 1.0
C      1  0.4974920000000  0.4739390000000  0.4724130000000 1.0
C      1  0.5248380000000  0.4742640000000  0.5131460000000 1.0
C      1  0.4763390000000  0.5244670000000  0.5160230000000 1.0
C      1  0.4974540000000  0.5250620000000  0.4721380000000 1.0
C      1  0.5251790000000  0.5236320000000  0.5122210000000 1.0
C      1  0.4723870000000  0.4838350000000  0.4869260000000 1.0
C      1  0.5240030000000  0.4834720000000  0.4840620000000 1.0
C      1  0.5015100000000  0.4839890000000  0.5308390000000 1.0
C      1  0.4721370000000  0.5151830000000  0.4866510000000 1.0
C      1  0.5224620000000  0.5132350000000  0.4846640000000 1.0
C      1  0.5018280000000  0.5154110000000  0.5305860000000 1.0
C      1  0.4532500000000  0.4444890000000  0.5314540000000 1.0
C      1  0.4960130000000  0.4449110000000  0.4440940000000 1.0
C      1  0.5497110000000  0.4442200000000  0.5244380000000 1.0
C      1  0.4555280000000  0.5547000000000  0.5321380000000 1.0
C      1  0.4947010000000  0.5542050000000  0.4439700000000 1.0
C      1  0.5520860000000  0.5525450000000  0.5200350000000 1.0
C      1  0.4303790000000  0.5149820000000  0.5142510000000 1.0
C      1  0.5235080000000  0.5158250000000  0.4334520000000 1.0
C      1  0.5475200000000  0.5143400000000  0.5527590000000 1.0
C      1  0.4303210000000  0.4847220000000  0.5137980000000 1.0
C      1  0.5239220000000  0.4855580000000  0.4343320000000 1.0
C      1  0.5467500000000  0.4841220000000  0.5537270000000 1.0
C      1  0.5705310000000  0.4899070000000  0.4468850000000 1.0
C      1  0.5142120000000  0.4866080000000  0.5901710000000 1.0
C      1  0.4147670000000  0.4866840000000  0.4676010000000 1.0
C      1  0.5708210000000  0.5169100000000  0.4457700000000 1.0
C      1  0.5152120000000  0.5135930000000  0.5891650000000 1.0
C      1  0.4147590000000  0.5136930000000  0.4680410000000 1.0
C      1  0.5280780000000  0.5653980000000  0.5098290000000 1.0
C      1  0.4774700000000  0.5666580000000  0.5169010000000 1.0
C      1  0.4965670000000  0.5667330000000  0.4699740000000 1.0
C      1  0.5259360000000  0.4325400000000  0.5124810000000 1.0
C      1  0.4754300000000  0.4324440000000  0.5169380000000 1.0
C      1  0.4970860000000  0.4323230000000  0.4704530000000 1.0
C      1  0.5426150000000  0.5546150000000  0.4609710000000 1.0
C      1  0.5071220000000  0.5467360000000  0.5532800000000 1.0
C      1  0.4502360000000  0.5465940000000  0.4787090000000 1.0
C      1  0.5443820000000  0.4537540000000  0.4691130000000 1.0
C      1  0.5049860000000  0.4531690000000  0.5545880000000 1.0
C      1  0.4499430000000  0.4532670000000  0.4775840000000 1.0
C      1  0.4508540000000  0.5259980000000  0.5328650000000 1.0
C      1  0.4967080000000  0.5257060000000  0.4411390000000 1.0
C      1  0.5532590000000  0.5239890000000  0.5251050000000 1.0
C      1  0.4503870000000  0.4731540000000  0.5323540000000 1.0
C      1  0.4973930000000  0.4737570000000  0.4415960000000 1.0
C      1  0.5522400000000  0.4727710000000  0.5268970000000 1.0
END
