TITL C-8704-7456-171 9.36093243733137e-05 125000 -363.247250466118 0 0 60 (C1) n - 1
REM
REM in /home/bkarasulu/CARBON/AIRSS/Generating-Clusters/EDIP-Nigel-Params/Higher-Symm/Box-15A/Only-C60/SD-CG/HFTN-CG
REM
REM
REM
REM
REM
REM ./C.cell (414f73aa93bd7a1190c7fd0f31ff2f98)
REM
REM compiler GCC version 9.2.1 20190827 (Red Hat 9.2.1-1)
REM options -cpp -mtune=generic -march=x86-64 -g -O0 -fpre-include=/usr/include/finclude/math-vector-fortran.h
REM seed -1987922307 -1673528623 -532890932 1547327747 -980459944 -516263524 1150772675 1203473659 -112815041 317267169 -2143282109 -1576148846 1340595013 2129905994 339782649 -714188909 545394429 2016074118 1540414481 1155112223 -36802667 890227997 -1405485137 208146828 -588137253 1389352194 -74426808 -384075675 697826046 144431371 -1707925315 -2078643929 -892270481
REM
CELL 1.54180   50.00000   50.00000   50.00000   90.00000   90.00000   90.00000
LATT -1
SFAC C  
C      1  0.5310380000000  0.5629560000000  0.4755590000000 1.0
C      1  0.4357540000000  0.4943780000000  0.4772900000000 1.0
C      1  0.5403360000000  0.4435030000000  0.4784540000000 1.0
C      1  0.5390710000000  0.5116800000000  0.5652980000000 1.0
C      1  0.4691600000000  0.5260000000000  0.5651010000000 1.0
C      1  0.4895140000000  0.4580100000000  0.5668250000000 1.0
C      1  0.5538940000000  0.4618210000000  0.5223260000000 1.0
C      1  0.5060030000000  0.5647620000000  0.5183820000000 1.0
C      1  0.4398770000000  0.4690040000000  0.5201850000000 1.0
C      1  0.4825180000000  0.4394710000000  0.5270060000000 1.0
C      1  0.5661940000000  0.5201350000000  0.5249080000000 1.0
C      1  0.4547700000000  0.5427150000000  0.5221270000000 1.0
C      1  0.4617090000000  0.5050320000000  0.4916170000000 1.0
C      1  0.5186430000000  0.4543060000000  0.4962920000000 1.0
C      1  0.5373100000000  0.5395960000000  0.4931460000000 1.0
C      1  0.5311880000000  0.4786450000000  0.4444870000000 1.0
C      1  0.4902110000000  0.5371550000000  0.4452460000000 1.0
C      1  0.4698560000000  0.4866580000000  0.4458160000000 1.0
C      1  0.5076470000000  0.5734890000000  0.4897650000000 1.0
C      1  0.4309500000000  0.4660020000000  0.4828010000000 1.0
C      1  0.5619280000000  0.4605660000000  0.4925130000000 1.0
C      1  0.5324520000000  0.5489770000000  0.4507100000000 1.0
C      1  0.4451760000000  0.5019910000000  0.4506900000000 1.0
C      1  0.5271220000000  0.4512830000000  0.4526920000000 1.0
C      1  0.5151940000000  0.5033140000000  0.4773370000000 1.0
C      1  0.4876720000000  0.5181600000000  0.4707130000000 1.0
C      1  0.5011410000000  0.4768090000000  0.4847110000000 1.0
C      1  0.4795260000000  0.4832890000000  0.5028860000000 1.0
C      1  0.5267600000000  0.4868450000000  0.5133160000000 1.0
C      1  0.5111600000000  0.5251300000000  0.5006330000000 1.0
C      1  0.4559720000000  0.4494030000000  0.4795460000000 1.0
C      1  0.5645480000000  0.4892390000000  0.4814050000000 1.0
C      1  0.4726460000000  0.5631130000000  0.4795300000000 1.0
C      1  0.5164560000000  0.4662230000000  0.5587710000000 1.0
C      1  0.5194800000000  0.5308130000000  0.5563490000000 1.0
C      1  0.4628250000000  0.4988200000000  0.5569860000000 1.0
C      1  0.5260060000000  0.5498940000000  0.5345550000000 1.0
C      1  0.4427100000000  0.4951610000000  0.5350320000000 1.0
C      1  0.5306890000000  0.4505410000000  0.5382230000000 1.0
C      1  0.4658080000000  0.5520220000000  0.4529820000000 1.0
C      1  0.4732780000000  0.4587210000000  0.4560680000000 1.0
C      1  0.5518360000000  0.4965560000000  0.4548480000000 1.0
C      1  0.5136950000000  0.4869720000000  0.4244810000000 1.0
C      1  0.4866020000000  0.5246240000000  0.4201110000000 1.0
C      1  0.4879520000000  0.4973110000000  0.4255730000000 1.0
C      1  0.4468360000000  0.5304780000000  0.4506430000000 1.0
C      1  0.4989640000000  0.4465980000000  0.4535040000000 1.0
C      1  0.5437620000000  0.5238080000000  0.4526610000000 1.0
C      1  0.5515120000000  0.5457910000000  0.5191980000000 1.0
C      1  0.4454170000000  0.5166090000000  0.5142850000000 1.0
C      1  0.5109950000000  0.4374160000000  0.5196990000000 1.0
C      1  0.5298540000000  0.4864690000000  0.5724390000000 1.0
C      1  0.4956620000000  0.5317920000000  0.5705390000000 1.0
C      1  0.4711930000000  0.4778890000000  0.5733630000000 1.0
C      1  0.4569320000000  0.5455500000000  0.5497060000000 1.0
C      1  0.4780560000000  0.4357790000000  0.5543970000000 1.0
C      1  0.5629500000000  0.5126000000000  0.5514470000000 1.0
C      1  0.5501520000000  0.5046660000000  0.5028060000000 1.0
C      1  0.4777560000000  0.5448380000000  0.5029070000000 1.0
C      1  0.4656800000000  0.4586260000000  0.5091130000000 1.0
END
