TITL C-8706-7473-36 -8.8489098202988e-06 125000 -360.659017176811 0 0 60 (C1) n - 1
REM
REM in /home/bkarasulu/CARBON/AIRSS/Generating-Clusters/EDIP-Nigel-Params/Higher-Symm/Box-15A/Only-C60/SD-CG/HFTN-CG
REM
REM
REM
REM
REM
REM ./C.cell (414f73aa93bd7a1190c7fd0f31ff2f98)
REM
REM compiler GCC version 9.2.1 20190827 (Red Hat 9.2.1-1)
REM options -cpp -mtune=generic -march=x86-64 -g -O0 -fpre-include=/usr/include/finclude/math-vector-fortran.h
REM seed 1816825372 -1686549754 1248503188 -1758493360 -1092420192 -1241635770 -1277728044 -942351491 1233479156 776541192 746188943 872838462 29441565 479402177 441203245 1919448674 -524695933 -1771144862 -756533133 1234082992 2135408799 -1276041657 2029689087 -1824494810 1940381373 514940434 -516422933 241523169 1989598408 1046443135 -1259908956 1262950036 -2090779772
REM
CELL 1.54180   50.00000   50.00000   50.00000   90.00000   90.00000   90.00000
LATT -1
SFAC C  
C      1  0.4769850000000  0.4711400000000  0.4896450000000 1.0
C      1  0.5122090000000  0.4686480000000  0.5192200000000 1.0
C      1  0.5065040000000  0.4696920000000  0.4903180000000 1.0
C      1  0.4402100000000  0.4409690000000  0.5063690000000 1.0
C      1  0.5415740000000  0.4393470000000  0.5485200000000 1.0
C      1  0.5223140000000  0.4397050000000  0.4519160000000 1.0
C      1  0.4693950000000  0.4959780000000  0.5738630000000 1.0
C      1  0.5780470000000  0.5040990000000  0.4893280000000 1.0
C      1  0.4500070000000  0.5042450000000  0.4362720000000 1.0
C      1  0.4244720000000  0.5144610000000  0.5061040000000 1.0
C      1  0.5422520000000  0.5133660000000  0.5624070000000 1.0
C      1  0.5289370000000  0.5108200000000  0.4322660000000 1.0
C      1  0.4339520000000  0.4729570000000  0.4671070000000 1.0
C      1  0.5061180000000  0.4681650000000  0.5702710000000 1.0
C      1  0.5524180000000  0.4726750000000  0.4666880000000 1.0
C      1  0.5316260000000  0.5414600000000  0.5058620000000 1.0
C      1  0.4893970000000  0.5419220000000  0.4671280000000 1.0
C      1  0.4770940000000  0.5396660000000  0.5274160000000 1.0
C      1  0.4877960000000  0.4981150000000  0.4422470000000 1.0
C      1  0.4564880000000  0.4948010000000  0.5375210000000 1.0
C      1  0.5563190000000  0.4996270000000  0.5209610000000 1.0
C      1  0.5138830000000  0.4446710000000  0.4775360000000 1.0
C      1  0.4665310000000  0.4493120000000  0.5055380000000 1.0
C      1  0.5290730000000  0.4457810000000  0.5247430000000 1.0
C      1  0.5205790000000  0.4996640000000  0.4803630000000 1.0
C      1  0.4712380000000  0.5011990000000  0.4912940000000 1.0
C      1  0.5079690000000  0.4991800000000  0.5283170000000 1.0
C      1  0.5133300000000  0.5102770000000  0.5574260000000 1.0
C      1  0.5440310000000  0.5171890000000  0.4555010000000 1.0
C      1  0.4432320000000  0.5135090000000  0.4832700000000 1.0
C      1  0.4319810000000  0.4895140000000  0.5191040000000 1.0
C      1  0.5519130000000  0.4892640000000  0.5501900000000 1.0
C      1  0.5207200000000  0.4834000000000  0.4300770000000 1.0
C      1  0.5382280000000  0.5543690000000  0.4818210000000 1.0
C      1  0.4697890000000  0.5594050000000  0.4767960000000 1.0
C      1  0.4971430000000  0.5558690000000  0.5384620000000 1.0
C      1  0.4299970000000  0.5367250000000  0.5219130000000 1.0
C      1  0.5521720000000  0.5343120000000  0.5470610000000 1.0
C      1  0.5107530000000  0.5312550000000  0.4267540000000 1.0
C      1  0.5063300000000  0.5519210000000  0.4456990000000 1.0
C      1  0.4523030000000  0.5535910000000  0.5209180000000 1.0
C      1  0.5407690000000  0.5537890000000  0.5304700000000 1.0
C      1  0.4787830000000  0.5093690000000  0.5211000000000 1.0
C      1  0.5293630000000  0.5111940000000  0.5082640000000 1.0
C      1  0.4919800000000  0.5114080000000  0.4704920000000 1.0
C      1  0.5337920000000  0.4657550000000  0.5575680000000 1.0
C      1  0.5358150000000  0.4633970000000  0.4446330000000 1.0
C      1  0.4335480000000  0.4678110000000  0.4975450000000 1.0
C      1  0.5650270000000  0.4581540000000  0.4873670000000 1.0
C      1  0.4517330000000  0.4588180000000  0.4502040000000 1.0
C      1  0.4842020000000  0.4534180000000  0.5602370000000 1.0
C      1  0.5749810000000  0.4791750000000  0.5042310000000 1.0
C      1  0.4635810000000  0.4789060000000  0.4341800000000 1.0
C      1  0.4627780000000  0.4717190000000  0.5592600000000 1.0
C      1  0.4323960000000  0.5010140000000  0.4590310000000 1.0
C      1  0.4982100000000  0.4951970000000  0.5778780000000 1.0
C      1  0.5624340000000  0.4989070000000  0.4659830000000 1.0
C      1  0.4550420000000  0.5684890000000  0.4973600000000 1.0
C      1  0.5205020000000  0.5688640000000  0.5426610000000 1.0
C      1  0.5297580000000  0.5623520000000  0.4573220000000 1.0
END
