TITL C-8705-8172-272 -7.40591136061963e-07 125000 -374.435765589262 0 0 60 (C4v) n - 1
REM
REM in /home/bkarasulu/CARBON/AIRSS/Generating-Clusters/EDIP-Nigel-Params/Higher-Symm/Box-15A/Only-C60/SD-CG/HFTN-CG
REM
REM
REM
REM
REM
REM ./C.cell (414f73aa93bd7a1190c7fd0f31ff2f98)
REM
REM compiler GCC version 9.2.1 20190827 (Red Hat 9.2.1-1)
REM options -cpp -mtune=generic -march=x86-64 -g -O0 -fpre-include=/usr/include/finclude/math-vector-fortran.h
REM seed -1370584647 -918125460 -342891937 -1595227611 -136203104 -615830901 -2118305342 -998236260 -2006185238 -566995872 1898340410 -1832103679 1090913810 -1662459217 -691106590 -1565299649 -1812979529 576796894 -540773197 -558251956 -996057211 1785645397 1826352969 1282988412 1497292575 1049132304 -1245195116 878697357 227464263 1846067338 1020145320 1493776688 41865292
REM
CELL 1.54180   50.00000   50.00000   50.00000   90.00000   90.00000   90.00000
LATT -1
SFAC C  
C      1  0.4476380000000  0.5313210000000  0.5206570000000 1.0
C      1  0.4686790000000  0.4476380000000  0.5206570000000 1.0
C      1  0.5523620000000  0.4686790000000  0.5206570000000 1.0
C      1  0.5313210000000  0.5523620000000  0.5206570000000 1.0
C      1  0.4476380000000  0.4686790000000  0.5206570000000 1.0
C      1  0.4686790000000  0.5523620000000  0.5206570000000 1.0
C      1  0.5523620000000  0.5313210000000  0.5206570000000 1.0
C      1  0.5313210000000  0.4476380000000  0.5206570000000 1.0
C      1  0.5343620000000  0.5543650000000  0.4507110000000 1.0
C      1  0.4456350000000  0.5343620000000  0.4507110000000 1.0
C      1  0.4656380000000  0.4456350000000  0.4507110000000 1.0
C      1  0.5543650000000  0.4656380000000  0.4507110000000 1.0
C      1  0.5343620000000  0.4456350000000  0.4507110000000 1.0
C      1  0.4456350000000  0.4656380000000  0.4507110000000 1.0
C      1  0.4656380000000  0.5543650000000  0.4507110000000 1.0
C      1  0.5543650000000  0.5343620000000  0.4507110000000 1.0
C      1  0.5461320000000  0.5271600000000  0.5685120000000 1.0
C      1  0.4728400000000  0.5461320000000  0.5685120000000 1.0
C      1  0.4538680000000  0.4728400000000  0.5685120000000 1.0
C      1  0.5271600000000  0.4538680000000  0.5685120000000 1.0
C      1  0.5461320000000  0.4728400000000  0.5685120000000 1.0
C      1  0.4728400000000  0.4538680000000  0.5685120000000 1.0
C      1  0.4538680000000  0.5271600000000  0.5685120000000 1.0
C      1  0.5271600000000  0.5461320000000  0.5685120000000 1.0
C      1  0.5133360000000  0.5550610000000  0.4329000000000 1.0
C      1  0.4449390000000  0.5133360000000  0.4329000000000 1.0
C      1  0.4866640000000  0.4449390000000  0.4329000000000 1.0
C      1  0.5550610000000  0.4866640000000  0.4329000000000 1.0
C      1  0.5133360000000  0.4449390000000  0.4329000000000 1.0
C      1  0.4449390000000  0.4866640000000  0.4329000000000 1.0
C      1  0.4866640000000  0.5550610000000  0.4329000000000 1.0
C      1  0.5550610000000  0.5133360000000  0.4329000000000 1.0
C      1  0.4852560000000  0.5542810000000  0.5448760000000 1.0
C      1  0.4457190000000  0.4852560000000  0.5448760000000 1.0
C      1  0.5147440000000  0.4457190000000  0.5448760000000 1.0
C      1  0.5542810000000  0.5147440000000  0.5448760000000 1.0
C      1  0.4852560000000  0.4457190000000  0.5448760000000 1.0
C      1  0.4457190000000  0.5147440000000  0.5448760000000 1.0
C      1  0.5147440000000  0.5542810000000  0.5448760000000 1.0
C      1  0.5542810000000  0.4852560000000  0.5448760000000 1.0
C      1  0.5708870000000  0.5242570000000  0.4995180000000 1.0
C      1  0.4757430000000  0.5708870000000  0.4995180000000 1.0
C      1  0.4291130000000  0.4757430000000  0.4995180000000 1.0
C      1  0.5242570000000  0.4291130000000  0.4995180000000 1.0
C      1  0.5708870000000  0.4757430000000  0.4995180000000 1.0
C      1  0.4757430000000  0.4291130000000  0.4995180000000 1.0
C      1  0.4291130000000  0.5242570000000  0.4995180000000 1.0
C      1  0.5242570000000  0.5708870000000  0.4995180000000 1.0
C      1  0.4659150000000  0.4305860000000  0.4737850000000 1.0
C      1  0.5694140000000  0.4659150000000  0.4737850000000 1.0
C      1  0.5340850000000  0.5694140000000  0.4737850000000 1.0
C      1  0.4305860000000  0.5340850000000  0.4737850000000 1.0
C      1  0.4659150000000  0.5694140000000  0.4737850000000 1.0
C      1  0.5694140000000  0.5340850000000  0.4737850000000 1.0
C      1  0.5340850000000  0.4305860000000  0.4737850000000 1.0
C      1  0.4305860000000  0.4659150000000  0.4737850000000 1.0
C      1  0.5000000000000  0.5841020000000  0.5025450000000 1.0
C      1  0.5000000000000  0.4158980000000  0.5025450000000 1.0
C      1  0.5841020000000  0.5000000000000  0.5025450000000 1.0
C      1  0.4158980000000  0.5000000000000  0.5025450000000 1.0
END
