TITL C-8703-8361-308 0.000163680663892878 125000 -358.621108596473 0 0 60 (C2v) n - 1
REM
REM in /home/bkarasulu/CARBON/AIRSS/Generating-Clusters/EDIP-Nigel-Params/Higher-Symm/Box-15A/Only-C60/SD-CG/HFTN-CG
REM
REM
REM
REM
REM
REM ./C.cell (414f73aa93bd7a1190c7fd0f31ff2f98)
REM
REM compiler GCC version 9.2.1 20190827 (Red Hat 9.2.1-1)
REM options -cpp -mtune=generic -march=x86-64 -g -O0 -fpre-include=/usr/include/finclude/math-vector-fortran.h
REM seed 1843596051 1954911671 -754498930 1392594445 801015567 40653593 774547818 -2017768572 1864432432 1850677981 631011095 -563167226 1986516545 1539876631 813048051 1856714380 -638118568 -634506391 -19978807 447932998 1704659369 -1484586533 1876757250 -1622034209 1462577122 1540875473 802832656 57899465 92376184 1895345544 1705862148 -743610841 -1926559459
REM
CELL 1.54180   50.00000   50.00000   50.00000   90.00000   90.00000   90.00000
LATT -1
SFAC C  
C      1  0.4400410000000  0.4767990000000  0.4501960000000 1.0
C      1  0.5599650000000  0.4768180000000  0.5498060000000 1.0
C      1  0.5599690000000  0.4768150000000  0.4502000000000 1.0
C      1  0.4400370000000  0.4768030000000  0.5498010000000 1.0
C      1  0.5269080000000  0.5126970000000  0.4320430000000 1.0
C      1  0.4730890000000  0.5126950000000  0.5679560000000 1.0
C      1  0.4730940000000  0.5126910000000  0.4320410000000 1.0
C      1  0.5269020000000  0.5127020000000  0.5679580000000 1.0
C      1  0.5339800000000  0.5470370000000  0.5271680000000 1.0
C      1  0.4660080000000  0.5470270000000  0.4728290000000 1.0
C      1  0.4660060000000  0.5470290000000  0.5271650000000 1.0
C      1  0.5339820000000  0.5470350000000  0.4728320000000 1.0
C      1  0.5268820000000  0.4441190000000  0.5408820000000 1.0
C      1  0.4731320000000  0.4441090000000  0.4591220000000 1.0
C      1  0.4731290000000  0.4441120000000  0.5408800000000 1.0
C      1  0.5268850000000  0.4441160000000  0.4591240000000 1.0
C      1  0.5148860000000  0.4380270000000  0.5162710000000 1.0
C      1  0.4851300000000  0.4380220000000  0.4837330000000 1.0
C      1  0.4851290000000  0.4380230000000  0.5162700000000 1.0
C      1  0.5148870000000  0.4380260000000  0.4837340000000 1.0
C      1  0.5299560000000  0.5374230000000  0.4449050000000 1.0
C      1  0.4700340000000  0.5374190000000  0.5550930000000 1.0
C      1  0.4700390000000  0.5374160000000  0.4449020000000 1.0
C      1  0.5299520000000  0.5374270000000  0.5550950000000 1.0
C      1  0.5589400000000  0.4906930000000  0.4759380000000 1.0
C      1  0.4410620000000  0.4906790000000  0.5240630000000 1.0
C      1  0.4410640000000  0.4906780000000  0.4759340000000 1.0
C      1  0.5589380000000  0.4906940000000  0.5240670000000 1.0
C      1  0.5158860000000  0.5685330000000  0.5153530000000 1.0
C      1  0.4840970000000  0.5685280000000  0.4846430000000 1.0
C      1  0.4840960000000  0.5685290000000  0.5153520000000 1.0
C      1  0.5158870000000  0.5685320000000  0.4846440000000 1.0
C      1  0.5149580000000  0.5128870000000  0.5281870000000 1.0
C      1  0.4850390000000  0.5128810000000  0.4718120000000 1.0
C      1  0.4850370000000  0.5128830000000  0.5281860000000 1.0
C      1  0.5149600000000  0.5128850000000  0.4718130000000 1.0
C      1  0.5616500000000  0.5436920000000  0.4847290000000 1.0
C      1  0.4383390000000  0.5436780000000  0.5152680000000 1.0
C      1  0.4383400000000  0.5436770000000  0.4847240000000 1.0
C      1  0.5616490000000  0.5436930000000  0.5152730000000 1.0
C      1  0.4690840000000  0.4926790000000  0.4857770000000 1.0
C      1  0.5309170000000  0.4926880000000  0.5142240000000 1.0
C      1  0.5309180000000  0.4926870000000  0.4857790000000 1.0
C      1  0.4690830000000  0.4926800000000  0.5142210000000 1.0
C      1  0.5148520000000  0.4872940000000  0.4359590000000 1.0
C      1  0.4851510000000  0.4872940000000  0.5640420000000 1.0
C      1  0.4851560000000  0.4872900000000  0.4359580000000 1.0
C      1  0.5148470000000  0.4872980000000  0.5640430000000 1.0
C      1  0.5757650000000  0.5156990000000  0.4842150000000 1.0
C      1  0.4242310000000  0.5156810000000  0.5157840000000 1.0
C      1  0.4242320000000  0.5156800000000  0.4842090000000 1.0
C      1  0.5757640000000  0.5157000000000  0.5157900000000 1.0
C      1  0.4657900000000  0.4657560000000  0.5573250000000 1.0
C      1  0.5342190000000  0.4657610000000  0.4426780000000 1.0
C      1  0.5342150000000  0.4657650000000  0.5573270000000 1.0
C      1  0.4657940000000  0.4657520000000  0.4426750000000 1.0
C      1  0.5714230000000  0.4667010000000  0.5140090000000 1.0
C      1  0.4285860000000  0.4666820000000  0.4859930000000 1.0
C      1  0.4285840000000  0.4666830000000  0.5140040000000 1.0
C      1  0.5714240000000  0.4667000000000  0.4859980000000 1.0
END
