TITL C-8703-8361-269 -0.079159477687812 125000 -365.728720311366 0 0 60 (C1) n - 1
REM
REM in /home/bkarasulu/CARBON/AIRSS/Generating-Clusters/EDIP-Nigel-Params/Higher-Symm/Box-15A/Only-C60/SD-CG/HFTN-CG
REM
REM
REM
REM
REM
REM ./C.cell (414f73aa93bd7a1190c7fd0f31ff2f98)
REM
REM compiler GCC version 9.2.1 20190827 (Red Hat 9.2.1-1)
REM options -cpp -mtune=generic -march=x86-64 -g -O0 -fpre-include=/usr/include/finclude/math-vector-fortran.h
REM seed 1576302728 1003013524 911614327 -1304471524 984054202 -776100519 -2051452123 522141187 -600024843 1635967973 -597845908 747545556 -1052220439 168178393 1704342969 -695162999 121342781 765952299 -433993844 1038156324 1549128252 -2057700832 924131360 1075629710 -1021467924 799498119 1752284351 598856302 1472357280 2091692154 -416413166 -1654252491 929512991
REM
CELL 1.54180   50.00000   50.00000   50.00000   90.00000   90.00000   90.00000
LATT -1
SFAC C  
C      1  0.5402370000000  0.5944630000000  0.5664090000000 1.0
C      1  0.5205910000000  0.4507620000000  0.4696840000000 1.0
C      1  0.4735090000000  0.4209000000000  0.5102520000000 1.0
C      1  0.4571390000000  0.5276420000000  0.4426650000000 1.0
C      1  0.5428010000000  0.5748080000000  0.5868250000000 1.0
C      1  0.5270180000000  0.4688940000000  0.4481850000000 1.0
C      1  0.4752090000000  0.5119450000000  0.4270910000000 1.0
C      1  0.4524630000000  0.4279920000000  0.5287430000000 1.0
C      1  0.4208640000000  0.4311670000000  0.4490950000000 1.0
C      1  0.4101330000000  0.4739960000000  0.4659260000000 1.0
C      1  0.5422150000000  0.5419610000000  0.5137920000000 1.0
C      1  0.5412490000000  0.4948230000000  0.5279380000000 1.0
C      1  0.4426810000000  0.4432480000000  0.4345840000000 1.0
C      1  0.4099160000000  0.4464260000000  0.4717470000000 1.0
C      1  0.5459330000000  0.5210030000000  0.5362970000000 1.0
C      1  0.5350670000000  0.5316340000000  0.4874190000000 1.0
C      1  0.5369350000000  0.5489150000000  0.5792140000000 1.0
C      1  0.5371980000000  0.4934030000000  0.4559310000000 1.0
C      1  0.4257380000000  0.4315470000000  0.5207410000000 1.0
C      1  0.4702600000000  0.4839220000000  0.4241170000000 1.0
C      1  0.5321690000000  0.5849470000000  0.5417720000000 1.0
C      1  0.5273700000000  0.4588150000000  0.4966920000000 1.0
C      1  0.4346930000000  0.5146430000000  0.4525540000000 1.0
C      1  0.4668930000000  0.4146300000000  0.4832590000000 1.0
C      1  0.4860760000000  0.4110020000000  0.4621530000000 1.0
C      1  0.5521390000000  0.6441550000000  0.5836800000000 1.0
C      1  0.4850560000000  0.5676760000000  0.4604020000000 1.0
C      1  0.5186050000000  0.4436650000000  0.5195690000000 1.0
C      1  0.4900540000000  0.4667920000000  0.4115840000000 1.0
C      1  0.5583080000000  0.5987180000000  0.6306930000000 1.0
C      1  0.4783500000000  0.4358340000000  0.5745520000000 1.0
C      1  0.5226910000000  0.5314040000000  0.4187940000000 1.0
C      1  0.4747210000000  0.4072420000000  0.4368590000000 1.0
C      1  0.5719650000000  0.6450400000000  0.6038550000000 1.0
C      1  0.5110500000000  0.5681310000000  0.4667140000000 1.0
C      1  0.5263890000000  0.4514820000000  0.5458870000000 1.0
C      1  0.4797430000000  0.4416910000000  0.4057770000000 1.0
C      1  0.5637220000000  0.6249450000000  0.6358520000000 1.0
C      1  0.5057990000000  0.4298080000000  0.5707700000000 1.0
C      1  0.5363510000000  0.5395420000000  0.4402300000000 1.0
C      1  0.5417110000000  0.5040740000000  0.4811050000000 1.0
C      1  0.5280420000000  0.5377940000000  0.5551700000000 1.0
C      1  0.4459360000000  0.4719230000000  0.4338510000000 1.0
C      1  0.4266990000000  0.4344980000000  0.4929070000000 1.0
C      1  0.5381260000000  0.4850030000000  0.5022160000000 1.0
C      1  0.5249900000000  0.5594910000000  0.5327770000000 1.0
C      1  0.4391420000000  0.4135120000000  0.4778810000000 1.0
C      1  0.4284290000000  0.4877220000000  0.4499760000000 1.0
C      1  0.4649460000000  0.5526700000000  0.4513180000000 1.0
C      1  0.5002070000000  0.4231050000000  0.5169410000000 1.0
C      1  0.5096830000000  0.4256530000000  0.4644860000000 1.0
C      1  0.5453760000000  0.6210640000000  0.5708120000000 1.0
C      1  0.4596250000000  0.4324580000000  0.5549200000000 1.0
C      1  0.4976730000000  0.5229790000000  0.4157770000000 1.0
C      1  0.5154360000000  0.4669680000000  0.4230400000000 1.0
C      1  0.5506700000000  0.5811690000000  0.6123110000000 1.0
C      1  0.5093200000000  0.4577760000000  0.5675930000000 1.0
C      1  0.5323340000000  0.5503070000000  0.4654700000000 1.0
C      1  0.5502060000000  0.6457690000000  0.6222550000000 1.0
C      1  0.4621530000000  0.4264530000000  0.4208880000000 1.0
END
