TITL C-8701-7969-28 5.81939424450335e-06 125000 -361.944975283959 0 0 60 (C1) n - 1
REM
REM in /home/bkarasulu/CARBON/AIRSS/Generating-Clusters/EDIP-Nigel-Params/Higher-Symm/Box-15A/Only-C60/SD-CG/HFTN-CG
REM
REM
REM
REM
REM
REM ./C.cell (414f73aa93bd7a1190c7fd0f31ff2f98)
REM
REM compiler GCC version 9.2.1 20190827 (Red Hat 9.2.1-1)
REM options -cpp -mtune=generic -march=x86-64 -g -O0 -fpre-include=/usr/include/finclude/math-vector-fortran.h
REM seed 427946371 -895078678 1158643507 -1829559783 53339235 1839818522 -1990411906 566596550 1001044089 660362302 1594963866 2140132259 864998348 -850632858 -1259252028 129297146 1641918447 -1055256551 -835449440 826909832 -1044699434 -1267143002 1135747982 -1475661389 1676427869 -69422917 1320681361 -21683920 -1746618741 1843445708 722345542 -355691201 -1484672271
REM
CELL 1.54180   50.00000   50.00000   50.00000   90.00000   90.00000   90.00000
LATT -1
SFAC C  
C      1  0.5163840000000  0.5228440000000  0.4487400000000 1.0
C      1  0.4532660000000  0.5156270000000  0.5398380000000 1.0
C      1  0.5219210000000  0.4397200000000  0.5177080000000 1.0
C      1  0.4877790000000  0.5507280000000  0.5490840000000 1.0
C      1  0.5089920000000  0.4790610000000  0.5517470000000 1.0
C      1  0.4816980000000  0.4606860000000  0.4403280000000 1.0
C      1  0.5566500000000  0.5202610000000  0.4774590000000 1.0
C      1  0.4429000000000  0.4825110000000  0.4631050000000 1.0
C      1  0.5543620000000  0.4749760000000  0.5278940000000 1.0
C      1  0.4728560000000  0.4453630000000  0.4858500000000 1.0
C      1  0.5234930000000  0.5567050000000  0.4872290000000 1.0
C      1  0.4523640000000  0.5565420000000  0.5139000000000 1.0
C      1  0.4406800000000  0.5312790000000  0.5202860000000 1.0
C      1  0.5429510000000  0.5104080000000  0.4530920000000 1.0
C      1  0.5086930000000  0.4508000000000  0.5399390000000 1.0
C      1  0.5503560000000  0.5454310000000  0.4922590000000 1.0
C      1  0.5479750000000  0.4504970000000  0.5129620000000 1.0
C      1  0.4459580000000  0.4645180000000  0.4867800000000 1.0
C      1  0.4754880000000  0.5251080000000  0.5555290000000 1.0
C      1  0.4556420000000  0.4700920000000  0.4415960000000 1.0
C      1  0.5396350000000  0.4853600000000  0.5513740000000 1.0
C      1  0.4887820000000  0.4359600000000  0.4523050000000 1.0
C      1  0.4771910000000  0.5656190000000  0.5263080000000 1.0
C      1  0.5098960000000  0.5491150000000  0.4607530000000 1.0
C      1  0.4625710000000  0.5238150000000  0.4426650000000 1.0
C      1  0.4549910000000  0.4742690000000  0.5153550000000 1.0
C      1  0.5186540000000  0.4367810000000  0.4472250000000 1.0
C      1  0.5479820000000  0.5134760000000  0.5576540000000 1.0
C      1  0.4517230000000  0.4765000000000  0.5649670000000 1.0
C      1  0.5473600000000  0.4801230000000  0.4472660000000 1.0
C      1  0.5549580000000  0.4462160000000  0.4839500000000 1.0
C      1  0.4331370000000  0.5312360000000  0.4826200000000 1.0
C      1  0.5555910000000  0.5492430000000  0.5221390000000 1.0
C      1  0.4812260000000  0.4448230000000  0.5463870000000 1.0
C      1  0.5167020000000  0.5529850000000  0.5555770000000 1.0
C      1  0.4647860000000  0.5672240000000  0.4681870000000 1.0
C      1  0.4447120000000  0.5127410000000  0.4632450000000 1.0
C      1  0.5308530000000  0.4603830000000  0.4322400000000 1.0
C      1  0.4632020000000  0.4465360000000  0.5234980000000 1.0
C      1  0.5656290000000  0.5260420000000  0.5373700000000 1.0
C      1  0.5652800000000  0.4683210000000  0.4675560000000 1.0
C      1  0.4441880000000  0.4883320000000  0.5407920000000 1.0
C      1  0.4768160000000  0.4654220000000  0.5668410000000 1.0
C      1  0.4742890000000  0.5503300000000  0.4474290000000 1.0
C      1  0.5281810000000  0.5307600000000  0.5685520000000 1.0
C      1  0.5319770000000  0.4329180000000  0.4724250000000 1.0
C      1  0.5341770000000  0.5628400000000  0.5355700000000 1.0
C      1  0.4438580000000  0.5588450000000  0.4857980000000 1.0
C      1  0.5169090000000  0.4679270000000  0.4780440000000 1.0
C      1  0.4944220000000  0.5005140000000  0.5334980000000 1.0
C      1  0.5030920000000  0.4782450000000  0.4513020000000 1.0
C      1  0.4964880000000  0.4616090000000  0.4989000000000 1.0
C      1  0.5047310000000  0.5458520000000  0.5086430000000 1.0
C      1  0.4832710000000  0.5392070000000  0.4871120000000 1.0
C      1  0.4834570000000  0.5090770000000  0.4842690000000 1.0
C      1  0.5404910000000  0.5085240000000  0.5141980000000 1.0
C      1  0.5401430000000  0.4873020000000  0.4900880000000 1.0
C      1  0.4823510000000  0.4879340000000  0.5081090000000 1.0
C      1  0.4926590000000  0.5059930000000  0.4550740000000 1.0
C      1  0.5132310000000  0.5184390000000  0.5193910000000 1.0
END
