TITL C-8702-7969-230 3.01312660488851e-05 125000 -345.51513584837 0 0 60 (C5) n - 1
REM
REM in /home/bkarasulu/CARBON/AIRSS/Generating-Clusters/EDIP-Nigel-Params/Higher-Symm/Box-15A/Only-C60/SD-CG/HFTN-CG
REM
REM
REM
REM
REM
REM ./C.cell (414f73aa93bd7a1190c7fd0f31ff2f98)
REM
REM compiler GCC version 9.2.1 20190827 (Red Hat 9.2.1-1)
REM options -cpp -mtune=generic -march=x86-64 -g -O0 -fpre-include=/usr/include/finclude/math-vector-fortran.h
REM seed -1616381137 -1887190152 -135590638 611311727 574804267 -1567585751 -1364536931 265775539 260427105 -1013914502 773132758 -1435977422 1791063082 -1248481583 1815376290 2095285108 -1460278221 1463865595 1035142138 -125922471 -1047859317 -971768703 667796156 -883119238 -1814269989 -954296406 -1552512309 1213298962 1462033205 1717063251 61932983 1033028779 1914911220
REM
CELL 1.54180   50.00000   50.00000   50.00000   90.00000   90.00000   90.00000
LATT -1
SFAC C  
C      1  0.5447930000000  0.4825830000000  0.4493960000000 1.0
C      1  0.5455540000000  0.5433410000000  0.4672760000000 1.0
C      1  0.5449340000000  0.5441280000000  0.5307310000000 1.0
C      1  0.5455090000000  0.4842550000000  0.5518530000000 1.0
C      1  0.5454190000000  0.4459830000000  0.5011600000000 1.0
C      1  0.4543710000000  0.4822360000000  0.4486030000000 1.0
C      1  0.4552200000000  0.5427570000000  0.4676750000000 1.0
C      1  0.4545370000000  0.5444400000000  0.5310580000000 1.0
C      1  0.4548780000000  0.4843490000000  0.5515400000000 1.0
C      1  0.4549270000000  0.4461780000000  0.5008910000000 1.0
C      1  0.4843200000000  0.4757380000000  0.5160480000000 1.0
C      1  0.4843880000000  0.4781690000000  0.4810280000000 1.0
C      1  0.4844840000000  0.5096830000000  0.4725850000000 1.0
C      1  0.4845050000000  0.5285090000000  0.5024620000000 1.0
C      1  0.4844750000000  0.5075500000000  0.5278670000000 1.0
C      1  0.5151410000000  0.4754520000000  0.5149890000000 1.0
C      1  0.5154060000000  0.4770720000000  0.4822310000000 1.0
C      1  0.5154660000000  0.5113380000000  0.4735710000000 1.0
C      1  0.5155430000000  0.5288540000000  0.5010440000000 1.0
C      1  0.5157220000000  0.5065710000000  0.5276130000000 1.0
C      1  0.4745960000000  0.5289260000000  0.4506060000000 1.0
C      1  0.4746100000000  0.5556580000000  0.5126590000000 1.0
C      1  0.4745230000000  0.5055450000000  0.5569940000000 1.0
C      1  0.4744960000000  0.4474140000000  0.5228330000000 1.0
C      1  0.4744350000000  0.4622300000000  0.4568200000000 1.0
C      1  0.5254330000000  0.5293580000000  0.4508920000000 1.0
C      1  0.5254210000000  0.5558320000000  0.5122720000000 1.0
C      1  0.5255670000000  0.5052710000000  0.5566270000000 1.0
C      1  0.5255100000000  0.4475450000000  0.5227250000000 1.0
C      1  0.5254040000000  0.4620370000000  0.4572420000000 1.0
C      1  0.4700070000000  0.4429510000000  0.5504090000000 1.0
C      1  0.4702520000000  0.4346180000000  0.4611990000000 1.0
C      1  0.4695050000000  0.5166970000000  0.4256190000000 1.0
C      1  0.4704640000000  0.5755030000000  0.4929350000000 1.0
C      1  0.4696550000000  0.5301820000000  0.5699600000000 1.0
C      1  0.5301310000000  0.4429600000000  0.5502210000000 1.0
C      1  0.5303930000000  0.4344940000000  0.4613200000000 1.0
C      1  0.5295410000000  0.5166590000000  0.4259590000000 1.0
C      1  0.5304470000000  0.5758600000000  0.4929630000000 1.0
C      1  0.5296660000000  0.5300660000000  0.5696070000000 1.0
C      1  0.5565630000000  0.4742370000000  0.4993030000000 1.0
C      1  0.5560560000000  0.4930090000000  0.4754260000000 1.0
C      1  0.5567910000000  0.5216110000000  0.4854820000000 1.0
C      1  0.5563860000000  0.5204100000000  0.5158500000000 1.0
C      1  0.5570920000000  0.4912200000000  0.5245520000000 1.0
C      1  0.4436340000000  0.4742710000000  0.4989520000000 1.0
C      1  0.4431290000000  0.4928490000000  0.4749180000000 1.0
C      1  0.4438800000000  0.5212900000000  0.4856270000000 1.0
C      1  0.4432020000000  0.5204920000000  0.5160060000000 1.0
C      1  0.4434470000000  0.4912580000000  0.5242610000000 1.0
C      1  0.5152950000000  0.5672180000000  0.4709070000000 1.0
C      1  0.5143630000000  0.5478900000000  0.5541810000000 1.0
C      1  0.5149220000000  0.4630020000000  0.5626680000000 1.0
C      1  0.5151080000000  0.4287960000000  0.4842680000000 1.0
C      1  0.5142070000000  0.4932090000000  0.4281780000000 1.0
C      1  0.4857950000000  0.5662080000000  0.4712830000000 1.0
C      1  0.4848520000000  0.5483580000000  0.5548340000000 1.0
C      1  0.4853710000000  0.4632090000000  0.5625320000000 1.0
C      1  0.4855680000000  0.4294300000000  0.4841830000000 1.0
C      1  0.4846930000000  0.4930430000000  0.4271080000000 1.0
END
