TITL C-8702-7969-296 -2.02188501278058e-07 125000 -391.467711235593 0 0 60 (Ih) n - 1
REM
REM in /home/bkarasulu/CARBON/AIRSS/Generating-Clusters/EDIP-Nigel-Params/Higher-Symm/Box-15A/Only-C60/SD-CG/HFTN-CG
REM
REM
REM
REM
REM
REM ./C.cell (414f73aa93bd7a1190c7fd0f31ff2f98)
REM
REM compiler GCC version 9.2.1 20190827 (Red Hat 9.2.1-1)
REM options -cpp -mtune=generic -march=x86-64 -g -O0 -fpre-include=/usr/include/finclude/math-vector-fortran.h
REM seed -1804468883 -1870105864 -700108176 -882439421 1730003180 -2042176689 -2053892088 -1823496828 1214019038 1334084184 -1731921554 62537631 850595496 -1654852151 1323991409 -1679381160 463733436 1533180905 -1438599202 -1189509389 -1444284472 1495351833 -1543140487 1157377792 576820315 -2075198931 -774886107 468261636 -1752058547 -306907490 919469810 190875538 2109768890
REM
CELL 1.54180   50.00000   50.00000   50.00000   90.00000   90.00000   90.00000
LATT -1
SFAC C  
C      1  0.5241000000000  0.5630640000000  0.5297710000000 1.0
C      1  0.5297710000000  0.5241000000000  0.5630640000000 1.0
C      1  0.5630640000000  0.5297710000000  0.5241000000000 1.0
C      1  0.5241000000000  0.4369360000000  0.4702290000000 1.0
C      1  0.4759000000000  0.4369360000000  0.5297710000000 1.0
C      1  0.4759000000000  0.5630640000000  0.4702290000000 1.0
C      1  0.5297710000000  0.4759000000000  0.4369360000000 1.0
C      1  0.4702290000000  0.4759000000000  0.5630640000000 1.0
C      1  0.4702290000000  0.5241000000000  0.4369360000000 1.0
C      1  0.5630640000000  0.4702290000000  0.4759000000000 1.0
C      1  0.4369360000000  0.4702290000000  0.5241000000000 1.0
C      1  0.4369360000000  0.5297710000000  0.4759000000000 1.0
C      1  0.4759000000000  0.5630640000000  0.5297710000000 1.0
C      1  0.4702290000000  0.5241000000000  0.5630640000000 1.0
C      1  0.4369360000000  0.5297710000000  0.5241000000000 1.0
C      1  0.4759000000000  0.4369360000000  0.4702290000000 1.0
C      1  0.5241000000000  0.4369360000000  0.5297710000000 1.0
C      1  0.5241000000000  0.5630640000000  0.4702290000000 1.0
C      1  0.4702290000000  0.4759000000000  0.4369360000000 1.0
C      1  0.5297710000000  0.4759000000000  0.5630640000000 1.0
C      1  0.5297710000000  0.5241000000000  0.4369360000000 1.0
C      1  0.4369360000000  0.4702290000000  0.4759000000000 1.0
C      1  0.5630640000000  0.4702290000000  0.5241000000000 1.0
C      1  0.5630640000000  0.5297710000000  0.4759000000000 1.0
C      1  0.5481700000000  0.5538700000000  0.4851060000000 1.0
C      1  0.4851060000000  0.5481700000000  0.5538700000000 1.0
C      1  0.5538700000000  0.4851060000000  0.5481700000000 1.0
C      1  0.5481700000000  0.4461300000000  0.5148940000000 1.0
C      1  0.4518300000000  0.4461300000000  0.4851060000000 1.0
C      1  0.4518300000000  0.5538700000000  0.5148940000000 1.0
C      1  0.4851060000000  0.4518300000000  0.4461300000000 1.0
C      1  0.5148940000000  0.4518300000000  0.5538700000000 1.0
C      1  0.5148940000000  0.5481700000000  0.4461300000000 1.0
C      1  0.5538700000000  0.5148940000000  0.4518300000000 1.0
C      1  0.4461300000000  0.5148940000000  0.5481700000000 1.0
C      1  0.4461300000000  0.4851060000000  0.4518300000000 1.0
C      1  0.4518300000000  0.5538700000000  0.4851060000000 1.0
C      1  0.5148940000000  0.5481700000000  0.5538700000000 1.0
C      1  0.4461300000000  0.4851060000000  0.5481700000000 1.0
C      1  0.4518300000000  0.4461300000000  0.5148940000000 1.0
C      1  0.5481700000000  0.4461300000000  0.4851060000000 1.0
C      1  0.5481700000000  0.5538700000000  0.5148940000000 1.0
C      1  0.5148940000000  0.4518300000000  0.4461300000000 1.0
C      1  0.4851060000000  0.4518300000000  0.5538700000000 1.0
C      1  0.4851060000000  0.5481700000000  0.4461300000000 1.0
C      1  0.4461300000000  0.5148940000000  0.4518300000000 1.0
C      1  0.5538700000000  0.5148940000000  0.5481700000000 1.0
C      1  0.5538700000000  0.4851060000000  0.4518300000000 1.0
C      1  0.5722690000000  0.4851240000000  0.5000000000000 1.0
C      1  0.5000000000000  0.5722690000000  0.4851240000000 1.0
C      1  0.4851240000000  0.5000000000000  0.5722690000000 1.0
C      1  0.5722690000000  0.5148760000000  0.5000000000000 1.0
C      1  0.4277310000000  0.5148760000000  0.5000000000000 1.0
C      1  0.4277310000000  0.4851240000000  0.5000000000000 1.0
C      1  0.5000000000000  0.4277310000000  0.5148760000000 1.0
C      1  0.5000000000000  0.4277310000000  0.4851240000000 1.0
C      1  0.5000000000000  0.5722690000000  0.5148760000000 1.0
C      1  0.4851240000000  0.5000000000000  0.4277310000000 1.0
C      1  0.5148760000000  0.5000000000000  0.5722690000000 1.0
C      1  0.5148760000000  0.5000000000000  0.4277310000000 1.0
END
