TITL C-8704-7456-80 6.22486264895405e-06 125000 -358.126124230205 0 0 60 (C1) n - 1
REM
REM in /home/bkarasulu/CARBON/AIRSS/Generating-Clusters/EDIP-Nigel-Params/Higher-Symm/Box-15A/Only-C60/SD-CG/HFTN-CG
REM
REM
REM
REM
REM
REM ./C.cell (414f73aa93bd7a1190c7fd0f31ff2f98)
REM
REM compiler GCC version 9.2.1 20190827 (Red Hat 9.2.1-1)
REM options -cpp -mtune=generic -march=x86-64 -g -O0 -fpre-include=/usr/include/finclude/math-vector-fortran.h
REM seed 1537543210 -1856533334 1395573663 1182803926 1728940962 -2136991209 -905808937 1376985221 -1678967665 -1209698827 -849342861 1188898564 -1563875678 848535635 -1304454806 -13129846 456501521 646516566 1726535598 -1733130835 -364547743 495621052 -1870721348 -1343047982 1129654085 -831403702 -1525882780 1143749857 -264263264 -219143289 46680137 1608301674 -1037938471
REM
CELL 1.54180   50.00000   50.00000   50.00000   90.00000   90.00000   90.00000
LATT -1
SFAC C  
C      1  0.4761600000000  0.4629730000000  0.4403660000000 1.0
C      1  0.5575760000000  0.4734590000000  0.4999280000000 1.0
C      1  0.4523770000000  0.4608090000000  0.5428020000000 1.0
C      1  0.4947260000000  0.4276800000000  0.4842890000000 1.0
C      1  0.4584250000000  0.5397900000000  0.5486340000000 1.0
C      1  0.4853140000000  0.4889560000000  0.4506450000000 1.0
C      1  0.4861880000000  0.4737680000000  0.5170550000000 1.0
C      1  0.4752600000000  0.4464260000000  0.5269060000000 1.0
C      1  0.4925620000000  0.5123130000000  0.4809880000000 1.0
C      1  0.5267020000000  0.5469070000000  0.4703940000000 1.0
C      1  0.5570950000000  0.5468260000000  0.5096380000000 1.0
C      1  0.5569710000000  0.5204390000000  0.5191590000000 1.0
C      1  0.4735150000000  0.5591780000000  0.4740390000000 1.0
C      1  0.4660300000000  0.5123190000000  0.4458950000000 1.0
C      1  0.5476240000000  0.4851920000000  0.4423320000000 1.0
C      1  0.4473800000000  0.5488720000000  0.4710920000000 1.0
C      1  0.5212600000000  0.4314000000000  0.5258800000000 1.0
C      1  0.5025740000000  0.5144930000000  0.5232120000000 1.0
C      1  0.5397820000000  0.4606680000000  0.4529880000000 1.0
C      1  0.5420270000000  0.5117700000000  0.5430790000000 1.0
C      1  0.5481860000000  0.5314070000000  0.4548480000000 1.0
C      1  0.5632030000000  0.5486210000000  0.4399990000000 1.0
C      1  0.4285960000000  0.5112340000000  0.5148790000000 1.0
C      1  0.4518320000000  0.4492160000000  0.4840570000000 1.0
C      1  0.5365460000000  0.5103150000000  0.4374440000000 1.0
C      1  0.5004380000000  0.4392590000000  0.5428610000000 1.0
C      1  0.4891680000000  0.4855790000000  0.5471790000000 1.0
C      1  0.4355790000000  0.4741120000000  0.5233460000000 1.0
C      1  0.4510480000000  0.5210740000000  0.4698610000000 1.0
C      1  0.5057300000000  0.4636700000000  0.5593670000000 1.0
C      1  0.5434260000000  0.4535300000000  0.4821370000000 1.0
C      1  0.4659470000000  0.5788250000000  0.5174220000000 1.0
C      1  0.5011650000000  0.4558820000000  0.4743800000000 1.0
C      1  0.4366960000000  0.5014730000000  0.4877980000000 1.0
C      1  0.5054980000000  0.5442490000000  0.5582030000000 1.0
C      1  0.5136000000000  0.4731390000000  0.5009960000000 1.0
C      1  0.4588840000000  0.4497050000000  0.4571530000000 1.0
C      1  0.5595340000000  0.5026340000000  0.4963660000000 1.0
C      1  0.5235460000000  0.4305290000000  0.4974060000000 1.0
C      1  0.5654860000000  0.5162290000000  0.4725580000000 1.0
C      1  0.4694420000000  0.4313770000000  0.5005940000000 1.0
C      1  0.5289080000000  0.5288520000000  0.5614380000000 1.0
C      1  0.4507200000000  0.5141250000000  0.5345400000000 1.0
C      1  0.4757130000000  0.5805660000000  0.4919390000000 1.0
C      1  0.5152460000000  0.5031120000000  0.4974320000000 1.0
C      1  0.4794740000000  0.5378010000000  0.5684550000000 1.0
C      1  0.4466750000000  0.4749850000000  0.4969980000000 1.0
C      1  0.4964400000000  0.5398010000000  0.4670200000000 1.0
C      1  0.4633950000000  0.4806190000000  0.5601200000000 1.0
C      1  0.5313500000000  0.4704180000000  0.5689030000000 1.0
C      1  0.5476980000000  0.4674130000000  0.5251120000000 1.0
C      1  0.4724140000000  0.5069790000000  0.5130700000000 1.0
C      1  0.5000520000000  0.5449390000000  0.5290680000000 1.0
C      1  0.4715630000000  0.5522080000000  0.5255300000000 1.0
C      1  0.5128900000000  0.4545160000000  0.4466770000000 1.0
C      1  0.5437920000000  0.4832730000000  0.5476800000000 1.0
C      1  0.4898180000000  0.5309060000000  0.4385940000000 1.0
C      1  0.5358010000000  0.5586470000000  0.4957900000000 1.0
C      1  0.5158250000000  0.5634460000000  0.5139530000000 1.0
C      1  0.5091300000000  0.5110970000000  0.4295070000000 1.0
END
