TITL C-8705-8172-69 -8.14327142481256e-07 125000 -369.895698212682 0 0 60 (C3h) n - 1
REM
REM in /home/bkarasulu/CARBON/AIRSS/Generating-Clusters/EDIP-Nigel-Params/Higher-Symm/Box-15A/Only-C60/SD-CG/HFTN-CG
REM
REM
REM
REM
REM
REM ./C.cell (414f73aa93bd7a1190c7fd0f31ff2f98)
REM
REM compiler GCC version 9.2.1 20190827 (Red Hat 9.2.1-1)
REM options -cpp -mtune=generic -march=x86-64 -g -O0 -fpre-include=/usr/include/finclude/math-vector-fortran.h
REM seed -577626639 268582781 -771647819 457156960 667118235 518993583 -38199365 -167998207 605106530 1258968762 1022160113 -966248471 -517305834 -1562137991 -1578389138 576116254 924136455 -1932855974 273432873 -386830036 -1527809803 1071952857 567335416 -1740975549 -840232911 303166285 1658654324 1894750413 1296039281 -961208103 1615925309 -490180199 543968713
REM
CELL 1.54180   50.00000   50.00000   50.00000   90.00000   90.00000   90.00000
LATT -1
SFAC C  
C      1  0.4845570000000  0.4719700000000  0.4251680000000 1.0
C      1  0.4845570000000  0.4492080000000  0.5616910000000 1.0
C      1  0.4845570000000  0.5788220000000  0.5131420000000 1.0
C      1  0.5154430000000  0.4719700000000  0.4251680000000 1.0
C      1  0.5154430000000  0.4492080000000  0.5616910000000 1.0
C      1  0.5154430000000  0.5788220000000  0.5131420000000 1.0
C      1  0.4835850000000  0.4513560000000  0.4645780000000 1.0
C      1  0.4835850000000  0.4936460000000  0.5598380000000 1.0
C      1  0.4835850000000  0.5549980000000  0.4755840000000 1.0
C      1  0.5164150000000  0.4513560000000  0.4645780000000 1.0
C      1  0.5164150000000  0.4936460000000  0.5598380000000 1.0
C      1  0.5164150000000  0.5549980000000  0.4755840000000 1.0
C      1  0.5260480000000  0.4938700000000  0.4449600000000 1.0
C      1  0.5260480000000  0.4553990000000  0.5328290000000 1.0
C      1  0.5260480000000  0.5507310000000  0.5222110000000 1.0
C      1  0.4739520000000  0.4938700000000  0.4449600000000 1.0
C      1  0.4739520000000  0.4553990000000  0.5328290000000 1.0
C      1  0.4739520000000  0.5507320000000  0.5222110000000 1.0
C      1  0.4446800000000  0.5167570000000  0.5394090000000 1.0
C      1  0.4446800000000  0.5257510000000  0.4657840000000 1.0
C      1  0.4446800000000  0.4574930000000  0.4948070000000 1.0
C      1  0.5553200000000  0.5167570000000  0.5394090000000 1.0
C      1  0.5553200000000  0.5257510000000  0.4657840000000 1.0
C      1  0.5553200000000  0.4574930000000  0.4948070000000 1.0
C      1  0.4681070000000  0.5408020000000  0.4541420000000 1.0
C      1  0.4681070000000  0.4398850000000  0.4875940000000 1.0
C      1  0.4681070000000  0.5193140000000  0.5582650000000 1.0
C      1  0.5318930000000  0.5408020000000  0.4541420000000 1.0
C      1  0.5318930000000  0.4398850000000  0.4875940000000 1.0
C      1  0.5318930000000  0.5193140000000  0.5582650000000 1.0
C      1  0.4850620000000  0.5415410000000  0.5484710000000 1.0
C      1  0.4850630000000  0.5212060000000  0.4397890000000 1.0
C      1  0.4850620000000  0.4372530000000  0.5117400000000 1.0
C      1  0.5149380000000  0.5415410000000  0.5484710000000 1.0
C      1  0.5149380000000  0.5212060000000  0.4397890000000 1.0
C      1  0.5149380000000  0.4372530000000  0.5117400000000 1.0
C      1  0.5544170000000  0.5388720000000  0.5191780000000 1.0
C      1  0.5544170000000  0.4971730000000  0.4567470000000 1.0
C      1  0.5544170000000  0.4639550000000  0.5240750000000 1.0
C      1  0.4455830000000  0.5388720000000  0.5191780000000 1.0
C      1  0.4455830000000  0.4971730000000  0.4567470000000 1.0
C      1  0.4455830000000  0.4639550000000  0.5240750000000 1.0
C      1  0.5620720000000  0.5318100000000  0.4927890000000 1.0
C      1  0.5620720000000  0.4778500000000  0.4760580000000 1.0
C      1  0.5620720000000  0.4903400000000  0.5311530000000 1.0
C      1  0.4379280000000  0.5318100000000  0.4927890000000 1.0
C      1  0.4379280000000  0.4778500000000  0.4760580000000 1.0
C      1  0.4379280000000  0.4903400000000  0.5311530000000 1.0
C      1  0.4744690000000  0.4713900000000  0.5770050000000 1.0
C      1  0.4744690000000  0.5809940000000  0.4862740000000 1.0
C      1  0.4744690000000  0.4476160000000  0.4367200000000 1.0
C      1  0.5255310000000  0.4713900000000  0.5770050000000 1.0
C      1  0.5255310000000  0.5809940000000  0.4862740000000 1.0
C      1  0.5255310000000  0.4476160000000  0.4367200000000 1.0
C      1  0.5148090000000  0.5346410000000  0.4997220000000 1.0
C      1  0.5148090000000  0.4824390000000  0.4701390000000 1.0
C      1  0.5148090000000  0.4829200000000  0.5301390000000 1.0
C      1  0.4851910000000  0.5346410000000  0.4997220000000 1.0
C      1  0.4851910000000  0.4824390000000  0.4701390000000 1.0
C      1  0.4851910000000  0.4829200000000  0.5301390000000 1.0
END
