TITL C-8703-8361-164 8.32024118645136e-06 125000 -376.521328437675 0 0 60 (C1) n - 1
REM
REM in /home/bkarasulu/CARBON/AIRSS/Generating-Clusters/EDIP-Nigel-Params/Higher-Symm/Box-15A/Only-C60/SD-CG/HFTN-CG
REM
REM
REM
REM
REM
REM ./C.cell (414f73aa93bd7a1190c7fd0f31ff2f98)
REM
REM compiler GCC version 9.2.1 20190827 (Red Hat 9.2.1-1)
REM options -cpp -mtune=generic -march=x86-64 -g -O0 -fpre-include=/usr/include/finclude/math-vector-fortran.h
REM seed 1316753734 -842519605 -1487975204 191072101 1776170310 -1874210309 980394230 1585242752 224180703 69457045 1606323966 -2008179689 -298251471 1546428799 -1624937492 -1495520562 -757055882 562806727 -1426819496 -343993653 265852876 789065762 -94281178 191949367 -1499244207 -1390788174 884556333 -1442437440 -363212567 1848553718 -1932023141 1643925898 -306751226
REM
CELL 1.54180   50.00000   50.00000   50.00000   90.00000   90.00000   90.00000
LATT -1
SFAC C  
C      1  0.5591040000000  0.4843220000000  0.5261740000000 1.0
C      1  0.5485310000000  0.4746620000000  0.4796210000000 1.0
C      1  0.5107230000000  0.4758820000000  0.4469270000000 1.0
C      1  0.4625580000000  0.4790220000000  0.4510690000000 1.0
C      1  0.4402450000000  0.4739950000000  0.4941760000000 1.0
C      1  0.4640570000000  0.4736770000000  0.5361980000000 1.0
C      1  0.5197410000000  0.4802280000000  0.5619050000000 1.0
C      1  0.4860370000000  0.5705800000000  0.5540030000000 1.0
C      1  0.5333340000000  0.5666940000000  0.5463930000000 1.0
C      1  0.5527420000000  0.5738730000000  0.5016060000000 1.0
C      1  0.5350530000000  0.5764550000000  0.4557310000000 1.0
C      1  0.4879260000000  0.5763060000000  0.4437900000000 1.0
C      1  0.4485920000000  0.5763950000000  0.4735890000000 1.0
C      1  0.4484830000000  0.5747230000000  0.5224770000000 1.0
C      1  0.5497420000000  0.5636030000000  0.4755870000000 1.0
C      1  0.5130210000000  0.5640460000000  0.4441170000000 1.0
C      1  0.4645640000000  0.5648330000000  0.4538430000000 1.0
C      1  0.4428220000000  0.5633970000000  0.4976620000000 1.0
C      1  0.4627670000000  0.5609270000000  0.5419880000000 1.0
C      1  0.5097030000000  0.5560240000000  0.5565430000000 1.0
C      1  0.5504370000000  0.5596730000000  0.5256470000000 1.0
C      1  0.4448690000000  0.5182260000000  0.5209210000000 1.0
C      1  0.4783240000000  0.5172090000000  0.5590070000000 1.0
C      1  0.5503440000000  0.5091980000000  0.5405260000000 1.0
C      1  0.5633440000000  0.5212300000000  0.4963250000000 1.0
C      1  0.5363450000000  0.5192520000000  0.4536280000000 1.0
C      1  0.4870440000000  0.5218610000000  0.4412570000000 1.0
C      1  0.4451430000000  0.5215780000000  0.4709740000000 1.0
C      1  0.5133450000000  0.5349160000000  0.4425870000000 1.0
C      1  0.4632030000000  0.5360020000000  0.4520270000000 1.0
C      1  0.4389930000000  0.5344510000000  0.4967110000000 1.0
C      1  0.4587280000000  0.5322540000000  0.5431340000000 1.0
C      1  0.5058090000000  0.5271780000000  0.5569530000000 1.0
C      1  0.5541900000000  0.5315330000000  0.5219470000000 1.0
C      1  0.5533930000000  0.5347580000000  0.4722170000000 1.0
C      1  0.5271110000000  0.5069560000000  0.5585290000000 1.0
C      1  0.5643160000000  0.4916840000000  0.4979130000000 1.0
C      1  0.5338280000000  0.4897570000000  0.4583190000000 1.0
C      1  0.4870140000000  0.4928610000000  0.4427630000000 1.0
C      1  0.4459830000000  0.4922360000000  0.4712080000000 1.0
C      1  0.4429990000000  0.4880050000000  0.5205920000000 1.0
C      1  0.4742970000000  0.4896610000000  0.5567570000000 1.0
C      1  0.4830680000000  0.4647550000000  0.5140860000000 1.0
C      1  0.5236150000000  0.4561670000000  0.5483290000000 1.0
C      1  0.5459220000000  0.4569390000000  0.5270510000000 1.0
C      1  0.5384060000000  0.4516120000000  0.4975140000000 1.0
C      1  0.5000510000000  0.4521050000000  0.4610410000000 1.0
C      1  0.4712390000000  0.4534780000000  0.4623180000000 1.0
C      1  0.4623470000000  0.4508970000000  0.4914380000000 1.0
C      1  0.5203420000000  0.4055080000000  0.5113840000000 1.0
C      1  0.5263590000000  0.4247460000000  0.4912630000000 1.0
C      1  0.5071700000000  0.4249570000000  0.4692410000000 1.0
C      1  0.4829520000000  0.4113250000000  0.4758670000000 1.0
C      1  0.4645380000000  0.4204800000000  0.4955410000000 1.0
C      1  0.4736040000000  0.4126060000000  0.5206820000000 1.0
C      1  0.5004490000000  0.4178650000000  0.5267110000000 1.0
C      1  0.4994260000000  0.5398120000000  0.4994500000000 1.0
C      1  0.4951010000000  0.4884140000000  0.5036900000000 1.0
C      1  0.5001150000000  0.5142540000000  0.5004400000000 1.0
C      1  0.5068920000000  0.4465630000000  0.5245690000000 1.0
END
