TITL C-8706-7473-74 -1.32710012906917e-06 125000 -367.267744852862 0 0 60 (S4) n - 1
REM
REM in /home/bkarasulu/CARBON/AIRSS/Generating-Clusters/EDIP-Nigel-Params/Higher-Symm/Box-15A/Only-C60/SD-CG/HFTN-CG
REM
REM
REM
REM
REM
REM ./C.cell (414f73aa93bd7a1190c7fd0f31ff2f98)
REM
REM compiler GCC version 9.2.1 20190827 (Red Hat 9.2.1-1)
REM options -cpp -mtune=generic -march=x86-64 -g -O0 -fpre-include=/usr/include/finclude/math-vector-fortran.h
REM seed 1326275468 1004523530 765091968 -1105111553 -691914047 231179765 -120093448 1155718832 1169528518 1850271216 1773175843 -1221106148 -632480900 1676905254 1339940840 -846072053 -1634649851 1903020095 948942865 -695891550 -1720388358 -1788764893 -2145384443 158606708 1668104942 -300706512 1401827344 -841093383 -1864304067 -549715161 -1935412718 1864387108 359848413
REM
CELL 1.54180   50.00000   50.00000   50.00000   90.00000   90.00000   90.00000
LATT -1
SFAC C  
C      1  0.5367530000000  0.4780500000000  0.4297100000000 1.0
C      1  0.5700600000000  0.5228470000000  0.5366450000000 1.0
C      1  0.4635860000000  0.4771230000000  0.5701710000000 1.0
C      1  0.4296010000000  0.5219800000000  0.4634740000000 1.0
C      1  0.4904860000000  0.4388060000000  0.5110170000000 1.0
C      1  0.4883590000000  0.5610310000000  0.4901860000000 1.0
C      1  0.5104370000000  0.4390160000000  0.4886580000000 1.0
C      1  0.5107180000000  0.5611470000000  0.5101390000000 1.0
C      1  0.5445930000000  0.5045520000000  0.4266340000000 1.0
C      1  0.5734070000000  0.4964160000000  0.5446150000000 1.0
C      1  0.4553460000000  0.5034870000000  0.5733880000000 1.0
C      1  0.4266540000000  0.4955450000000  0.4553640000000 1.0
C      1  0.5082730000000  0.4642080000000  0.5780880000000 1.0
C      1  0.4215490000000  0.5350320000000  0.5080970000000 1.0
C      1  0.4922660000000  0.4645040000000  0.4217220000000 1.0
C      1  0.5779120000000  0.5362560000000  0.4920930000000 1.0
C      1  0.5208250000000  0.5374430000000  0.4570240000000 1.0
C      1  0.5433550000000  0.4631000000000  0.5210080000000 1.0
C      1  0.4786140000000  0.5368950000000  0.5431740000000 1.0
C      1  0.4572070000000  0.4625620000000  0.4787940000000 1.0
C      1  0.4964910000000  0.5549550000000  0.4620230000000 1.0
C      1  0.5385360000000  0.4454200000000  0.4967600000000 1.0
C      1  0.5026800000000  0.5547990000000  0.5382690000000 1.0
C      1  0.4622930000000  0.4448270000000  0.5029480000000 1.0
C      1  0.5302100000000  0.4701920000000  0.4574200000000 1.0
C      1  0.5422720000000  0.5303890000000  0.5300640000000 1.0
C      1  0.4702450000000  0.4695130000000  0.5424200000000 1.0
C      1  0.4572730000000  0.5299060000000  0.4700960000000 1.0
C      1  0.5047200000000  0.4549030000000  0.4631340000000 1.0
C      1  0.5364030000000  0.5454940000000  0.5044990000000 1.0
C      1  0.4959640000000  0.4546410000000  0.5366250000000 1.0
C      1  0.4629140000000  0.5449620000000  0.4957420000000 1.0
C      1  0.4671900000000  0.5246160000000  0.5181160000000 1.0
C      1  0.4821380000000  0.4750400000000  0.4673110000000 1.0
C      1  0.5324330000000  0.5252050000000  0.4820160000000 1.0
C      1  0.5182380000000  0.4751390000000  0.5325560000000 1.0
C      1  0.4373860000000  0.4838340000000  0.5056400000000 1.0
C      1  0.4941980000000  0.5158010000000  0.4373080000000 1.0
C      1  0.5628510000000  0.4848130000000  0.4942760000000 1.0
C      1  0.5055650000000  0.5155530000000  0.5627760000000 1.0
C      1  0.4396160000000  0.5128450000000  0.5185780000000 1.0
C      1  0.4815580000000  0.4866710000000  0.4396800000000 1.0
C      1  0.5601820000000  0.5138550000000  0.4814930000000 1.0
C      1  0.5186440000000  0.4866300000000  0.5602490000000 1.0
C      1  0.4835250000000  0.4709830000000  0.5891480000000 1.0
C      1  0.4105610000000  0.5280240000000  0.4833830000000 1.0
C      1  0.5169080000000  0.4717100000000  0.4106990000000 1.0
C      1  0.5890060000000  0.5292830000000  0.5167700000000 1.0
C      1  0.5239780000000  0.5233450000000  0.4299140000000 1.0
C      1  0.5703190000000  0.4774900000000  0.5240930000000 1.0
C      1  0.4756740000000  0.5226070000000  0.5702080000000 1.0
C      1  0.4300280000000  0.4765580000000  0.4757850000000 1.0
C      1  0.4380600000000  0.5587310000000  0.5046150000000 1.0
C      1  0.4959880000000  0.4409220000000  0.4383490000000 1.0
C      1  0.5610450000000  0.5596840000000  0.4957000000000 1.0
C      1  0.5049060000000  0.4406620000000  0.5613360000000 1.0
C      1  0.4769290000000  0.5371070000000  0.4498090000000 1.0
C      1  0.5505690000000  0.4632960000000  0.4771110000000 1.0
C      1  0.5225090000000  0.5371830000000  0.5503890000000 1.0
C      1  0.4499920000000  0.4624140000000  0.5226910000000 1.0
END
