TITL C-8701-7969-7 -6.54611106611787e-07 125000 -357.149836420691 0 0 60 (C1) n - 1
REM
REM in /home/bkarasulu/CARBON/AIRSS/Generating-Clusters/EDIP-Nigel-Params/Higher-Symm/Box-15A/Only-C60/SD-CG/HFTN-CG
REM
REM
REM
REM
REM
REM ./C.cell (414f73aa93bd7a1190c7fd0f31ff2f98)
REM
REM compiler GCC version 9.2.1 20190827 (Red Hat 9.2.1-1)
REM options -cpp -mtune=generic -march=x86-64 -g -O0 -fpre-include=/usr/include/finclude/math-vector-fortran.h
REM seed -596709265 -15579457 1972906988 249854863 310321025 -505210152 1308803570 -550660273 2123831553 -996759857 1603540059 2121076144 -773785837 1872986218 672189560 -492780527 1332271452 1697351097 -1259078592 -879592706 -602672526 -1379392121 820443896 -929433313 -1180148322 1552804420 -660664447 -665883666 1841113144 2091399682 1997333735 1921773053 1723833362
REM
CELL 1.54180   50.00000   50.00000   50.00000   90.00000   90.00000   90.00000
LATT -1
SFAC C  
C      1  0.5284230000000  0.4418260000000  0.4933930000000 1.0
C      1  0.4796800000000  0.4383440000000  0.4761380000000 1.0
C      1  0.4897610000000  0.4428880000000  0.5264010000000 1.0
C      1  0.4860190000000  0.4848010000000  0.5132700000000 1.0
C      1  0.5234990000000  0.4802980000000  0.5043040000000 1.0
C      1  0.4884730000000  0.4780690000000  0.4818710000000 1.0
C      1  0.4518500000000  0.5542990000000  0.4912730000000 1.0
C      1  0.5165270000000  0.5580160000000  0.5475440000000 1.0
C      1  0.5324730000000  0.5580180000000  0.4655280000000 1.0
C      1  0.4889130000000  0.5490660000000  0.5455670000000 1.0
C      1  0.5475050000000  0.5490730000000  0.4890840000000 1.0
C      1  0.4671590000000  0.5444860000000  0.4687570000000 1.0
C      1  0.4880260000000  0.5212610000000  0.5533270000000 1.0
C      1  0.5555950000000  0.5217360000000  0.4841520000000 1.0
C      1  0.4582820000000  0.5178320000000  0.4618520000000 1.0
C      1  0.4466960000000  0.4548610000000  0.5088160000000 1.0
C      1  0.5329740000000  0.4551140000000  0.5390590000000 1.0
C      1  0.5166140000000  0.4533480000000  0.4479050000000 1.0
C      1  0.4576820000000  0.4762500000000  0.4329540000000 1.0
C      1  0.4634400000000  0.4795080000000  0.5680290000000 1.0
C      1  0.5799230000000  0.4784400000000  0.4960820000000 1.0
C      1  0.4352430000000  0.5126730000000  0.4784530000000 1.0
C      1  0.5147600000000  0.5148750000000  0.5615970000000 1.0
C      1  0.5482830000000  0.5161900000000  0.4568350000000 1.0
C      1  0.5116790000000  0.5245180000000  0.4808200000000 1.0
C      1  0.4834200000000  0.5279510000000  0.5066810000000 1.0
C      1  0.5155710000000  0.5257080000000  0.5187430000000 1.0
C      1  0.4955050000000  0.5483810000000  0.4705170000000 1.0
C      1  0.4766070000000  0.5543770000000  0.5202870000000 1.0
C      1  0.5323140000000  0.5507260000000  0.5133290000000 1.0
C      1  0.4585790000000  0.4750670000000  0.4717620000000 1.0
C      1  0.4957790000000  0.4787430000000  0.5443420000000 1.0
C      1  0.5442530000000  0.4794130000000  0.4812420000000 1.0
C      1  0.4368510000000  0.4806530000000  0.5091790000000 1.0
C      1  0.5393490000000  0.4801900000000  0.5483810000000 1.0
C      1  0.5207530000000  0.4806710000000  0.4444660000000 1.0
C      1  0.5474060000000  0.4902320000000  0.4445490000000 1.0
C      1  0.4243630000000  0.4868940000000  0.4845840000000 1.0
C      1  0.5235430000000  0.4890960000000  0.5695380000000 1.0
C      1  0.4389670000000  0.5146600000000  0.5462410000000 1.0
C      1  0.5720420000000  0.5128050000000  0.5301330000000 1.0
C      1  0.4925240000000  0.5100320000000  0.4274160000000 1.0
C      1  0.4279430000000  0.5294940000000  0.5255430000000 1.0
C      1  0.5577740000000  0.5317580000000  0.5445170000000 1.0
C      1  0.5101220000000  0.5312120000000  0.4304510000000 1.0
C      1  0.5722650000000  0.5058850000000  0.5024130000000 1.0
C      1  0.4672160000000  0.5029720000000  0.4386730000000 1.0
C      1  0.4635730000000  0.5060170000000  0.5578160000000 1.0
C      1  0.4324170000000  0.5343010000000  0.4982410000000 1.0
C      1  0.5335320000000  0.5368920000000  0.5578090000000 1.0
C      1  0.5334170000000  0.5379040000000  0.4445240000000 1.0
C      1  0.4588050000000  0.5025460000000  0.5145420000000 1.0
C      1  0.5357400000000  0.4997790000000  0.5255430000000 1.0
C      1  0.5030500000000  0.4983160000000  0.4628780000000 1.0
C      1  0.4564940000000  0.4532880000000  0.4505090000000 1.0
C      1  0.4787870000000  0.4573430000000  0.5589360000000 1.0
C      1  0.5630300000000  0.4565620000000  0.4868560000000 1.0
C      1  0.4713900000000  0.4437020000000  0.5040500000000 1.0
C      1  0.5183720000000  0.4401940000000  0.5211170000000 1.0
C      1  0.5087670000000  0.4404450000000  0.4711800000000 1.0
END
