TITL C-8705-8172-194 -0.0517494653838163 125000 -360.542378903199 0 0 60 (C1) n - 1
REM
REM in /home/bkarasulu/CARBON/AIRSS/Generating-Clusters/EDIP-Nigel-Params/Higher-Symm/Box-15A/Only-C60/SD-CG/HFTN-CG
REM
REM
REM
REM
REM
REM ./C.cell (414f73aa93bd7a1190c7fd0f31ff2f98)
REM
REM compiler GCC version 9.2.1 20190827 (Red Hat 9.2.1-1)
REM options -cpp -mtune=generic -march=x86-64 -g -O0 -fpre-include=/usr/include/finclude/math-vector-fortran.h
REM seed -859862169 1073645691 1391044910 -1682662729 -185150253 1328745299 -1040198480 -1495814353 1459622777 1441945867 521156404 -1728473271 -1797511196 719830221 877056537 1508760260 671317381 -1974160778 1142173004 -113992132 -874969366 1929335051 924493857 287318844 141168376 -1507135621 -335696547 -1712635541 -98395540 -601229119 533968251 -85003385 -27021068
REM
CELL 1.54180   50.00000   50.00000   50.00000   90.00000   90.00000   90.00000
LATT -1
SFAC C  
C      1  0.4883030000000  0.5539950000000  0.5069490000000 1.0
C      1  0.5151200000000  0.4353730000000  0.5070740000000 1.0
C      1  0.5482550000000  0.4752150000000  0.4783220000000 1.0
C      1  0.4404870000000  0.5365660000000  0.4688170000000 1.0
C      1  0.4612750000000  0.4419600000000  0.5169500000000 1.0
C      1  0.5341290000000  0.5550480000000  0.5232200000000 1.0
C      1  0.5057060000000  0.5628730000000  0.5281200000000 1.0
C      1  0.4910420000000  0.4429780000000  0.5217520000000 1.0
C      1  0.5191960000000  0.5441440000000  0.4721270000000 1.0
C      1  0.4617810000000  0.4402640000000  0.4680620000000 1.0
C      1  0.5188450000000  0.4947010000000  0.5184340000000 1.0
C      1  0.4723730000000  0.4940930000000  0.5382210000000 1.0
C      1  0.4498040000000  0.4515650000000  0.4908980000000 1.0
C      1  0.5419130000000  0.5457340000000  0.4951560000000 1.0
C      1  0.4954350000000  0.4543540000000  0.5482870000000 1.0
C      1  0.4958500000000  0.5566680000000  0.5538620000000 1.0
C      1  0.5625250000000  0.4861990000000  0.5349220000000 1.0
C      1  0.4435260000000  0.5031580000000  0.5340510000000 1.0
C      1  0.5247770000000  0.5155650000000  0.5410310000000 1.0
C      1  0.4694300000000  0.4671360000000  0.5524170000000 1.0
C      1  0.4802840000000  0.4594800000000  0.4597880000000 1.0
C      1  0.5171640000000  0.5459190000000  0.4405580000000 1.0
C      1  0.4761920000000  0.5612970000000  0.4595880000000 1.0
C      1  0.5161730000000  0.4268790000000  0.4555960000000 1.0
C      1  0.4577140000000  0.5306080000000  0.5393650000000 1.0
C      1  0.5434350000000  0.4653220000000  0.5381880000000 1.0
C      1  0.4382140000000  0.4789740000000  0.4873310000000 1.0
C      1  0.5555880000000  0.5190650000000  0.4970350000000 1.0
C      1  0.4736260000000  0.5166000000000  0.4372790000000 1.0
C      1  0.5222490000000  0.4749740000000  0.4425360000000 1.0
C      1  0.4827190000000  0.5320730000000  0.5579600000000 1.0
C      1  0.5175130000000  0.4734460000000  0.5510530000000 1.0
C      1  0.4866840000000  0.5441920000000  0.4395190000000 1.0
C      1  0.5059180000000  0.4524810000000  0.4503160000000 1.0
C      1  0.5116080000000  0.5134560000000  0.4736420000000 1.0
C      1  0.4741530000000  0.4881600000000  0.4636700000000 1.0
C      1  0.4358940000000  0.4900430000000  0.4600720000000 1.0
C      1  0.5342030000000  0.4993820000000  0.4908490000000 1.0
C      1  0.5677120000000  0.5092970000000  0.5209330000000 1.0
C      1  0.4323080000000  0.4950400000000  0.5096270000000 1.0
C      1  0.5430030000000  0.5378150000000  0.5441130000000 1.0
C      1  0.4485550000000  0.4516370000000  0.5405110000000 1.0
C      1  0.4958340000000  0.5602880000000  0.4799250000000 1.0
C      1  0.5139860000000  0.4227610000000  0.4822710000000 1.0
C      1  0.5586810000000  0.4539050000000  0.4934860000000 1.0
C      1  0.4560070000000  0.5270320000000  0.4908760000000 1.0
C      1  0.5397490000000  0.4496840000000  0.5136250000000 1.0
C      1  0.4613290000000  0.5454270000000  0.5129830000000 1.0
C      1  0.5490340000000  0.4734210000000  0.4503660000000 1.0
C      1  0.4446650000000  0.5163920000000  0.4493040000000 1.0
C      1  0.5233560000000  0.5118030000000  0.6130370000000 1.0
C      1  0.5097180000000  0.5023870000000  0.4441700000000 1.0
C      1  0.5248320000000  0.5207420000000  0.4000860000000 1.0
C      1  0.5273600000000  0.5181340000000  0.3747410000000 1.0
C      1  0.5265840000000  0.5213460000000  0.4276090000000 1.0
C      1  0.5040340000000  0.5095220000000  0.5619010000000 1.0
C      1  0.5147020000000  0.5120870000000  0.5880380000000 1.0
C      1  0.4831090000000  0.5066890000000  0.4870330000000 1.0
C      1  0.5322790000000  0.5126520000000  0.6369850000000 1.0
C      1  0.4895470000000  0.4929210000000  0.5128170000000 1.0
END
