TITL C-8704-7456-182 -2.08042904661846e-06 125000 -376.230263378904 0 0 60 (C1) n - 1
REM
REM in /home/bkarasulu/CARBON/AIRSS/Generating-Clusters/EDIP-Nigel-Params/Higher-Symm/Box-15A/Only-C60/SD-CG/HFTN-CG
REM
REM
REM
REM
REM
REM ./C.cell (414f73aa93bd7a1190c7fd0f31ff2f98)
REM
REM compiler GCC version 9.2.1 20190827 (Red Hat 9.2.1-1)
REM options -cpp -mtune=generic -march=x86-64 -g -O0 -fpre-include=/usr/include/finclude/math-vector-fortran.h
REM seed 10483761 -1314390198 1370475967 -595376820 -2094227739 1841151076 1169304173 -1089640055 1709438926 -1809830896 -313220162 801462512 1940722983 389525109 1931709450 -739616420 -1313161591 -124102801 532005692 844932251 1594826519 -31954340 149866256 1485597759 -1692072821 -1180134098 425371767 -171759584 1855030784 -1098330797 -157633185 -1186739382 275512881
REM
CELL 1.54180   50.00000   50.00000   50.00000   90.00000   90.00000   90.00000
LATT -1
SFAC C  
C      1  0.5213890000000  0.5197290000000  0.4914070000000 1.0
C      1  0.4584840000000  0.5462190000000  0.5268470000000 1.0
C      1  0.4478600000000  0.4663880000000  0.4500980000000 1.0
C      1  0.5149110000000  0.4522810000000  0.5156220000000 1.0
C      1  0.5642880000000  0.5277780000000  0.4694040000000 1.0
C      1  0.4889680000000  0.5252410000000  0.5724780000000 1.0
C      1  0.4905570000000  0.5727690000000  0.5030930000000 1.0
C      1  0.4875760000000  0.4314450000000  0.5513460000000 1.0
C      1  0.4308340000000  0.5113530000000  0.5062670000000 1.0
C      1  0.5323880000000  0.5114980000000  0.5595220000000 1.0
C      1  0.5186080000000  0.4486700000000  0.4666700000000 1.0
C      1  0.4752120000000  0.4633930000000  0.4446400000000 1.0
C      1  0.5221520000000  0.4881310000000  0.4348330000000 1.0
C      1  0.5340090000000  0.5161380000000  0.4333850000000 1.0
C      1  0.5627390000000  0.5049940000000  0.4874740000000 1.0
C      1  0.5567030000000  0.4583080000000  0.4961330000000 1.0
C      1  0.4739570000000  0.4676380000000  0.5042730000000 1.0
C      1  0.4783760000000  0.4203010000000  0.5060190000000 1.0
C      1  0.5147830000000  0.4879620000000  0.5498280000000 1.0
C      1  0.5510140000000  0.5210340000000  0.5381570000000 1.0
C      1  0.5151760000000  0.5344850000000  0.5674540000000 1.0
C      1  0.5575750000000  0.4789240000000  0.4738730000000 1.0
C      1  0.5457510000000  0.5497300000000  0.5325010000000 1.0
C      1  0.4894100000000  0.4884590000000  0.4370160000000 1.0
C      1  0.4961230000000  0.5500150000000  0.5248270000000 1.0
C      1  0.5001640000000  0.4776590000000  0.5055060000000 1.0
C      1  0.4565620000000  0.5191860000000  0.4669550000000 1.0
C      1  0.4801410000000  0.5597330000000  0.4578090000000 1.0
C      1  0.4613930000000  0.5622180000000  0.5019660000000 1.0
C      1  0.4325370000000  0.4611180000000  0.5222910000000 1.0
C      1  0.5616070000000  0.5545790000000  0.4802140000000 1.0
C      1  0.5186230000000  0.5554280000000  0.5456140000000 1.0
C      1  0.4962290000000  0.4304210000000  0.5250480000000 1.0
C      1  0.4748390000000  0.4560750000000  0.5544820000000 1.0
C      1  0.4474000000000  0.5196670000000  0.5272480000000 1.0
C      1  0.4730320000000  0.5140340000000  0.4425560000000 1.0
C      1  0.5602500000000  0.5211610000000  0.4423260000000 1.0
C      1  0.5309970000000  0.4647970000000  0.5377030000000 1.0
C      1  0.5544990000000  0.4738850000000  0.5222160000000 1.0
C      1  0.5522370000000  0.5581660000000  0.5061730000000 1.0
C      1  0.4880960000000  0.4452710000000  0.4641970000000 1.0
C      1  0.4592030000000  0.5476640000000  0.4749460000000 1.0
C      1  0.4911830000000  0.4775100000000  0.5683560000000 1.0
C      1  0.5111490000000  0.4931730000000  0.4814430000000 1.0
C      1  0.4663790000000  0.4990460000000  0.5380470000000 1.0
C      1  0.5248050000000  0.5473510000000  0.4742240000000 1.0
C      1  0.5539660000000  0.5023360000000  0.5155020000000 1.0
C      1  0.4337830000000  0.4527480000000  0.4949430000000 1.0
C      1  0.4351540000000  0.4734920000000  0.4740010000000 1.0
C      1  0.5021770000000  0.5239360000000  0.5126080000000 1.0
C      1  0.4596600000000  0.4695290000000  0.5303290000000 1.0
C      1  0.4383820000000  0.5017790000000  0.4812620000000 1.0
C      1  0.4739880000000  0.5021050000000  0.5675170000000 1.0
C      1  0.4694880000000  0.4420790000000  0.4894200000000 1.0
C      1  0.5316940000000  0.4417630000000  0.4929800000000 1.0
C      1  0.5283190000000  0.4772470000000  0.4629480000000 1.0
C      1  0.4900650000000  0.5378320000000  0.4400070000000 1.0
C      1  0.5141890000000  0.5265410000000  0.4532220000000 1.0
C      1  0.4963590000000  0.4989030000000  0.5268080000000 1.0
C      1  0.5026040000000  0.5686870000000  0.4759680000000 1.0
END
