TITL C-8701-7969-88 -1.26806140266415e-07 125000 -372.669047198933 0 0 60 (C2) n - 1
REM
REM in /home/bkarasulu/CARBON/AIRSS/Generating-Clusters/EDIP-Nigel-Params/Higher-Symm/Box-15A/Only-C60/SD-CG/HFTN-CG
REM
REM
REM
REM
REM
REM ./C.cell (414f73aa93bd7a1190c7fd0f31ff2f98)
REM
REM compiler GCC version 9.2.1 20190827 (Red Hat 9.2.1-1)
REM options -cpp -mtune=generic -march=x86-64 -g -O0 -fpre-include=/usr/include/finclude/math-vector-fortran.h
REM seed -2055441030 370253374 1861760333 -1791699220 -1129637838 -405741849 237195121 1274814209 -583688976 1266031308 731650456 -853935780 1359309554 -820188837 529522012 400997110 -892124721 1164953687 1614453742 1925905281 -902660377 -1974620780 1663719516 -833470268 -2073548482 564313080 -19080719 -1716066055 -1094151367 748801843 -1019001917 1096239389 -151658057
REM
CELL 1.54180   50.00000   50.00000   50.00000   90.00000   90.00000   90.00000
LATT -1
SFAC C  
C      1  0.5426110000000  0.5113270000000  0.4600210000000 1.0
C      1  0.4867570000000  0.5099640000000  0.4433270000000 1.0
C      1  0.4440550000000  0.5127970000000  0.4829500000000 1.0
C      1  0.4573900000000  0.5113280000000  0.5399790000000 1.0
C      1  0.5132430000000  0.5099630000000  0.5566730000000 1.0
C      1  0.5559460000000  0.5127940000000  0.5170500000000 1.0
C      1  0.5670080000000  0.5023390000000  0.4722980000000 1.0
C      1  0.5093000000000  0.4988460000000  0.4292960000000 1.0
C      1  0.4429090000000  0.5014110000000  0.4564470000000 1.0
C      1  0.4329920000000  0.5023420000000  0.5277020000000 1.0
C      1  0.4907000000000  0.4988450000000  0.5707040000000 1.0
C      1  0.5570910000000  0.5014070000000  0.5435530000000 1.0
C      1  0.5201040000000  0.5366930000000  0.5683870000000 1.0
C      1  0.5681560000000  0.5400620000000  0.5167710000000 1.0
C      1  0.5480870000000  0.5383370000000  0.4482900000000 1.0
C      1  0.4798980000000  0.5366950000000  0.4316130000000 1.0
C      1  0.4318460000000  0.5400660000000  0.4832300000000 1.0
C      1  0.4519140000000  0.5383380000000  0.5517110000000 1.0
C      1  0.5690400000000  0.4935530000000  0.4984180000000 1.0
C      1  0.5329480000000  0.4902480000000  0.4408790000000 1.0
C      1  0.4642420000000  0.4903100000000  0.4425310000000 1.0
C      1  0.4309590000000  0.4935560000000  0.5015820000000 1.0
C      1  0.4670520000000  0.4902490000000  0.5591200000000 1.0
C      1  0.5357580000000  0.4903080000000  0.5574680000000 1.0
C      1  0.5694370000000  0.5529650000000  0.4922350000000 1.0
C      1  0.5285190000000  0.5501260000000  0.4327260000000 1.0
C      1  0.4576490000000  0.5500520000000  0.4413290000000 1.0
C      1  0.4305650000000  0.5529680000000  0.5077660000000 1.0
C      1  0.4714830000000  0.5501270000000  0.5672750000000 1.0
C      1  0.5423540000000  0.5500490000000  0.5586720000000 1.0
C      1  0.5576150000000  0.4685290000000  0.5017230000000 1.0
C      1  0.5311010000000  0.4647360000000  0.4521090000000 1.0
C      1  0.4715370000000  0.4645230000000  0.4504480000000 1.0
C      1  0.4423830000000  0.4685320000000  0.4982760000000 1.0
C      1  0.4688970000000  0.4647370000000  0.5478900000000 1.0
C      1  0.5284610000000  0.4645210000000  0.5495510000000 1.0
C      1  0.5187770000000  0.4524400000000  0.4751240000000 1.0
C      1  0.4827070000000  0.4522190000000  0.4740470000000 1.0
C      1  0.4691710000000  0.4610940000000  0.4990310000000 1.0
C      1  0.4812200000000  0.4524400000000  0.5248760000000 1.0
C      1  0.5172900000000  0.4522180000000  0.5259520000000 1.0
C      1  0.5308270000000  0.4610920000000  0.5009690000000 1.0
C      1  0.4767530000000  0.4108860000000  0.4995280000000 1.0
C      1  0.4845900000000  0.4218680000000  0.5245690000000 1.0
C      1  0.5144380000000  0.4215660000000  0.5253070000000 1.0
C      1  0.5232420000000  0.4108850000000  0.5004700000000 1.0
C      1  0.5154060000000  0.4218680000000  0.4754290000000 1.0
C      1  0.4855580000000  0.4215670000000  0.4746920000000 1.0
C      1  0.5272350000000  0.5153850000000  0.5085970000000 1.0
C      1  0.5210790000000  0.5144970000000  0.4806730000000 1.0
C      1  0.4938500000000  0.5137890000000  0.4721670000000 1.0
C      1  0.4727650000000  0.5153860000000  0.4914030000000 1.0
C      1  0.4789220000000  0.5144970000000  0.5193270000000 1.0
C      1  0.5061510000000  0.5137880000000  0.5278330000000 1.0
C      1  0.5620680000000  0.5539260000000  0.4664800000000 1.0
C      1  0.5026690000000  0.5513280000000  0.4261260000000 1.0
C      1  0.4397410000000  0.5541810000000  0.4607920000000 1.0
C      1  0.4379340000000  0.5539290000000  0.5335210000000 1.0
C      1  0.4973340000000  0.5513270000000  0.5738750000000 1.0
C      1  0.5602620000000  0.5541770000000  0.5392090000000 1.0
END
