TITL C-8705-8172-171 -3.22791374414944e-07 125000 -362.010800226955 0 0 60 (C1) n - 1
REM
REM in /home/bkarasulu/CARBON/AIRSS/Generating-Clusters/EDIP-Nigel-Params/Higher-Symm/Box-15A/Only-C60/SD-CG/HFTN-CG
REM
REM
REM
REM
REM
REM ./C.cell (414f73aa93bd7a1190c7fd0f31ff2f98)
REM
REM compiler GCC version 9.2.1 20190827 (Red Hat 9.2.1-1)
REM options -cpp -mtune=generic -march=x86-64 -g -O0 -fpre-include=/usr/include/finclude/math-vector-fortran.h
REM seed 273489763 499873573 2105735909 2002162267 -743474838 -1371807728 1107335958 -754945527 401130361 -87044880 973720353 2091016593 2042368580 -1273464124 -1947367215 1063526389 1917832162 -1006689059 2010412763 -823735162 -1411256261 -533890407 -340005709 1385168105 1906210998 1058823799 688092281 736864538 -807124417 -885404052 48205626 979193083 -1501515557
REM
CELL 1.54180   50.00000   50.00000   50.00000   90.00000   90.00000   90.00000
LATT -1
SFAC C  
C      1  0.4957640000000  0.5282530000000  0.5335490000000 1.0
C      1  0.5725060000000  0.4984470000000  0.5428270000000 1.0
C      1  0.5027590000000  0.5287120000000  0.4190740000000 1.0
C      1  0.5106140000000  0.5519180000000  0.4371630000000 1.0
C      1  0.5481710000000  0.5359610000000  0.5529550000000 1.0
C      1  0.4757870000000  0.5769760000000  0.4951450000000 1.0
C      1  0.5459970000000  0.4519700000000  0.4628630000000 1.0
C      1  0.4376460000000  0.5333820000000  0.4823940000000 1.0
C      1  0.4467240000000  0.4694800000000  0.5355330000000 1.0
C      1  0.5611900000000  0.4767540000000  0.5286450000000 1.0
C      1  0.4927690000000  0.4345570000000  0.4632980000000 1.0
C      1  0.5140360000000  0.5494080000000  0.5095240000000 1.0
C      1  0.4995720000000  0.4818740000000  0.5722900000000 1.0
C      1  0.4877850000000  0.4998620000000  0.4733410000000 1.0
C      1  0.5159770000000  0.5038960000000  0.5337470000000 1.0
C      1  0.5050310000000  0.4339690000000  0.5492190000000 1.0
C      1  0.4702110000000  0.4918590000000  0.4283820000000 1.0
C      1  0.4564120000000  0.4648980000000  0.4710730000000 1.0
C      1  0.5329460000000  0.5121020000000  0.5582920000000 1.0
C      1  0.4991320000000  0.4855250000000  0.4970850000000 1.0
C      1  0.4699640000000  0.4821230000000  0.5638890000000 1.0
C      1  0.5214930000000  0.5077890000000  0.4214170000000 1.0
C      1  0.4747590000000  0.5197470000000  0.4265970000000 1.0
C      1  0.5158620000000  0.5141140000000  0.4690660000000 1.0
C      1  0.4325080000000  0.5062150000000  0.4831050000000 1.0
C      1  0.4588700000000  0.5419850000000  0.5009290000000 1.0
C      1  0.4682040000000  0.5209910000000  0.5212140000000 1.0
C      1  0.5509400000000  0.4839360000000  0.5017080000000 1.0
C      1  0.5072750000000  0.4317030000000  0.5203120000000 1.0
C      1  0.4663150000000  0.4496750000000  0.5338300000000 1.0
C      1  0.4712210000000  0.4934760000000  0.5084370000000 1.0
C      1  0.5121430000000  0.4716650000000  0.5457070000000 1.0
C      1  0.4988260000000  0.4584830000000  0.4498240000000 1.0
C      1  0.4633160000000  0.5114630000000  0.5643790000000 1.0
C      1  0.5702410000000  0.5035000000000  0.4901390000000 1.0
C      1  0.4553230000000  0.5688040000000  0.5116590000000 1.0
C      1  0.4731980000000  0.4425060000000  0.4823380000000 1.0
C      1  0.4481310000000  0.5196870000000  0.5423920000000 1.0
C      1  0.5417140000000  0.4580870000000  0.4898430000000 1.0
C      1  0.5616760000000  0.5267330000000  0.5055140000000 1.0
C      1  0.5096130000000  0.5103300000000  0.5773560000000 1.0
C      1  0.4462610000000  0.4834290000000  0.4932480000000 1.0
C      1  0.4803790000000  0.4450140000000  0.5577770000000 1.0
C      1  0.5295920000000  0.4978850000000  0.4464020000000 1.0
C      1  0.5408880000000  0.4580350000000  0.5394780000000 1.0
C      1  0.5420480000000  0.5490620000000  0.4681390000000 1.0
C      1  0.4972880000000  0.5594850000000  0.4876930000000 1.0
C      1  0.4777450000000  0.4789870000000  0.4535160000000 1.0
C      1  0.5674890000000  0.5251640000000  0.5346420000000 1.0
C      1  0.5252800000000  0.5009020000000  0.5040720000000 1.0
C      1  0.5386420000000  0.5416940000000  0.4948880000000 1.0
C      1  0.4885640000000  0.5272280000000  0.5639600000000 1.0
C      1  0.4695250000000  0.5336140000000  0.4517120000000 1.0
C      1  0.4970420000000  0.5417340000000  0.4621470000000 1.0
C      1  0.5380700000000  0.5550440000000  0.4420040000000 1.0
C      1  0.5350560000000  0.4414020000000  0.5142770000000 1.0
C      1  0.5267220000000  0.4678760000000  0.4492260000000 1.0
C      1  0.4833880000000  0.4464300000000  0.5101250000000 1.0
C      1  0.4435790000000  0.5433940000000  0.4572060000000 1.0
C      1  0.4298220000000  0.4708040000000  0.5134320000000 1.0
END
