TITL C-8704-7456-139 2.81084399374796e-07 125000 -364.967073875115 0 0 60 (Ci) n - 1
REM
REM in /home/bkarasulu/CARBON/AIRSS/Generating-Clusters/EDIP-Nigel-Params/Higher-Symm/Box-15A/Only-C60/SD-CG/HFTN-CG
REM
REM
REM
REM
REM
REM ./C.cell (414f73aa93bd7a1190c7fd0f31ff2f98)
REM
REM compiler GCC version 9.2.1 20190827 (Red Hat 9.2.1-1)
REM options -cpp -mtune=generic -march=x86-64 -g -O0 -fpre-include=/usr/include/finclude/math-vector-fortran.h
REM seed 138308681 -1610191301 -708114660 -1248992967 -690480653 254097632 -688482247 -641529253 423518423 -1768281419 956283452 -484255578 1472957565 308363091 1610999312 -2122530162 1855655652 -725573945 -1661343137 1085656289 -268195397 -377573285 -789185112 -124410819 1912237504 -972238272 -1658117816 1598614633 1119227354 1868700379 -2053026650 -1513715185 1865005443
REM
CELL 1.54180   50.00000   50.00000   50.00000   90.00000   90.00000   90.00000
LATT -1
SFAC C  
C      1  0.5450640000000  0.4888990000000  0.4442300000000 1.0
C      1  0.4549360000000  0.5111010000000  0.5557700000000 1.0
C      1  0.5685610000000  0.4687450000000  0.5133380000000 1.0
C      1  0.4314390000000  0.5312550000000  0.4866620000000 1.0
C      1  0.5652610000000  0.4971700000000  0.5143920000000 1.0
C      1  0.4347390000000  0.5028300000000  0.4856080000000 1.0
C      1  0.4430770000000  0.5361660000000  0.5135740000000 1.0
C      1  0.5569230000000  0.4638340000000  0.4864260000000 1.0
C      1  0.4520150000000  0.4326000000000  0.4950960000000 1.0
C      1  0.5479850000000  0.5674000000000  0.5049040000000 1.0
C      1  0.4371250000000  0.5189100000000  0.5351960000000 1.0
C      1  0.5628750000000  0.4810900000000  0.4648040000000 1.0
C      1  0.5185610000000  0.5253040000000  0.5482030000000 1.0
C      1  0.4814390000000  0.4746960000000  0.4517970000000 1.0
C      1  0.4888270000000  0.4124300000000  0.5172690000000 1.0
C      1  0.5111730000000  0.5875700000000  0.4827310000000 1.0
C      1  0.5070150000000  0.4371200000000  0.4646430000000 1.0
C      1  0.4929850000000  0.5628800000000  0.5353570000000 1.0
C      1  0.5236890000000  0.4852130000000  0.5232080000000 1.0
C      1  0.4763110000000  0.5147870000000  0.4767920000000 1.0
C      1  0.4751040000000  0.4804180000000  0.5070330000000 1.0
C      1  0.5248960000000  0.5195820000000  0.4929670000000 1.0
C      1  0.4732260000000  0.5308390000000  0.5633970000000 1.0
C      1  0.5267740000000  0.4691610000000  0.4366030000000 1.0
C      1  0.5557110000000  0.5445100000000  0.5190070000000 1.0
C      1  0.4442890000000  0.4554900000000  0.4809930000000 1.0
C      1  0.5543250000000  0.5205800000000  0.5020600000000 1.0
C      1  0.4456750000000  0.4794200000000  0.4979400000000 1.0
C      1  0.5127800000000  0.4262830000000  0.5124880000000 1.0
C      1  0.4872200000000  0.5737170000000  0.4875120000000 1.0
C      1  0.5259030000000  0.4802070000000  0.5525670000000 1.0
C      1  0.4740970000000  0.5197930000000  0.4474330000000 1.0
C      1  0.4567280000000  0.4606320000000  0.4563340000000 1.0
C      1  0.5432720000000  0.5393680000000  0.5436660000000 1.0
C      1  0.5367800000000  0.5767530000000  0.4812220000000 1.0
C      1  0.4632200000000  0.4232470000000  0.5187780000000 1.0
C      1  0.5386170000000  0.5589130000000  0.4601040000000 1.0
C      1  0.4613830000000  0.4410870000000  0.5398960000000 1.0
C      1  0.5115430000000  0.4452510000000  0.4908050000000 1.0
C      1  0.4884570000000  0.5547490000000  0.5091950000000 1.0
C      1  0.5281910000000  0.4693740000000  0.4950280000000 1.0
C      1  0.4718090000000  0.5306260000000  0.5049720000000 1.0
C      1  0.4785040000000  0.4641300000000  0.5399000000000 1.0
C      1  0.5214960000000  0.5358700000000  0.4601000000000 1.0
C      1  0.5521400000000  0.4520630000000  0.5303990000000 1.0
C      1  0.4478600000000  0.5479370000000  0.4696010000000 1.0
C      1  0.5111170000000  0.5117230000000  0.5215430000000 1.0
C      1  0.4888830000000  0.4882770000000  0.4784570000000 1.0
C      1  0.5183980000000  0.4925980000000  0.4793520000000 1.0
C      1  0.4816020000000  0.5074020000000  0.5206480000000 1.0
C      1  0.4656230000000  0.4851430000000  0.5549780000000 1.0
C      1  0.5343770000000  0.5148570000000  0.4450220000000 1.0
C      1  0.5071600000000  0.4566790000000  0.5524790000000 1.0
C      1  0.4928400000000  0.5433210000000  0.4475210000000 1.0
C      1  0.5035330000000  0.4560500000000  0.4446960000000 1.0
C      1  0.4964670000000  0.5439500000000  0.5553040000000 1.0
C      1  0.5264580000000  0.4388510000000  0.5361570000000 1.0
C      1  0.4735420000000  0.5611490000000  0.4638430000000 1.0
C      1  0.5202230000000  0.5035930000000  0.5678110000000 1.0
C      1  0.4797770000000  0.4964070000000  0.4321890000000 1.0
END
