TITL C-8706-7473-88 -3.15955973284659e-06 125000 -352.052941959008 0 0 60 (C2) n - 1
REM
REM in /home/bkarasulu/CARBON/AIRSS/Generating-Clusters/EDIP-Nigel-Params/Higher-Symm/Box-15A/Only-C60/SD-CG/HFTN-CG
REM
REM
REM
REM
REM
REM ./C.cell (414f73aa93bd7a1190c7fd0f31ff2f98)
REM
REM compiler GCC version 9.2.1 20190827 (Red Hat 9.2.1-1)
REM options -cpp -mtune=generic -march=x86-64 -g -O0 -fpre-include=/usr/include/finclude/math-vector-fortran.h
REM seed -473859572 498256871 709723848 -1289905353 608724671 -46024043 -2142501076 1864637903 488736600 1425327408 -830295053 -1414498156 -1564227684 975650517 -993819914 523245399 241900172 994169344 -452841574 -1504458286 529785507 642320984 471851083 -720134160 49553901 886727502 -1416209391 -853359343 -1801059759 -1556830047 1564022546 -659083895 1096527729
REM
CELL 1.54180   50.00000   50.00000   50.00000   90.00000   90.00000   90.00000
LATT -1
SFAC C  
C      1  0.5257640000000  0.5102000000000  0.4739740000000 1.0
C      1  0.5278540000000  0.4817660000000  0.4773610000000 1.0
C      1  0.5151000000000  0.4752550000000  0.5030550000000 1.0
C      1  0.5257650000000  0.4897980000000  0.5260250000000 1.0
C      1  0.5278560000000  0.5182320000000  0.5226380000000 1.0
C      1  0.5151020000000  0.5247440000000  0.4969440000000 1.0
C      1  0.4706590000000  0.5118510000000  0.4735170000000 1.0
C      1  0.4701650000000  0.4828580000000  0.4770490000000 1.0
C      1  0.4827140000000  0.4751780000000  0.5028250000000 1.0
C      1  0.4706590000000  0.4881510000000  0.5264840000000 1.0
C      1  0.4701670000000  0.5171440000000  0.5229520000000 1.0
C      1  0.4827160000000  0.5248230000000  0.4971750000000 1.0
C      1  0.5642930000000  0.4576850000000  0.4844300000000 1.0
C      1  0.5679200000000  0.4532770000000  0.5309250000000 1.0
C      1  0.5796880000000  0.5005990000000  0.5435840000000 1.0
C      1  0.5642960000000  0.5423110000000  0.5155670000000 1.0
C      1  0.5679220000000  0.5467180000000  0.4690720000000 1.0
C      1  0.5796870000000  0.4993960000000  0.4564130000000 1.0
C      1  0.4358620000000  0.4546980000000  0.4794870000000 1.0
C      1  0.4323550000000  0.4539400000000  0.5262090000000 1.0
C      1  0.4258260000000  0.5014200000000  0.5465580000000 1.0
C      1  0.4358660000000  0.5453070000000  0.5205160000000 1.0
C      1  0.4323580000000  0.5460650000000  0.4737940000000 1.0
C      1  0.4258240000000  0.4985850000000  0.4534450000000 1.0
C      1  0.4871850000000  0.4393750000000  0.4762830000000 1.0
C      1  0.4839770000000  0.4429430000000  0.5347950000000 1.0
C      1  0.4855300000000  0.5041760000000  0.5666850000000 1.0
C      1  0.4871900000000  0.5606260000000  0.5237170000000 1.0
C      1  0.4839790000000  0.5570580000000  0.4652060000000 1.0
C      1  0.4855280000000  0.4958250000000  0.4333160000000 1.0
C      1  0.5150520000000  0.4357920000000  0.4807710000000 1.0
C      1  0.5119870000000  0.4477210000000  0.5382540000000 1.0
C      1  0.5126130000000  0.5129800000000  0.5656030000000 1.0
C      1  0.5150580000000  0.5642070000000  0.5192280000000 1.0
C      1  0.5119890000000  0.5522780000000  0.4617460000000 1.0
C      1  0.5126100000000  0.4870190000000  0.4343970000000 1.0
C      1  0.5542550000000  0.5532300000000  0.4921940000000 1.0
C      1  0.5789590000000  0.5259650000000  0.4564960000000 1.0
C      1  0.5704270000000  0.4764840000000  0.4664270000000 1.0
C      1  0.5542520000000  0.4467660000000  0.5078040000000 1.0
C      1  0.5789590000000  0.4740290000000  0.5435010000000 1.0
C      1  0.5704300000000  0.5235120000000  0.5335700000000 1.0
C      1  0.4452300000000  0.5552150000000  0.4964250000000 1.0
C      1  0.4308240000000  0.5243590000000  0.4582430000000 1.0
C      1  0.4298070000000  0.4734340000000  0.4613960000000 1.0
C      1  0.4452270000000  0.4447890000000  0.5035770000000 1.0
C      1  0.4308240000000  0.4756460000000  0.5417590000000 1.0
C      1  0.4298100000000  0.5265710000000  0.5386060000000 1.0
C      1  0.5243950000000  0.5534480000000  0.4919100000000 1.0
C      1  0.5152600000000  0.5228280000000  0.4493800000000 1.0
C      1  0.5156220000000  0.4656190000000  0.4555390000000 1.0
C      1  0.5243910000000  0.4465500000000  0.5080890000000 1.0
C      1  0.5152610000000  0.4771710000000  0.5506190000000 1.0
C      1  0.5156260000000  0.5343800000000  0.5444610000000 1.0
C      1  0.4748010000000  0.5541200000000  0.4946250000000 1.0
C      1  0.4829810000000  0.5220070000000  0.4483200000000 1.0
C      1  0.4828800000000  0.4647240000000  0.4565590000000 1.0
C      1  0.4747970000000  0.4458810000000  0.5053760000000 1.0
C      1  0.4829820000000  0.4779940000000  0.5516800000000 1.0
C      1  0.4828840000000  0.5352770000000  0.5434420000000 1.0
END
