TITL C-8700-8172-230 -5.25369990903947e-07 125000 -367.433266785001 0 0 60 (Ci) n - 1
REM
REM in /home/bkarasulu/CARBON/AIRSS/Generating-Clusters/EDIP-Nigel-Params/Higher-Symm/Box-15A/Only-C60/SD-CG/HFTN-CG
REM
REM
REM
REM
REM
REM ./C.cell (414f73aa93bd7a1190c7fd0f31ff2f98)
REM
REM compiler GCC version 9.2.1 20190827 (Red Hat 9.2.1-1)
REM options -cpp -mtune=generic -march=x86-64 -g -O0 -fpre-include=/usr/include/finclude/math-vector-fortran.h
REM seed -28498553 1239332132 -1421930433 63795120 -878366764 -1780908186 -1017752868 1879042873 1319409081 42916928 -1552977078 1927818729 1322486313 -1484605781 -2080859964 -1861247687 -998904963 -1598513527 -2128595191 1820570097 1277004473 551431146 -784952472 758406571 1141280818 685747425 -833542295 -809789319 844740192 -1378418720 973695752 1778066447 2101851080
REM
CELL 1.54180   50.00000   50.00000   50.00000   90.00000   90.00000   90.00000
LATT -1
SFAC C  
C      1  0.5664290000000  0.5071900000000  0.5342410000000 1.0
C      1  0.4335710000000  0.4928100000000  0.4657590000000 1.0
C      1  0.4652260000000  0.4703280000000  0.5448180000000 1.0
C      1  0.5347740000000  0.5296720000000  0.4551820000000 1.0
C      1  0.5221820000000  0.5112680000000  0.5651720000000 1.0
C      1  0.4778180000000  0.4887320000000  0.4348280000000 1.0
C      1  0.4881170000000  0.5362440000000  0.4414180000000 1.0
C      1  0.5118830000000  0.4637560000000  0.5585820000000 1.0
C      1  0.4431110000000  0.5201940000000  0.4558380000000 1.0
C      1  0.5568890000000  0.4798060000000  0.5441620000000 1.0
C      1  0.4965500000000  0.4299080000000  0.4764010000000 1.0
C      1  0.5034500000000  0.5700920000000  0.5235990000000 1.0
C      1  0.4684480000000  0.4434980000000  0.5295910000000 1.0
C      1  0.5315520000000  0.5565020000000  0.4704090000000 1.0
C      1  0.4668620000000  0.4744410000000  0.4582030000000 1.0
C      1  0.5331380000000  0.5255590000000  0.5417970000000 1.0
C      1  0.5539900000000  0.5039680000000  0.4586840000000 1.0
C      1  0.4460100000000  0.4960320000000  0.5413160000000 1.0
C      1  0.5244840000000  0.4650780000000  0.4837950000000 1.0
C      1  0.4755160000000  0.5349220000000  0.5162050000000 1.0
C      1  0.4323520000000  0.4601550000000  0.5014940000000 1.0
C      1  0.5676480000000  0.5398450000000  0.4985060000000 1.0
C      1  0.4960150000000  0.5348410000000  0.4929930000000 1.0
C      1  0.5039850000000  0.4651590000000  0.5070070000000 1.0
C      1  0.4985530000000  0.4156030000000  0.5013650000000 1.0
C      1  0.5014470000000  0.5843970000000  0.4986350000000 1.0
C      1  0.5034110000000  0.4948610000000  0.5135530000000 1.0
C      1  0.4965890000000  0.5051390000000  0.4864470000000 1.0
C      1  0.5162320000000  0.4493050000000  0.5318470000000 1.0
C      1  0.4837680000000  0.5506950000000  0.4681530000000 1.0
C      1  0.5216870000000  0.4426770000000  0.4640020000000 1.0
C      1  0.4783130000000  0.5573230000000  0.5359980000000 1.0
C      1  0.5174720000000  0.4917970000000  0.4689280000000 1.0
C      1  0.4825280000000  0.5082030000000  0.5310720000000 1.0
C      1  0.4511280000000  0.5203690000000  0.5579790000000 1.0
C      1  0.5488720000000  0.4796310000000  0.4420210000000 1.0
C      1  0.4719180000000  0.5401030000000  0.5602370000000 1.0
C      1  0.5280820000000  0.4598970000000  0.4397630000000 1.0
C      1  0.4422040000000  0.5045150000000  0.5126140000000 1.0
C      1  0.5577960000000  0.4954850000000  0.4873860000000 1.0
C      1  0.4484020000000  0.5325140000000  0.5046090000000 1.0
C      1  0.5515980000000  0.4674860000000  0.4953910000000 1.0
C      1  0.5715790000000  0.5130490000000  0.5056370000000 1.0
C      1  0.4284210000000  0.4869510000000  0.4943630000000 1.0
C      1  0.5301380000000  0.5057450000000  0.5201180000000 1.0
C      1  0.4698620000000  0.4942550000000  0.4798820000000 1.0
C      1  0.5135360000000  0.5221840000000  0.4366930000000 1.0
C      1  0.4864640000000  0.4778160000000  0.5633070000000 1.0
C      1  0.5486560000000  0.4590830000000  0.5240760000000 1.0
C      1  0.4513440000000  0.5409170000000  0.4759240000000 1.0
C      1  0.5204810000000  0.5470710000000  0.5124350000000 1.0
C      1  0.4795190000000  0.4529290000000  0.4875650000000 1.0
C      1  0.5448110000000  0.5562030000000  0.4966180000000 1.0
C      1  0.4551890000000  0.4437970000000  0.5033820000000 1.0
C      1  0.4946770000000  0.4270410000000  0.5274160000000 1.0
C      1  0.5053230000000  0.5729590000000  0.4725840000000 1.0
C      1  0.5076190000000  0.4920160000000  0.4374610000000 1.0
C      1  0.4923810000000  0.5079840000000  0.5625390000000 1.0
C      1  0.4659310000000  0.5169210000000  0.4355720000000 1.0
C      1  0.5340690000000  0.4830790000000  0.5644280000000 1.0
END
