TITL C-8705-8172-269 1.25076410215997e-07 125000 -357.494524350105 0 0 60 (C1) n - 1
REM
REM in /home/bkarasulu/CARBON/AIRSS/Generating-Clusters/EDIP-Nigel-Params/Higher-Symm/Box-15A/Only-C60/SD-CG/HFTN-CG
REM
REM
REM
REM
REM
REM ./C.cell (414f73aa93bd7a1190c7fd0f31ff2f98)
REM
REM compiler GCC version 9.2.1 20190827 (Red Hat 9.2.1-1)
REM options -cpp -mtune=generic -march=x86-64 -g -O0 -fpre-include=/usr/include/finclude/math-vector-fortran.h
REM seed -118082588 -576549963 1342057229 1374829457 -550325921 -1871228484 -190179425 -351050348 1229683448 -62494118 -51439313 946266857 1540956204 1719342976 -1795547109 1971149855 -1416562906 -200120897 -1639906449 1966699013 132391071 -1720941895 750716316 1385772759 1515429894 -712204394 -1837178242 -1000635445 -1554127707 1998571556 1209893552 -1683393572 -70157896
REM
CELL 1.54180   50.00000   50.00000   50.00000   90.00000   90.00000   90.00000
LATT -1
SFAC C  
C      1  0.4842480000000  0.5049780000000  0.5798830000000 1.0
C      1  0.4986180000000  0.5281460000000  0.5838450000000 1.0
C      1  0.5265050000000  0.5302450000000  0.5800820000000 1.0
C      1  0.5398620000000  0.5055690000000  0.5754360000000 1.0
C      1  0.5252140000000  0.4830800000000  0.5852280000000 1.0
C      1  0.5075340000000  0.4663000000000  0.5704210000000 1.0
C      1  0.4805220000000  0.4794740000000  0.5683250000000 1.0
C      1  0.4567340000000  0.4595130000000  0.4697710000000 1.0
C      1  0.4397840000000  0.5011280000000  0.4740990000000 1.0
C      1  0.4661820000000  0.5420420000000  0.4735170000000 1.0
C      1  0.5155110000000  0.5466340000000  0.4747760000000 1.0
C      1  0.5531200000000  0.5189420000000  0.4828230000000 1.0
C      1  0.5457390000000  0.4711610000000  0.4763020000000 1.0
C      1  0.5039440000000  0.4385110000000  0.4756430000000 1.0
C      1  0.5129040000000  0.4440480000000  0.5239420000000 1.0
C      1  0.4641280000000  0.4612840000000  0.5197760000000 1.0
C      1  0.4299390000000  0.5020260000000  0.5197150000000 1.0
C      1  0.4504120000000  0.5539630000000  0.5132580000000 1.0
C      1  0.5040490000000  0.5636630000000  0.5173190000000 1.0
C      1  0.5627190000000  0.5198970000000  0.5261650000000 1.0
C      1  0.5627310000000  0.4678750000000  0.5166900000000 1.0
C      1  0.4808700000000  0.5768220000000  0.5058590000000 1.0
C      1  0.5416860000000  0.5409800000000  0.5192980000000 1.0
C      1  0.5816650000000  0.4898590000000  0.5128720000000 1.0
C      1  0.5345110000000  0.4354600000000  0.5076500000000 1.0
C      1  0.4856170000000  0.4370390000000  0.5161080000000 1.0
C      1  0.4322370000000  0.4723130000000  0.5102070000000 1.0
C      1  0.4252690000000  0.5383670000000  0.5087510000000 1.0
C      1  0.4558910000000  0.5086960000000  0.5342480000000 1.0
C      1  0.4699230000000  0.5323390000000  0.5213580000000 1.0
C      1  0.4942550000000  0.5421620000000  0.5342490000000 1.0
C      1  0.5492590000000  0.5020020000000  0.5476750000000 1.0
C      1  0.5468810000000  0.4741070000000  0.5405830000000 1.0
C      1  0.5176670000000  0.4678040000000  0.5417970000000 1.0
C      1  0.4741100000000  0.4847690000000  0.5387690000000 1.0
C      1  0.5785650000000  0.5088050000000  0.4923080000000 1.0
C      1  0.5520190000000  0.4444060000000  0.4875660000000 1.0
C      1  0.4852400000000  0.4235500000000  0.4910190000000 1.0
C      1  0.4307060000000  0.4720980000000  0.4797690000000 1.0
C      1  0.4206800000000  0.5204410000000  0.4870920000000 1.0
C      1  0.4669790000000  0.5698440000000  0.4819430000000 1.0
C      1  0.5345270000000  0.5568420000000  0.4955580000000 1.0
C      1  0.5311780000000  0.4848520000000  0.4526520000000 1.0
C      1  0.5018920000000  0.4592290000000  0.4494680000000 1.0
C      1  0.4717470000000  0.4758430000000  0.4480960000000 1.0
C      1  0.4543570000000  0.5035520000000  0.4463410000000 1.0
C      1  0.4700330000000  0.5299920000000  0.4445560000000 1.0
C      1  0.5238590000000  0.5369930000000  0.4469390000000 1.0
C      1  0.5444090000000  0.5149460000000  0.4537650000000 1.0
C      1  0.4734210000000  0.4725960000000  0.4925570000000 1.0
C      1  0.4634780000000  0.4998780000000  0.4914060000000 1.0
C      1  0.4780740000000  0.5237270000000  0.4936650000000 1.0
C      1  0.5060050000000  0.5192070000000  0.4836450000000 1.0
C      1  0.5285220000000  0.5102000000000  0.5011440000000 1.0
C      1  0.5291770000000  0.4796530000000  0.5005100000000 1.0
C      1  0.5027640000000  0.4668170000000  0.4873730000000 1.0
C      1  0.4991060000000  0.5208610000000  0.4370550000000 1.0
C      1  0.5023580000000  0.4928680000000  0.5320720000000 1.0
C      1  0.5028480000000  0.4999110000000  0.4589130000000 1.0
C      1  0.5087330000000  0.5194800000000  0.5476290000000 1.0
END
