TITL C-8701-7969-248 0.000148405962017738 125000 -361.758553473139 0 0 60 (C1) n - 1
REM
REM in /home/bkarasulu/CARBON/AIRSS/Generating-Clusters/EDIP-Nigel-Params/Higher-Symm/Box-15A/Only-C60/SD-CG/HFTN-CG
REM
REM
REM
REM
REM
REM ./C.cell (414f73aa93bd7a1190c7fd0f31ff2f98)
REM
REM compiler GCC version 9.2.1 20190827 (Red Hat 9.2.1-1)
REM options -cpp -mtune=generic -march=x86-64 -g -O0 -fpre-include=/usr/include/finclude/math-vector-fortran.h
REM seed 738087741 939491561 -126126582 431650841 -1334900971 -150611298 1204044709 982039077 954170751 2143288354 1445949913 -138996456 -809587680 1239912939 -1232987553 1382996623 1558054442 -781667638 -619644997 1582443741 -1462707514 -2065538507 -408893411 -1635055038 -1293512590 -1965659422 -482135430 -920158204 -2111288641 -87479971 -2101609298 1989749348 1212968137
REM
CELL 1.54180   50.00000   50.00000   50.00000   90.00000   90.00000   90.00000
LATT -1
SFAC C  
C      1  0.5074650000000  0.4941430000000  0.4349240000000 1.0
C      1  0.4669920000000  0.5478680000000  0.5325150000000 1.0
C      1  0.5030750000000  0.5654900000000  0.4500010000000 1.0
C      1  0.4976420000000  0.4329160000000  0.5277580000000 1.0
C      1  0.5386750000000  0.5623420000000  0.5275940000000 1.0
C      1  0.4534080000000  0.4683080000000  0.4535980000000 1.0
C      1  0.4398190000000  0.5388210000000  0.5172870000000 1.0
C      1  0.5033430000000  0.5614100000000  0.4977180000000 1.0
C      1  0.4742620000000  0.5099520000000  0.5042280000000 1.0
C      1  0.5068900000000  0.5374270000000  0.5588640000000 1.0
C      1  0.4837120000000  0.5234840000000  0.5452000000000 1.0
C      1  0.4869040000000  0.4228010000000  0.4827590000000 1.0
C      1  0.5155010000000  0.4742820000000  0.4966640000000 1.0
C      1  0.4389080000000  0.4687600000000  0.5001630000000 1.0
C      1  0.5477120000000  0.5094820000000  0.5663980000000 1.0
C      1  0.5449860000000  0.4820590000000  0.4646040000000 1.0
C      1  0.4615980000000  0.5523310000000  0.4748050000000 1.0
C      1  0.4805320000000  0.4823380000000  0.5722230000000 1.0
C      1  0.5372940000000  0.4535880000000  0.4644880000000 1.0
C      1  0.5271590000000  0.5252080000000  0.5735180000000 1.0
C      1  0.5322290000000  0.5655710000000  0.4996770000000 1.0
C      1  0.4910060000000  0.4755890000000  0.4763430000000 1.0
C      1  0.5080360000000  0.4546690000000  0.5444540000000 1.0
C      1  0.4518680000000  0.4702310000000  0.5284250000000 1.0
C      1  0.4575370000000  0.4561070000000  0.4803320000000 1.0
C      1  0.5171350000000  0.4476570000000  0.4457740000000 1.0
C      1  0.4446720000000  0.4962320000000  0.4582900000000 1.0
C      1  0.5591080000000  0.5281330000000  0.4711400000000 1.0
C      1  0.5159130000000  0.5076050000000  0.5276530000000 1.0
C      1  0.5565480000000  0.5438840000000  0.4983260000000 1.0
C      1  0.4488980000000  0.5195060000000  0.4956510000000 1.0
C      1  0.5134670000000  0.5610930000000  0.5424380000000 1.0
C      1  0.5389190000000  0.5275160000000  0.4482290000000 1.0
C      1  0.4915220000000  0.5066450000000  0.4816280000000 1.0
C      1  0.4724590000000  0.4624530000000  0.4337140000000 1.0
C      1  0.5655160000000  0.4995220000000  0.4775890000000 1.0
C      1  0.5742810000000  0.4976120000000  0.5062660000000 1.0
C      1  0.5046600000000  0.4786960000000  0.5256180000000 1.0
C      1  0.5608690000000  0.4767810000000  0.5231960000000 1.0
C      1  0.4652680000000  0.4460200000000  0.5416320000000 1.0
C      1  0.5066450000000  0.4313010000000  0.5002950000000 1.0
C      1  0.4605450000000  0.4275860000000  0.4802130000000 1.0
C      1  0.4918030000000  0.5189450000000  0.4394620000000 1.0
C      1  0.4973680000000  0.4691000000000  0.4469470000000 1.0
C      1  0.4655390000000  0.5196420000000  0.4555290000000 1.0
C      1  0.4448560000000  0.4923590000000  0.5471720000000 1.0
C      1  0.5448220000000  0.5057650000000  0.5378070000000 1.0
C      1  0.5179000000000  0.5108500000000  0.4971440000000 1.0
C      1  0.4486990000000  0.5609580000000  0.5004620000000 1.0
C      1  0.5355900000000  0.4985630000000  0.4421230000000 1.0
C      1  0.5505970000000  0.4538340000000  0.5110780000000 1.0
C      1  0.4880100000000  0.5657730000000  0.4737450000000 1.0
C      1  0.4759790000000  0.4875260000000  0.5224990000000 1.0
C      1  0.5113970000000  0.5388930000000  0.4474040000000 1.0
C      1  0.4320050000000  0.4953740000000  0.4863430000000 1.0
C      1  0.5348910000000  0.4400810000000  0.4914440000000 1.0
C      1  0.4909350000000  0.5650600000000  0.5235770000000 1.0
C      1  0.5651900000000  0.5234950000000  0.5201160000000 1.0
C      1  0.4846830000000  0.4561020000000  0.5630820000000 1.0
C      1  0.4667570000000  0.5042600000000  0.5618770000000 1.0
END
