TITL C-8704-7456-281 -1.38725338749903e-06 125000 -371.765410702451 0 0 60 (D3) n - 1
REM
REM in /home/bkarasulu/CARBON/AIRSS/Generating-Clusters/EDIP-Nigel-Params/Higher-Symm/Box-15A/Only-C60/SD-CG/HFTN-CG
REM
REM
REM
REM
REM
REM ./C.cell (414f73aa93bd7a1190c7fd0f31ff2f98)
REM
REM compiler GCC version 9.2.1 20190827 (Red Hat 9.2.1-1)
REM options -cpp -mtune=generic -march=x86-64 -g -O0 -fpre-include=/usr/include/finclude/math-vector-fortran.h
REM seed 1188022901 1009307994 -7004567 1222961117 -318391060 -1606524111 1364014165 -336546515 760307003 1473698956 395524314 1375577215 -1966616269 965510717 -1749308751 -330286520 -1176729592 1515353029 -362067525 567723345 -36518606 -464748783 -1269875648 263748279 -111321260 -490732016 94240128 1886378315 1470470256 -294180064 3755080 -861243121 1409201113
REM
CELL 1.54180   50.00000   50.00000   50.00000   90.00000   90.00000   90.00000
LATT -1
SFAC C  
C      1  0.4713480000000  0.4520290000000  0.4533710000000 1.0
C      1  0.4733860000000  0.5487840000000  0.4530080000000 1.0
C      1  0.5561590000000  0.4986430000000  0.4537310000000 1.0
C      1  0.4719080000000  0.4501230000000  0.5491860000000 1.0
C      1  0.4702160000000  0.5492810000000  0.5487890000000 1.0
C      1  0.5569340000000  0.5011690000000  0.5495300000000 1.0
C      1  0.5279610000000  0.4496700000000  0.4512030000000 1.0
C      1  0.5299120000000  0.5488230000000  0.4508300000000 1.0
C      1  0.4430690000000  0.5009340000000  0.4504620000000 1.0
C      1  0.5285280000000  0.4523180000000  0.5470000000000 1.0
C      1  0.5267410000000  0.5490780000000  0.5466120000000 1.0
C      1  0.4438390000000  0.4991490000000  0.5462780000000 1.0
C      1  0.5140070000000  0.4758040000000  0.5547690000000 1.0
C      1  0.4713360000000  0.4999840000000  0.5544030000000 1.0
C      1  0.5136120000000  0.5248490000000  0.5545760000000 1.0
C      1  0.5142650000000  0.4748880000000  0.4479680000000 1.0
C      1  0.4717950000000  0.5001850000000  0.4475990000000 1.0
C      1  0.5149390000000  0.5243170000000  0.4477800000000 1.0
C      1  0.4856700000000  0.4753300000000  0.5522250000000 1.0
C      1  0.5282060000000  0.5005190000000  0.5523980000000 1.0
C      1  0.4851250000000  0.5247610000000  0.5520290000000 1.0
C      1  0.4859290000000  0.4754160000000  0.4454200000000 1.0
C      1  0.5286630000000  0.4994870000000  0.4455990000000 1.0
C      1  0.4864520000000  0.5244600000000  0.4452330000000 1.0
C      1  0.5626440000000  0.4781410000000  0.4731080000000 1.0
C      1  0.4501010000000  0.4566680000000  0.4724740000000 1.0
C      1  0.4877790000000  0.5648710000000  0.4722930000000 1.0
C      1  0.5683680000000  0.4795210000000  0.5334560000000 1.0
C      1  0.4476530000000  0.4510400000000  0.5327960000000 1.0
C      1  0.4833480000000  0.5698230000000  0.5325620000000 1.0
C      1  0.4315780000000  0.4794400000000  0.4667040000000 1.0
C      1  0.5522190000000  0.4506500000000  0.4675850000000 1.0
C      1  0.5168330000000  0.5695250000000  0.4668970000000 1.0
C      1  0.4372990000000  0.4785140000000  0.5270600000000 1.0
C      1  0.5497870000000  0.4567530000000  0.5278620000000 1.0
C      1  0.5123900000000  0.5650520000000  0.5272020000000 1.0
C      1  0.4312480000000  0.5220800000000  0.5336710000000 1.0
C      1  0.5530560000000  0.5485120000000  0.5343450000000 1.0
C      1  0.5150410000000  0.4298070000000  0.5345640000000 1.0
C      1  0.4313920000000  0.5242000000000  0.4634750000000 1.0
C      1  0.5557290000000  0.5473060000000  0.4641780000000 1.0
C      1  0.5135680000000  0.4280740000000  0.4643730000000 1.0
C      1  0.5686710000000  0.5243040000000  0.5363370000000 1.0
C      1  0.4443950000000  0.5477280000000  0.5354530000000 1.0
C      1  0.4862440000000  0.4283880000000  0.5361840000000 1.0
C      1  0.5688090000000  0.5216390000000  0.4661600000000 1.0
C      1  0.4470700000000  0.5483830000000  0.4652790000000 1.0
C      1  0.4847760000000  0.4295800000000  0.4659810000000 1.0
C      1  0.5838980000000  0.4935220000000  0.4873960000000 1.0
C      1  0.4526090000000  0.4305770000000  0.4868030000000 1.0
C      1  0.4637450000000  0.5757480000000  0.4863100000000 1.0
C      1  0.5848270000000  0.4965550000000  0.5156200000000 1.0
C      1  0.4544060000000  0.4282640000000  0.5150540000000 1.0
C      1  0.4604780000000  0.5753570000000  0.5145210000000 1.0
C      1  0.4151640000000  0.4966550000000  0.4844060000000 1.0
C      1  0.5454060000000  0.4280300000000  0.4855040000000 1.0
C      1  0.5397180000000  0.5751390000000  0.4848950000000 1.0
C      1  0.4160860000000  0.4938390000000  0.5126530000000 1.0
C      1  0.5472090000000  0.4305580000000  0.5137360000000 1.0
C      1  0.5364530000000  0.5757570000000  0.5131020000000 1.0
END
