TITL C-8703-8361-286 -0.000294150107766824 125000 -367.558207041243 0 0 60 (C1) n - 1
REM
REM in /home/bkarasulu/CARBON/AIRSS/Generating-Clusters/EDIP-Nigel-Params/Higher-Symm/Box-15A/Only-C60/SD-CG/HFTN-CG
REM
REM
REM
REM
REM
REM ./C.cell (414f73aa93bd7a1190c7fd0f31ff2f98)
REM
REM compiler GCC version 9.2.1 20190827 (Red Hat 9.2.1-1)
REM options -cpp -mtune=generic -march=x86-64 -g -O0 -fpre-include=/usr/include/finclude/math-vector-fortran.h
REM seed 2015718888 887175625 41678748 1018250349 1915374949 334586210 542042181 1411763925 1259412378 -876789278 916390525 -1335786761 -684468928 -1986462160 1315529320 92536006 1974773134 -1998064457 137619401 -1449682860 1301212413 -263255785 -80699369 1489274816 -1059207559 -729642635 -555212 -1557679341 1388374994 890234857 -1038557106 -865028974 1915736765
REM
CELL 1.54180   50.00000   50.00000   50.00000   90.00000   90.00000   90.00000
LATT -1
SFAC C  
C      1  0.4791140000000  0.4532400000000  0.4802460000000 1.0
C      1  0.4715980000000  0.4526640000000  0.5082630000000 1.0
C      1  0.4918790000000  0.4520780000000  0.5291370000000 1.0
C      1  0.5199710000000  0.4526760000000  0.5211650000000 1.0
C      1  0.5272260000000  0.4539990000000  0.4929620000000 1.0
C      1  0.5069460000000  0.4538240000000  0.4723710000000 1.0
C      1  0.4353920000000  0.5196880000000  0.5170210000000 1.0
C      1  0.4785950000000  0.5226430000000  0.5656600000000 1.0
C      1  0.5477680000000  0.5223140000000  0.5508630000000 1.0
C      1  0.5650850000000  0.5240070000000  0.4807310000000 1.0
C      1  0.5193800000000  0.5231010000000  0.4340180000000 1.0
C      1  0.4507230000000  0.5221920000000  0.4509530000000 1.0
C      1  0.5203510000000  0.5486580000000  0.5187850000000 1.0
C      1  0.5335380000000  0.5641880000000  0.4964000000000 1.0
C      1  0.5159830000000  0.5623670000000  0.4725900000000 1.0
C      1  0.4860160000000  0.5614900000000  0.4772860000000 1.0
C      1  0.4737800000000  0.5628360000000  0.5046760000000 1.0
C      1  0.4916970000000  0.5550860000000  0.5268970000000 1.0
C      1  0.4394680000000  0.4637450000000  0.5435660000000 1.0
C      1  0.5070570000000  0.4633570000000  0.5747250000000 1.0
C      1  0.5663330000000  0.4649100000000  0.5300150000000 1.0
C      1  0.5587000000000  0.4655040000000  0.4576000000000 1.0
C      1  0.4917900000000  0.4641750000000  0.4268400000000 1.0
C      1  0.4316160000000  0.4615700000000  0.4701180000000 1.0
C      1  0.4582370000000  0.4604240000000  0.4610210000000 1.0
C      1  0.4440660000000  0.4586100000000  0.5164600000000 1.0
C      1  0.4857540000000  0.4616010000000  0.5563560000000 1.0
C      1  0.5410150000000  0.4589180000000  0.5410230000000 1.0
C      1  0.5549010000000  0.4590510000000  0.4845190000000 1.0
C      1  0.5125650000000  0.4642090000000  0.4456680000000 1.0
C      1  0.5704290000000  0.4749370000000  0.5038900000000 1.0
C      1  0.5394390000000  0.4752580000000  0.4397500000000 1.0
C      1  0.4667030000000  0.4737550000000  0.4356820000000 1.0
C      1  0.4264860000000  0.4714350000000  0.4961430000000 1.0
C      1  0.4588380000000  0.4736880000000  0.5614020000000 1.0
C      1  0.5314610000000  0.4741140000000  0.5652050000000 1.0
C      1  0.5261880000000  0.5346870000000  0.4624660000000 1.0
C      1  0.4739340000000  0.5349760000000  0.4664590000000 1.0
C      1  0.4514820000000  0.5419060000000  0.5037720000000 1.0
C      1  0.4734340000000  0.5314440000000  0.5358080000000 1.0
C      1  0.5363720000000  0.5465540000000  0.5421500000000 1.0
C      1  0.5571630000000  0.5503880000000  0.4881090000000 1.0
C      1  0.4363880000000  0.5136210000000  0.5450270000000 1.0
C      1  0.5042590000000  0.5138790000000  0.5735870000000 1.0
C      1  0.5643030000000  0.5138550000000  0.5297080000000 1.0
C      1  0.5629650000000  0.5153900000000  0.4535770000000 1.0
C      1  0.4937010000000  0.5133820000000  0.4267720000000 1.0
C      1  0.4324890000000  0.5106720000000  0.4690730000000 1.0
C      1  0.5277680000000  0.5035190000000  0.5620290000000 1.0
C      1  0.5652190000000  0.5041870000000  0.5032610000000 1.0
C      1  0.5436510000000  0.5047930000000  0.4349550000000 1.0
C      1  0.4680770000000  0.5037320000000  0.4345620000000 1.0
C      1  0.4269160000000  0.5012540000000  0.4951360000000 1.0
C      1  0.4548360000000  0.5037760000000  0.5648380000000 1.0
C      1  0.5070160000000  0.5010940000000  0.5231580000000 1.0
C      1  0.5262280000000  0.5190210000000  0.5127400000000 1.0
C      1  0.5219220000000  0.5137610000000  0.4833480000000 1.0
C      1  0.4952780000000  0.5098870000000  0.4689790000000 1.0
C      1  0.4696050000000  0.5094990000000  0.4914390000000 1.0
C      1  0.4809040000000  0.5084100000000  0.5190370000000 1.0
END
