TITL C-8703-8361-65 -1.73587951289901e-06 125000 -368.498574137491 0 0 60 (C1) n - 1
REM
REM in /home/bkarasulu/CARBON/AIRSS/Generating-Clusters/EDIP-Nigel-Params/Higher-Symm/Box-15A/Only-C60/SD-CG/HFTN-CG
REM
REM
REM
REM
REM
REM ./C.cell (414f73aa93bd7a1190c7fd0f31ff2f98)
REM
REM compiler GCC version 9.2.1 20190827 (Red Hat 9.2.1-1)
REM options -cpp -mtune=generic -march=x86-64 -g -O0 -fpre-include=/usr/include/finclude/math-vector-fortran.h
REM seed 376804582 -976157736 -1165869557 2140337313 -877899943 383875036 392754362 -280890342 1695386894 -1636825133 1972840232 -1254421281 1829868418 413974713 1907573301 2104590271 431801742 940609063 -2073369531 1732184691 975373072 2108662169 520330004 -966018605 -2101171721 -937422298 -816258832 323594239 -1910925048 -287328244 -1927144874 -187435291 1243743471
REM
CELL 1.54180   50.00000   50.00000   50.00000   90.00000   90.00000   90.00000
LATT -1
SFAC C  
C      1  0.4531860000000  0.4952980000000  0.5599220000000 1.0
C      1  0.4473920000000  0.4441520000000  0.4860310000000 1.0
C      1  0.4507300000000  0.5122650000000  0.4637350000000 1.0
C      1  0.4440920000000  0.5453640000000  0.5091570000000 1.0
C      1  0.5550830000000  0.5149870000000  0.5587920000000 1.0
C      1  0.5491270000000  0.5329280000000  0.4881410000000 1.0
C      1  0.5583630000000  0.4815200000000  0.4643910000000 1.0
C      1  0.5653230000000  0.4451210000000  0.5032230000000 1.0
C      1  0.5100460000000  0.5106600000000  0.4729510000000 1.0
C      1  0.5129760000000  0.5116080000000  0.5279220000000 1.0
C      1  0.5312120000000  0.4930100000000  0.5138620000000 1.0
C      1  0.5169400000000  0.4847320000000  0.4883950000000 1.0
C      1  0.4889980000000  0.4730500000000  0.4890630000000 1.0
C      1  0.4713580000000  0.4848750000000  0.5111060000000 1.0
C      1  0.4848610000000  0.5136420000000  0.5168440000000 1.0
C      1  0.4903310000000  0.5279430000000  0.4888860000000 1.0
C      1  0.4713840000000  0.5302400000000  0.5395700000000 1.0
C      1  0.4663580000000  0.4605370000000  0.5295540000000 1.0
C      1  0.4789000000000  0.4783320000000  0.4590520000000 1.0
C      1  0.4675110000000  0.5355120000000  0.4699880000000 1.0
C      1  0.5387610000000  0.4729570000000  0.5356810000000 1.0
C      1  0.5270700000000  0.5385790000000  0.5264640000000 1.0
C      1  0.5335070000000  0.5265590000000  0.4629590000000 1.0
C      1  0.5338020000000  0.4652010000000  0.4720230000000 1.0
C      1  0.4848690000000  0.5567230000000  0.5422530000000 1.0
C      1  0.4900710000000  0.4603280000000  0.5473730000000 1.0
C      1  0.4881730000000  0.4525100000000  0.4472790000000 1.0
C      1  0.4827680000000  0.5424240000000  0.4443880000000 1.0
C      1  0.5171530000000  0.4523330000000  0.5343370000000 1.0
C      1  0.5154340000000  0.5529240000000  0.5496730000000 1.0
C      1  0.5108180000000  0.5507300000000  0.4515460000000 1.0
C      1  0.5184260000000  0.4585770000000  0.4455400000000 1.0
C      1  0.4385700000000  0.4994140000000  0.4862030000000 1.0
C      1  0.4404830000000  0.5157270000000  0.5109440000000 1.0
C      1  0.4415720000000  0.4969580000000  0.5336000000000 1.0
C      1  0.4384060000000  0.4710360000000  0.4864310000000 1.0
C      1  0.5733440000000  0.4901380000000  0.4891740000000 1.0
C      1  0.5813630000000  0.4669610000000  0.5029190000000 1.0
C      1  0.5658030000000  0.5176630000000  0.5323540000000 1.0
C      1  0.5562700000000  0.5091090000000  0.5057350000000 1.0
C      1  0.5383790000000  0.4895680000000  0.5607330000000 1.0
C      1  0.5404830000000  0.4420350000000  0.4904340000000 1.0
C      1  0.5460760000000  0.5024460000000  0.4462100000000 1.0
C      1  0.5381550000000  0.5535600000000  0.5044700000000 1.0
C      1  0.4690000000000  0.5178490000000  0.5653630000000 1.0
C      1  0.4531270000000  0.5567420000000  0.4849320000000 1.0
C      1  0.4554520000000  0.5011020000000  0.4379650000000 1.0
C      1  0.4657160000000  0.4380560000000  0.5099680000000 1.0
C      1  0.5169950000000  0.4371780000000  0.5080440000000 1.0
C      1  0.5226870000000  0.4866110000000  0.4335700000000 1.0
C      1  0.5052840000000  0.5708000000000  0.4704330000000 1.0
C      1  0.5231910000000  0.5303470000000  0.5696170000000 1.0
C      1  0.4772450000000  0.5649860000000  0.5127640000000 1.0
C      1  0.4805540000000  0.5160120000000  0.4306790000000 1.0
C      1  0.4786640000000  0.4335570000000  0.4678980000000 1.0
C      1  0.4883710000000  0.4845620000000  0.5656410000000 1.0
C      1  0.4987210000000  0.4988190000000  0.4475910000000 1.0
C      1  0.4908810000000  0.4432680000000  0.4938050000000 1.0
C      1  0.5121970000000  0.5040720000000  0.5575310000000 1.0
C      1  0.5014410000000  0.5557990000000  0.4948890000000 1.0
END
