TITL C-8703-8361-345 -2.07965621965723e-06 125000 -357.275395322406 0 0 60 (C1) n - 1
REM
REM in /home/bkarasulu/CARBON/AIRSS/Generating-Clusters/EDIP-Nigel-Params/Higher-Symm/Box-15A/Only-C60/SD-CG/HFTN-CG
REM
REM
REM
REM
REM
REM ./C.cell (414f73aa93bd7a1190c7fd0f31ff2f98)
REM
REM compiler GCC version 9.2.1 20190827 (Red Hat 9.2.1-1)
REM options -cpp -mtune=generic -march=x86-64 -g -O0 -fpre-include=/usr/include/finclude/math-vector-fortran.h
REM seed 28503751 -759930844 -1335575602 -303872470 -127377968 357943875 790457264 489790316 -1929863363 -75093189 -1002071495 -1304073147 -1259130008 295545271 -1983024441 -2022661412 1052308942 -1180821343 954638926 1083579871 -471793747 -1936363155 -2103810535 1839365806 294664053 -720999551 1025038575 80693233 -1470216717 273891928 252024295 1710951872 -294375523
REM
CELL 1.54180   50.00000   50.00000   50.00000   90.00000   90.00000   90.00000
LATT -1
SFAC C  
C      1  0.4698410000000  0.5198670000000  0.4347990000000 1.0
C      1  0.5233890000000  0.5158510000000  0.5544910000000 1.0
C      1  0.5193030000000  0.4897450000000  0.4494810000000 1.0
C      1  0.4738190000000  0.4812410000000  0.5611660000000 1.0
C      1  0.5538860000000  0.5683050000000  0.5004310000000 1.0
C      1  0.4481800000000  0.5670300000000  0.4968960000000 1.0
C      1  0.4469370000000  0.4312070000000  0.5002290000000 1.0
C      1  0.5531090000000  0.4299730000000  0.4990950000000 1.0
C      1  0.4708980000000  0.4607350000000  0.5409780000000 1.0
C      1  0.5287700000000  0.4662500000000  0.4623500000000 1.0
C      1  0.5312920000000  0.5395440000000  0.5411360000000 1.0
C      1  0.4702570000000  0.5381030000000  0.4578050000000 1.0
C      1  0.4307950000000  0.4797060000000  0.4796430000000 1.0
C      1  0.5714230000000  0.4777200000000  0.5224440000000 1.0
C      1  0.5706090000000  0.5177530000000  0.4821400000000 1.0
C      1  0.4308070000000  0.5193220000000  0.5190690000000 1.0
C      1  0.5420470000000  0.4708440000000  0.4866720000000 1.0
C      1  0.4587350000000  0.4700220000000  0.5170360000000 1.0
C      1  0.4592760000000  0.5272900000000  0.4817670000000 1.0
C      1  0.5450280000000  0.5341790000000  0.5162510000000 1.0
C      1  0.4190580000000  0.5040700000000  0.4721930000000 1.0
C      1  0.5801510000000  0.5035670000000  0.5289080000000 1.0
C      1  0.5816310000000  0.4929970000000  0.4751740000000 1.0
C      1  0.4195360000000  0.4947330000000  0.5266170000000 1.0
C      1  0.5771120000000  0.5556450000000  0.5117880000000 1.0
C      1  0.4289020000000  0.5520710000000  0.4836470000000 1.0
C      1  0.4280480000000  0.4460150000000  0.5142790000000 1.0
C      1  0.5718690000000  0.4454340000000  0.4859890000000 1.0
C      1  0.5408540000000  0.4938810000000  0.5585560000000 1.0
C      1  0.4561370000000  0.4944610000000  0.4381640000000 1.0
C      1  0.4576120000000  0.5050080000000  0.5599670000000 1.0
C      1  0.5322620000000  0.5157880000000  0.4482900000000 1.0
C      1  0.4962850000000  0.5158320000000  0.4218310000000 1.0
C      1  0.5007860000000  0.5149450000000  0.5725890000000 1.0
C      1  0.5004890000000  0.4866460000000  0.4277060000000 1.0
C      1  0.4994390000000  0.4848860000000  0.5754380000000 1.0
C      1  0.4658370000000  0.5553950000000  0.5158460000000 1.0
C      1  0.5367460000000  0.5565370000000  0.4795200000000 1.0
C      1  0.5361140000000  0.4409440000000  0.5188890000000 1.0
C      1  0.4651960000000  0.4433500000000  0.4821210000000 1.0
C      1  0.5112250000000  0.5572010000000  0.5342030000000 1.0
C      1  0.4910460000000  0.5563860000000  0.4616110000000 1.0
C      1  0.4908990000000  0.4420040000000  0.5369450000000 1.0
C      1  0.5109950000000  0.4451010000000  0.4649480000000 1.0
C      1  0.4944590000000  0.4397850000000  0.4869070000000 1.0
C      1  0.5068170000000  0.4388650000000  0.5142650000000 1.0
C      1  0.5072210000000  0.5618450000000  0.4839340000000 1.0
C      1  0.4951200000000  0.5581380000000  0.5113680000000 1.0
C      1  0.5480470000000  0.4637380000000  0.5360820000000 1.0
C      1  0.4542340000000  0.4670280000000  0.4656410000000 1.0
C      1  0.4542500000000  0.5324310000000  0.5327470000000 1.0
C      1  0.5445790000000  0.5279300000000  0.4722290000000 1.0
C      1  0.4317240000000  0.5237640000000  0.4896550000000 1.0
C      1  0.5741270000000  0.5255760000000  0.5104060000000 1.0
C      1  0.5698360000000  0.4734090000000  0.4929970000000 1.0
C      1  0.4312810000000  0.4745850000000  0.5089960000000 1.0
C      1  0.4750690000000  0.5264240000000  0.5648320000000 1.0
C      1  0.5173850000000  0.5328850000000  0.4314120000000 1.0
C      1  0.5243690000000  0.4720910000000  0.5657450000000 1.0
C      1  0.4748580000000  0.4739210000000  0.4336870000000 1.0
END
