TITL C-8703-8361-276 5.14230124784892e-06 125000 -341.442681482672 0 0 60 (C1) n - 1
REM
REM in /home/bkarasulu/CARBON/AIRSS/Generating-Clusters/EDIP-Nigel-Params/Higher-Symm/Box-15A/Only-C60/SD-CG/HFTN-CG
REM
REM
REM
REM
REM
REM ./C.cell (414f73aa93bd7a1190c7fd0f31ff2f98)
REM
REM compiler GCC version 9.2.1 20190827 (Red Hat 9.2.1-1)
REM options -cpp -mtune=generic -march=x86-64 -g -O0 -fpre-include=/usr/include/finclude/math-vector-fortran.h
REM seed -1343614435 -778333144 -306691710 -1207685035 -732942077 370447560 228193825 -282138296 1150192100 1502430133 -150118483 -1493993694 512969674 -225781557 -620221816 -1206468600 -1311025745 1318111088 1094241656 -1136954397 -691480324 -961045803 354300654 1925067523 624186053 -290902718 1495730121 2004218622 -209010801 247320893 -1146849864 -942955410 -1428098197
REM
CELL 1.54180   50.00000   50.00000   50.00000   90.00000   90.00000   90.00000
LATT -1
SFAC C  
C      1  0.4620990000000  0.4172860000000  0.4965220000000 1.0
C      1  0.4708680000000  0.4315350000000  0.4746260000000 1.0
C      1  0.4879730000000  0.4194560000000  0.4567440000000 1.0
C      1  0.5136980000000  0.4134270000000  0.4533990000000 1.0
C      1  0.5339400000000  0.4209610000000  0.4689790000000 1.0
C      1  0.5383660000000  0.4345050000000  0.4925490000000 1.0
C      1  0.5336870000000  0.4223770000000  0.5166280000000 1.0
C      1  0.5246950000000  0.4321810000000  0.5405990000000 1.0
C      1  0.5025160000000  0.4197400000000  0.5512340000000 1.0
C      1  0.4794150000000  0.4089460000000  0.5434030000000 1.0
C      1  0.4641690000000  0.4083480000000  0.5215450000000 1.0
C      1  0.5222760000000  0.5610920000000  0.5409200000000 1.0
C      1  0.4954820000000  0.5643600000000  0.5419560000000 1.0
C      1  0.4724080000000  0.5652160000000  0.5279190000000 1.0
C      1  0.4612410000000  0.5634030000000  0.5033880000000 1.0
C      1  0.4649230000000  0.5594940000000  0.4769160000000 1.0
C      1  0.4822900000000  0.5551030000000  0.4565960000000 1.0
C      1  0.5087840000000  0.5515700000000  0.4485570000000 1.0
C      1  0.5325760000000  0.5654810000000  0.4586820000000 1.0
C      1  0.5517040000000  0.5537590000000  0.4755750000000 1.0
C      1  0.5558270000000  0.5526350000000  0.5022250000000 1.0
C      1  0.5444910000000  0.5565070000000  0.5263330000000 1.0
C      1  0.4732520000000  0.4519930000000  0.5480570000000 1.0
C      1  0.4549080000000  0.4511970000000  0.5221780000000 1.0
C      1  0.4607590000000  0.4732870000000  0.5009810000000 1.0
C      1  0.4639600000000  0.4604710000000  0.4726470000000 1.0
C      1  0.4832170000000  0.4763600000000  0.4556260000000 1.0
C      1  0.5122840000000  0.4739340000000  0.4529100000000 1.0
C      1  0.5344420000000  0.4796550000000  0.4710600000000 1.0
C      1  0.5464870000000  0.4630860000000  0.4935550000000 1.0
C      1  0.5401220000000  0.4750680000000  0.5206080000000 1.0
C      1  0.5262400000000  0.4616660000000  0.5438070000000 1.0
C      1  0.4968410000000  0.4726660000000  0.5471770000000 1.0
C      1  0.5641260000000  0.4966260000000  0.5563520000000 1.0
C      1  0.5467340000000  0.4938570000000  0.5777400000000 1.0
C      1  0.4916510000000  0.5023410000000  0.5492560000000 1.0
C      1  0.4434220000000  0.4697600000000  0.5665560000000 1.0
C      1  0.4262250000000  0.4675040000000  0.5449020000000 1.0
C      1  0.4296450000000  0.5069950000000  0.4781310000000 1.0
C      1  0.4204590000000  0.4831790000000  0.4673680000000 1.0
C      1  0.4761000000000  0.5077470000000  0.4160280000000 1.0
C      1  0.5002680000000  0.4963440000000  0.4089670000000 1.0
C      1  0.5828310000000  0.4907020000000  0.4636350000000 1.0
C      1  0.5922890000000  0.4867350000000  0.4893380000000 1.0
C      1  0.5558570000000  0.4914440000000  0.4579200000000 1.0
C      1  0.5761490000000  0.4640460000000  0.4895730000000 1.0
C      1  0.5564550000000  0.4954570000000  0.5298060000000 1.0
C      1  0.5421830000000  0.4681710000000  0.5681230000000 1.0
C      1  0.4956460000000  0.4888170000000  0.5723580000000 1.0
C      1  0.4604360000000  0.4498640000000  0.5741240000000 1.0
C      1  0.4264900000000  0.4473790000000  0.5266450000000 1.0
C      1  0.4372660000000  0.4915970000000  0.4999860000000 1.0
C      1  0.4379820000000  0.4628710000000  0.4605760000000 1.0
C      1  0.4714770000000  0.4844900000000  0.4306110000000 1.0
C      1  0.5170660000000  0.4851040000000  0.4278390000000 1.0
C      1  0.5136480000000  0.5789540000000  0.4758880000000 1.0
C      1  0.4839380000000  0.4885220000000  0.5077120000000 1.0
C      1  0.4964780000000  0.5120630000000  0.5059230000000 1.0
C      1  0.5051680000000  0.5369080000000  0.5005280000000 1.0
C      1  0.5059440000000  0.5645520000000  0.4987430000000 1.0
END
