TITL C-8704-7456-162 -3.20280944429116e-06 125000 -361.435300476056 0 0 60 (C1) n - 1
REM
REM in /home/bkarasulu/CARBON/AIRSS/Generating-Clusters/EDIP-Nigel-Params/Higher-Symm/Box-15A/Only-C60/SD-CG/HFTN-CG
REM
REM
REM
REM
REM
REM ./C.cell (414f73aa93bd7a1190c7fd0f31ff2f98)
REM
REM compiler GCC version 9.2.1 20190827 (Red Hat 9.2.1-1)
REM options -cpp -mtune=generic -march=x86-64 -g -O0 -fpre-include=/usr/include/finclude/math-vector-fortran.h
REM seed 650440971 336055601 -2018350718 -733216979 -4407402 1915332424 1408323969 117492097 -1349598440 1481866087 -863466108 562800126 -1254631864 -1580910039 -868604142 1261064405 834309414 1245044768 171312074 -649410522 15148309 268633472 -1568610292 -1746243818 -122152325 -1924886825 279070841 1869670949 1625042110 471412459 1748884439 -971703178 -550445415
REM
CELL 1.54180   50.00000   50.00000   50.00000   90.00000   90.00000   90.00000
LATT -1
SFAC C  
C      1  0.5721790000000  0.5436030000000  0.5031600000000 1.0
C      1  0.5840860000000  0.5477580000000  0.4782610000000 1.0
C      1  0.5899320000000  0.5309510000000  0.4581030000000 1.0
C      1  0.5802820000000  0.5049450000000  0.4563430000000 1.0
C      1  0.5940920000000  0.4841290000000  0.4687330000000 1.0
C      1  0.5825420000000  0.4651960000000  0.4855340000000 1.0
C      1  0.5919770000000  0.4584320000000  0.5108780000000 1.0
C      1  0.5754310000000  0.4558720000000  0.5338020000000 1.0
C      1  0.5707760000000  0.4809530000000  0.5482140000000 1.0
C      1  0.5831770000000  0.5036580000000  0.5366160000000 1.0
C      1  0.5703290000000  0.5152270000000  0.5146990000000 1.0
C      1  0.4348880000000  0.5361770000000  0.5307310000000 1.0
C      1  0.4338980000000  0.5483810000000  0.5034660000000 1.0
C      1  0.4177930000000  0.5370530000000  0.4829090000000 1.0
C      1  0.4266400000000  0.5222890000000  0.4601040000000 1.0
C      1  0.4143840000000  0.4971530000000  0.4566840000000 1.0
C      1  0.4240320000000  0.4717540000000  0.4640650000000 1.0
C      1  0.4153700000000  0.4598200000000  0.4879650000000 1.0
C      1  0.4296180000000  0.4537150000000  0.5114840000000 1.0
C      1  0.4267730000000  0.4706760000000  0.5344440000000 1.0
C      1  0.4308140000000  0.4955740000000  0.5483210000000 1.0
C      1  0.4149450000000  0.5192180000000  0.5431100000000 1.0
C      1  0.5106640000000  0.4722470000000  0.4598890000000 1.0
C      1  0.4978010000000  0.4505550000000  0.4748380000000 1.0
C      1  0.5142520000000  0.4373470000000  0.4932100000000 1.0
C      1  0.4813030000000  0.4629200000000  0.5469850000000 1.0
C      1  0.4820040000000  0.4891640000000  0.5571930000000 1.0
C      1  0.5001780000000  0.5096120000000  0.5452760000000 1.0
C      1  0.4837270000000  0.5406050000000  0.5325780000000 1.0
C      1  0.4842130000000  0.5527920000000  0.5055430000000 1.0
C      1  0.4976930000000  0.5408710000000  0.4824510000000 1.0
C      1  0.5072770000000  0.5189110000000  0.4448560000000 1.0
C      1  0.4953650000000  0.4936070000000  0.4477610000000 1.0
C      1  0.5345350000000  0.5244820000000  0.4486760000000 1.0
C      1  0.5516230000000  0.5016330000000  0.4538500000000 1.0
C      1  0.5396390000000  0.4760240000000  0.4618800000000 1.0
C      1  0.5545310000000  0.4603260000000  0.4815300000000 1.0
C      1  0.5404460000000  0.4436100000000  0.5007700000000 1.0
C      1  0.5476560000000  0.4485720000000  0.5284220000000 1.0
C      1  0.5416680000000  0.4810370000000  0.5485890000000 1.0
C      1  0.5293080000000  0.5068250000000  0.5432030000000 1.0
C      1  0.5397310000000  0.5165270000000  0.5164460000000 1.0
C      1  0.5409600000000  0.5463530000000  0.5036890000000 1.0
C      1  0.5259350000000  0.5460440000000  0.4783410000000 1.0
C      1  0.4530930000000  0.4691930000000  0.4601100000000 1.0
C      1  0.4686570000000  0.4516990000000  0.4788960000000 1.0
C      1  0.4570130000000  0.4443590000000  0.5057490000000 1.0
C      1  0.4736160000000  0.4448710000000  0.5284200000000 1.0
C      1  0.4557060000000  0.5014510000000  0.5639660000000 1.0
C      1  0.4582620000000  0.5287220000000  0.5717160000000 1.0
C      1  0.4584550000000  0.5424200000000  0.5470050000000 1.0
C      1  0.4586340000000  0.5588670000000  0.4930320000000 1.0
C      1  0.4756370000000  0.5420550000000  0.4626960000000 1.0
C      1  0.4560830000000  0.5204390000000  0.4560580000000 1.0
C      1  0.4667030000000  0.4936160000000  0.4493910000000 1.0
C      1  0.4252160000000  0.5017230000000  0.5044700000000 1.0
C      1  0.5269920000000  0.4999250000000  0.4972010000000 1.0
C      1  0.4770790000000  0.4958200000000  0.5101840000000 1.0
C      1  0.5024370000000  0.4901820000000  0.5032730000000 1.0
C      1  0.4517830000000  0.5019340000000  0.5030090000000 1.0
END
