TITL C-8700-8172-354 8.13859315881363e-05 125000 -370.05886805079 0 0 60 (C5) n - 1
REM
REM in /home/bkarasulu/CARBON/AIRSS/Generating-Clusters/EDIP-Nigel-Params/Higher-Symm/Box-15A/Only-C60/SD-CG/HFTN-CG
REM
REM
REM
REM
REM
REM ./C.cell (414f73aa93bd7a1190c7fd0f31ff2f98)
REM
REM compiler GCC version 9.2.1 20190827 (Red Hat 9.2.1-1)
REM options -cpp -mtune=generic -march=x86-64 -g -O0 -fpre-include=/usr/include/finclude/math-vector-fortran.h
REM seed -1178669057 -312230164 -866343024 196801011 -122128338 1553435781 -1109433084 678454618 304057972 -537762559 -73352180 -1674937741 272466856 -1550591386 1442547269 -204601472 155015746 2014605696 626962986 794006432 1052944631 -224308853 -1258688697 -1700360633 -1955269309 1382952413 -1865738962 -460347690 363233458 -526844973 525636910 805686658 -1194262822
REM
CELL 1.54180   50.00000   50.00000   50.00000   90.00000   90.00000   90.00000
LATT -1
SFAC C  
C      1  0.4884430000000  0.4508260000000  0.4816270000000 1.0
C      1  0.4496570000000  0.4958010000000  0.4816370000000 1.0
C      1  0.4804460000000  0.5465870000000  0.4816550000000 1.0
C      1  0.5382600000000  0.5329980000000  0.4816560000000 1.0
C      1  0.5432020000000  0.4738150000000  0.4816390000000 1.0
C      1  0.4278870000000  0.4641860000000  0.5124200000000 1.0
C      1  0.4436570000000  0.5575130000000  0.5124490000000 1.0
C      1  0.5372900000000  0.5713540000000  0.5124620000000 1.0
C      1  0.5793880000000  0.4865810000000  0.5124400000000 1.0
C      1  0.5117730000000  0.4203470000000  0.5124150000000 1.0
C      1  0.4738080000000  0.4970660000000  0.5015940000000 1.0
C      1  0.4891170000000  0.5240030000000  0.5016030000000 1.0
C      1  0.5194650000000  0.5177680000000  0.5016040000000 1.0
C      1  0.5229130000000  0.4869770000000  0.5015950000000 1.0
C      1  0.4946960000000  0.4741830000000  0.5015890000000 1.0
C      1  0.4861350000000  0.4302870000000  0.5200600000000 1.0
C      1  0.4294190000000  0.4916380000000  0.5200730000000 1.0
C      1  0.4702410000000  0.5645360000000  0.5200980000000 1.0
C      1  0.5521860000000  0.5482400000000  0.5201010000000 1.0
C      1  0.5620090000000  0.4652690000000  0.5200770000000 1.0
C      1  0.5490030000000  0.4799330000000  0.4507130000000 1.0
C      1  0.4960470000000  0.4472090000000  0.4506980000000 1.0
C      1  0.4485610000000  0.4874600000000  0.4507060000000 1.0
C      1  0.4721670000000  0.5450610000000  0.4507250000000 1.0
C      1  0.5342440000000  0.5404090000000  0.4507300000000 1.0
C      1  0.5413180000000  0.5044040000000  0.5437810000000 1.0
C      1  0.5169660000000  0.4620520000000  0.5437660000000 1.0
C      1  0.4691620000000  0.4721250000000  0.5437650000000 1.0
C      1  0.4639700000000  0.5207020000000  0.5437790000000 1.0
C      1  0.5085650000000  0.5406520000000  0.5437890000000 1.0
C      1  0.4394770000000  0.5372520000000  0.4926120000000 1.0
C      1  0.5167250000000  0.5690750000000  0.4926290000000 1.0
C      1  0.5708610000000  0.5054410000000  0.4926150000000 1.0
C      1  0.5270700000000  0.4342910000000  0.4925900000000 1.0
C      1  0.4458710000000  0.4539510000000  0.4925880000000 1.0
C      1  0.5540440000000  0.4483180000000  0.4958550000000 1.0
C      1  0.4675470000000  0.4326320000000  0.4958430000000 1.0
C      1  0.4259000000000  0.5100480000000  0.4958620000000 1.0
C      1  0.4866570000000  0.5735800000000  0.4958860000000 1.0
C      1  0.5658550000000  0.5354290000000  0.4958820000000 1.0
C      1  0.5235400000000  0.5644870000000  0.4645280000000 1.0
C      1  0.5685970000000  0.4975500000000  0.4645120000000 1.0
C      1  0.5188600000000  0.4340130000000  0.4644880000000 1.0
C      1  0.4430630000000  0.4616820000000  0.4644900000000 1.0
C      1  0.4459560000000  0.5423200000000  0.4645140000000 1.0
C      1  0.5237260000000  0.4907560000000  0.4393240000000 1.0
C      1  0.4985270000000  0.4745960000000  0.4393170000000 1.0
C      1  0.4753710000000  0.4935680000000  0.4393200000000 1.0
C      1  0.4862590000000  0.5214530000000  0.4393290000000 1.0
C      1  0.5161440000000  0.5197160000000  0.4393320000000 1.0
C      1  0.5256940000000  0.5027360000000  0.5691040000000 1.0
C      1  0.5105570000000  0.4763890000000  0.5690950000000 1.0
C      1  0.4808220000000  0.4826430000000  0.5690940000000 1.0
C      1  0.4775820000000  0.5128560000000  0.5691030000000 1.0
C      1  0.5053140000000  0.5252740000000  0.5691090000000 1.0
C      1  0.5311040000000  0.5280720000000  0.5283580000000 1.0
C      1  0.5363160000000  0.4790850000000  0.5283440000000 1.0
C      1  0.4913370000000  0.4589900000000  0.5283340000000 1.0
C      1  0.4583260000000  0.4955580000000  0.5283420000000 1.0
C      1  0.4829040000000  0.5382530000000  0.5283570000000 1.0
END
