TITL C-8702-7969-36 -9.55462284345697e-06 125000 -367.613322621827 0 0 60 (C1) n - 1
REM
REM in /home/bkarasulu/CARBON/AIRSS/Generating-Clusters/EDIP-Nigel-Params/Higher-Symm/Box-15A/Only-C60/SD-CG/HFTN-CG
REM
REM
REM
REM
REM
REM ./C.cell (414f73aa93bd7a1190c7fd0f31ff2f98)
REM
REM compiler GCC version 9.2.1 20190827 (Red Hat 9.2.1-1)
REM options -cpp -mtune=generic -march=x86-64 -g -O0 -fpre-include=/usr/include/finclude/math-vector-fortran.h
REM seed -1627658058 727388355 1399117478 385430249 1715888764 1639925771 750246549 2120442140 1303268532 662738703 868454891 -290741575 437857360 1869701513 589070131 1349066154 -1971558308 1266238401 195763437 1366653719 -1406121652 796960549 1646983609 -1925928291 1222678965 -844537331 -66082465 1638949817 -359361788 1939522429 1825214531 874924765 -1307594788
REM
CELL 1.54180   50.00000   50.00000   50.00000   90.00000   90.00000   90.00000
LATT -1
SFAC C  
C      1  0.4708830000000  0.5003390000000  0.5766650000000 1.0
C      1  0.4197420000000  0.5037680000000  0.5257840000000 1.0
C      1  0.4312760000000  0.5007200000000  0.4550380000000 1.0
C      1  0.4929130000000  0.4995850000000  0.4178230000000 1.0
C      1  0.5595080000000  0.5018100000000  0.4430860000000 1.0
C      1  0.5831870000000  0.5009390000000  0.5117010000000 1.0
C      1  0.5412980000000  0.4977710000000  0.5696000000000 1.0
C      1  0.4909670000000  0.4660020000000  0.5367290000000 1.0
C      1  0.4446240000000  0.4556040000000  0.5254910000000 1.0
C      1  0.4469290000000  0.4560610000000  0.4765870000000 1.0
C      1  0.4867170000000  0.4546410000000  0.4464090000000 1.0
C      1  0.5352520000000  0.4551370000000  0.4575060000000 1.0
C      1  0.5589630000000  0.4553360000000  0.5005770000000 1.0
C      1  0.5381450000000  0.4546050000000  0.5448240000000 1.0
C      1  0.5459970000000  0.5054250000000  0.5419010000000 1.0
C      1  0.4952080000000  0.5059010000000  0.5623940000000 1.0
C      1  0.4458610000000  0.5095290000000  0.5362520000000 1.0
C      1  0.4414900000000  0.5075060000000  0.4814940000000 1.0
C      1  0.4775550000000  0.5068690000000  0.4414340000000 1.0
C      1  0.5314580000000  0.5083860000000  0.4467570000000 1.0
C      1  0.5728140000000  0.5109810000000  0.4879320000000 1.0
C      1  0.5270670000000  0.5445110000000  0.5566830000000 1.0
C      1  0.4808740000000  0.5496040000000  0.5432030000000 1.0
C      1  0.4448780000000  0.5484370000000  0.5099450000000 1.0
C      1  0.4576470000000  0.5473510000000  0.4627830000000 1.0
C      1  0.5017780000000  0.5475520000000  0.4427460000000 1.0
C      1  0.5465330000000  0.5476570000000  0.4636900000000 1.0
C      1  0.5479890000000  0.5461510000000  0.5126540000000 1.0
C      1  0.5668110000000  0.4910470000000  0.4674930000000 1.0
C      1  0.5692960000000  0.4893090000000  0.5326270000000 1.0
C      1  0.5161390000000  0.4866640000000  0.5729520000000 1.0
C      1  0.4538660000000  0.4900740000000  0.5574730000000 1.0
C      1  0.4251930000000  0.4920630000000  0.5011350000000 1.0
C      1  0.4530080000000  0.4894590000000  0.4421980000000 1.0
C      1  0.5163360000000  0.4892830000000  0.4286550000000 1.0
C      1  0.4777360000000  0.5124730000000  0.5141330000000 1.0
C      1  0.4699880000000  0.4990210000000  0.4892060000000 1.0
C      1  0.4900790000000  0.5000690000000  0.4683050000000 1.0
C      1  0.5184360000000  0.5044790000000  0.4745470000000 1.0
C      1  0.5221390000000  0.5203270000000  0.5007860000000 1.0
C      1  0.5232730000000  0.4999090000000  0.5225330000000 1.0
C      1  0.4958360000000  0.4959630000000  0.5326710000000 1.0
C      1  0.5482120000000  0.5356170000000  0.5400200000000 1.0
C      1  0.5004050000000  0.5359220000000  0.5616760000000 1.0
C      1  0.4525650000000  0.5396260000000  0.5359920000000 1.0
C      1  0.4417590000000  0.5377990000000  0.4839660000000 1.0
C      1  0.4754330000000  0.5374250000000  0.4433000000000 1.0
C      1  0.5285050000000  0.5385140000000  0.4436780000000 1.0
C      1  0.5593740000000  0.5377210000000  0.4872520000000 1.0
C      1  0.4620600000000  0.4641180000000  0.5458170000000 1.0
C      1  0.4344240000000  0.4640710000000  0.5007880000000 1.0
C      1  0.4598640000000  0.4623680000000  0.4520570000000 1.0
C      1  0.5135680000000  0.4623550000000  0.4407980000000 1.0
C      1  0.5554570000000  0.4648620000000  0.4745460000000 1.0
C      1  0.5595990000000  0.4619010000000  0.5278470000000 1.0
C      1  0.5135040000000  0.4611550000000  0.5572610000000 1.0
C      1  0.4979300000000  0.4343960000000  0.4935270000000 1.0
C      1  0.4960530000000  0.5348940000000  0.5045020000000 1.0
C      1  0.4954740000000  0.4511760000000  0.5128070000000 1.0
C      1  0.4944580000000  0.5588830000000  0.5197220000000 1.0
END
