TITL C-8702-7969-251 3.47327934976148e-06 125000 -358.832364443533 0 0 60 (C1) n - 1
REM
REM in /home/bkarasulu/CARBON/AIRSS/Generating-Clusters/EDIP-Nigel-Params/Higher-Symm/Box-15A/Only-C60/SD-CG/HFTN-CG
REM
REM
REM
REM
REM
REM ./C.cell (414f73aa93bd7a1190c7fd0f31ff2f98)
REM
REM compiler GCC version 9.2.1 20190827 (Red Hat 9.2.1-1)
REM options -cpp -mtune=generic -march=x86-64 -g -O0 -fpre-include=/usr/include/finclude/math-vector-fortran.h
REM seed -1534224694 1511411462 2119339746 1051111614 131819644 -1995143962 1861933339 -1004110715 128473317 686811703 -1931284555 434273189 -1637653341 587801643 1288971602 899481142 -1784424999 379529434 376824725 1869410924 -1653523580 1064769700 476337381 -1782501519 -1269941194 -946926535 -1641117371 -2118564852 83820070 1431063947 693973438 -1637818069 2105236620
REM
CELL 1.54180   50.00000   50.00000   50.00000   90.00000   90.00000   90.00000
LATT -1
SFAC C  
C      1  0.5000430000000  0.5621030000000  0.5345370000000 1.0
C      1  0.4969200000000  0.5469030000000  0.4516580000000 1.0
C      1  0.5001180000000  0.4676730000000  0.4370850000000 1.0
C      1  0.5008170000000  0.4395970000000  0.5095760000000 1.0
C      1  0.4988050000000  0.4924870000000  0.5704970000000 1.0
C      1  0.5058840000000  0.4843850000000  0.5275890000000 1.0
C      1  0.5047030000000  0.5117100000000  0.5203550000000 1.0
C      1  0.5136270000000  0.5127420000000  0.4915830000000 1.0
C      1  0.5156340000000  0.4845700000000  0.4839400000000 1.0
C      1  0.4994950000000  0.4698210000000  0.5033490000000 1.0
C      1  0.5234280000000  0.5382630000000  0.4418050000000 1.0
C      1  0.5275810000000  0.4563130000000  0.4424160000000 1.0
C      1  0.5280240000000  0.4356710000000  0.5218910000000 1.0
C      1  0.5267060000000  0.5040150000000  0.5718800000000 1.0
C      1  0.5269790000000  0.5679830000000  0.5224760000000 1.0
C      1  0.4550190000000  0.5533850000000  0.5117810000000 1.0
C      1  0.4512630000000  0.5241610000000  0.4487410000000 1.0
C      1  0.4550770000000  0.4560810000000  0.4600630000000 1.0
C      1  0.4547180000000  0.4521700000000  0.5284150000000 1.0
C      1  0.4553390000000  0.5156620000000  0.5529420000000 1.0
C      1  0.5470030000000  0.4571350000000  0.5137940000000 1.0
C      1  0.5460500000000  0.5017220000000  0.5487240000000 1.0
C      1  0.5450800000000  0.5447430000000  0.5162940000000 1.0
C      1  0.5422460000000  0.5254560000000  0.4607560000000 1.0
C      1  0.5489070000000  0.4710630000000  0.4584380000000 1.0
C      1  0.4773470000000  0.5330650000000  0.4347860000000 1.0
C      1  0.4808470000000  0.4481060000000  0.4473810000000 1.0
C      1  0.4799020000000  0.4365170000000  0.5316870000000 1.0
C      1  0.4804210000000  0.5155560000000  0.5683970000000 1.0
C      1  0.4803170000000  0.5684480000000  0.5141090000000 1.0
C      1  0.4534120000000  0.5381600000000  0.4762870000000 1.0
C      1  0.4520340000000  0.4936880000000  0.4529190000000 1.0
C      1  0.4541890000000  0.4530310000000  0.4901000000000 1.0
C      1  0.4529960000000  0.4801630000000  0.5392240000000 1.0
C      1  0.4484560000000  0.5388180000000  0.5366200000000 1.0
C      1  0.4963290000000  0.5778490000000  0.4917700000000 1.0
C      1  0.4941290000000  0.5150460000000  0.4176040000000 1.0
C      1  0.4981520000000  0.4279080000000  0.4601670000000 1.0
C      1  0.4963740000000  0.4408160000000  0.5562430000000 1.0
C      1  0.4984320000000  0.5383130000000  0.5719920000000 1.0
C      1  0.5444800000000  0.5359090000000  0.4881310000000 1.0
C      1  0.5507330000000  0.4991720000000  0.4545850000000 1.0
C      1  0.5518020000000  0.4614470000000  0.4856240000000 1.0
C      1  0.5485800000000  0.4779050000000  0.5332980000000 1.0
C      1  0.5523160000000  0.5264700000000  0.5366600000000 1.0
C      1  0.5228600000000  0.5833740000000  0.4988650000000 1.0
C      1  0.5207540000000  0.5242910000000  0.4173030000000 1.0
C      1  0.5247880000000  0.4295200000000  0.4512800000000 1.0
C      1  0.5233190000000  0.4343910000000  0.5498850000000 1.0
C      1  0.5243790000000  0.5311740000000  0.5802720000000 1.0
C      1  0.4786910000000  0.5222140000000  0.4834160000000 1.0
C      1  0.4736530000000  0.4944140000000  0.4723910000000 1.0
C      1  0.4715740000000  0.4767970000000  0.4954960000000 1.0
C      1  0.4594500000000  0.4939830000000  0.5150040000000 1.0
C      1  0.4762950000000  0.5183560000000  0.5143680000000 1.0
C      1  0.4923640000000  0.4649990000000  0.5696950000000 1.0
C      1  0.4936510000000  0.5638070000000  0.5618700000000 1.0
C      1  0.4910170000000  0.5701820000000  0.4657330000000 1.0
C      1  0.4918070000000  0.4873800000000  0.4191280000000 1.0
C      1  0.4946820000000  0.4229180000000  0.4871280000000 1.0
END
