TITL C-8704-7456-24 -2.23777256154105e-06 125000 -363.800542438565 0 0 60 (C2) n - 1
REM
REM in /home/bkarasulu/CARBON/AIRSS/Generating-Clusters/EDIP-Nigel-Params/Higher-Symm/Box-15A/Only-C60/SD-CG/HFTN-CG
REM
REM
REM
REM
REM
REM ./C.cell (414f73aa93bd7a1190c7fd0f31ff2f98)
REM
REM compiler GCC version 9.2.1 20190827 (Red Hat 9.2.1-1)
REM options -cpp -mtune=generic -march=x86-64 -g -O0 -fpre-include=/usr/include/finclude/math-vector-fortran.h
REM seed 1512781194 -1780688754 1296438166 -1916572386 -1071470117 510770954 -517649021 730787574 -1728320194 -1114141712 1063826897 1565549402 -1323148807 1360533692 -1937241421 1249668608 828129276 -136931527 898726785 755705510 -578978741 -911752578 -1530465418 -1704467632 -484765230 1503198806 18865838 -411827844 1255494059 -845346887 -1089296605 613725059 -548444970
REM
CELL 1.54180   50.00000   50.00000   50.00000   90.00000   90.00000   90.00000
LATT -1
SFAC C  
C      1  0.4987780000000  0.5625690000000  0.4512650000000 1.0
C      1  0.5006400000000  0.4383900000000  0.5535730000000 1.0
C      1  0.5012960000000  0.4365870000000  0.4523700000000 1.0
C      1  0.4992800000000  0.5625390000000  0.5524850000000 1.0
C      1  0.5449650000000  0.5631650000000  0.5399700000000 1.0
C      1  0.5468810000000  0.4411490000000  0.4612830000000 1.0
C      1  0.4549740000000  0.4375450000000  0.5410010000000 1.0
C      1  0.4531790000000  0.5581630000000  0.4601870000000 1.0
C      1  0.4398430000000  0.4588330000000  0.5469040000000 1.0
C      1  0.4413960000000  0.5377910000000  0.4473740000000 1.0
C      1  0.5600860000000  0.5419830000000  0.5462670000000 1.0
C      1  0.5586830000000  0.4612940000000  0.4481340000000 1.0
C      1  0.4602680000000  0.5041000000000  0.5340500000000 1.0
C      1  0.4598370000000  0.4960740000000  0.4604750000000 1.0
C      1  0.5396790000000  0.4964970000000  0.5341770000000 1.0
C      1  0.5402240000000  0.5032340000000  0.4604740000000 1.0
C      1  0.4840460000000  0.5667590000000  0.4974370000000 1.0
C      1  0.4887800000000  0.4291070000000  0.5066400000000 1.0
C      1  0.5159570000000  0.4332070000000  0.4986310000000 1.0
C      1  0.5112110000000  0.5709990000000  0.5054140000000 1.0
C      1  0.5124000000000  0.4620150000000  0.5639560000000 1.0
C      1  0.5121880000000  0.5411440000000  0.4384030000000 1.0
C      1  0.4875030000000  0.5390990000000  0.5632620000000 1.0
C      1  0.4879050000000  0.4577830000000  0.4391150000000 1.0
C      1  0.4523360000000  0.5134700000000  0.5069800000000 1.0
C      1  0.4458690000000  0.4940890000000  0.4868070000000 1.0
C      1  0.5476530000000  0.4866550000000  0.5072870000000 1.0
C      1  0.5541510000000  0.5056800000000  0.4867880000000 1.0
C      1  0.5588090000000  0.5152200000000  0.5448270000000 1.0
C      1  0.5568260000000  0.4875900000000  0.4427000000000 1.0
C      1  0.4411220000000  0.4855670000000  0.5449970000000 1.0
C      1  0.4432610000000  0.5114040000000  0.4424050000000 1.0
C      1  0.5053470000000  0.4812500000000  0.4344690000000 1.0
C      1  0.5064830000000  0.5156410000000  0.5642730000000 1.0
C      1  0.4947530000000  0.5175990000000  0.4341420000000 1.0
C      1  0.4934190000000  0.4854870000000  0.5645270000000 1.0
C      1  0.5186430000000  0.5687000000000  0.5333090000000 1.0
C      1  0.5222360000000  0.4322400000000  0.4703520000000 1.0
C      1  0.4813060000000  0.4318940000000  0.5344790000000 1.0
C      1  0.4778110000000  0.5672300000000  0.4691360000000 1.0
C      1  0.5367770000000  0.5323620000000  0.4529270000000 1.0
C      1  0.5379850000000  0.4701170000000  0.5499140000000 1.0
C      1  0.4632940000000  0.4668170000000  0.4534450000000 1.0
C      1  0.4619390000000  0.5307530000000  0.5493240000000 1.0
C      1  0.5307190000000  0.5692310000000  0.4856370000000 1.0
C      1  0.5358420000000  0.4292180000000  0.5188060000000 1.0
C      1  0.4693020000000  0.4305280000000  0.4868050000000 1.0
C      1  0.4641300000000  0.5711000000000  0.5175090000000 1.0
C      1  0.4481040000000  0.5520210000000  0.5326990000000 1.0
C      1  0.4537790000000  0.4512830000000  0.4764910000000 1.0
C      1  0.5518450000000  0.4485600000000  0.5336840000000 1.0
C      1  0.5462570000000  0.5482980000000  0.4757120000000 1.0
C      1  0.5574380000000  0.4597510000000  0.5074350000000 1.0
C      1  0.5587720000000  0.5321480000000  0.4948050000000 1.0
C      1  0.4425510000000  0.5403720000000  0.5066410000000 1.0
C      1  0.4412350000000  0.4677660000000  0.4952800000000 1.0
C      1  0.5124730000000  0.5097140000000  0.5337170000000 1.0
C      1  0.5126140000000  0.4901190000000  0.4625860000000 1.0
C      1  0.4874760000000  0.4908780000000  0.5338630000000 1.0
C      1  0.4874430000000  0.5092240000000  0.4623990000000 1.0
END
