TITL C-8705-8172-242 3.88947279967251e-07 125000 -349.157113701307 0 0 60 (C1) n - 1
REM
REM in /home/bkarasulu/CARBON/AIRSS/Generating-Clusters/EDIP-Nigel-Params/Higher-Symm/Box-15A/Only-C60/SD-CG/HFTN-CG
REM
REM
REM
REM
REM
REM ./C.cell (414f73aa93bd7a1190c7fd0f31ff2f98)
REM
REM compiler GCC version 9.2.1 20190827 (Red Hat 9.2.1-1)
REM options -cpp -mtune=generic -march=x86-64 -g -O0 -fpre-include=/usr/include/finclude/math-vector-fortran.h
REM seed -429087913 2011573083 1847546901 -74325174 1401250893 988512780 1526504256 -1971913627 -1973806211 -411725681 -1061466492 23433881 -1565551774 -499529250 -324515551 -1734158007 -1636585643 -1626411309 1915074090 1859112956 790781596 2084015163 165235932 -1377530412 889493515 441369297 -440719883 -397643864 1688099480 -450617245 1105504999 -870885834 -213911429
REM
CELL 1.54180   50.00000   50.00000   50.00000   90.00000   90.00000   90.00000
LATT -1
SFAC C  
C      1  0.5350300000000  0.4805890000000  0.5716550000000 1.0
C      1  0.4911850000000  0.5685340000000  0.5388150000000 1.0
C      1  0.5710060000000  0.5367590000000  0.4856190000000 1.0
C      1  0.4712970000000  0.5191150000000  0.5671740000000 1.0
C      1  0.5154900000000  0.5120110000000  0.4284920000000 1.0
C      1  0.4798390000000  0.4755420000000  0.4384800000000 1.0
C      1  0.5105870000000  0.4247150000000  0.5175320000000 1.0
C      1  0.4781190000000  0.4372740000000  0.4810360000000 1.0
C      1  0.5203660000000  0.5684820000000  0.4623030000000 1.0
C      1  0.4427650000000  0.4759170000000  0.4751650000000 1.0
C      1  0.5622580000000  0.4797100000000  0.5163270000000 1.0
C      1  0.4315310000000  0.5184300000000  0.5183910000000 1.0
C      1  0.5307540000000  0.4770340000000  0.4341960000000 1.0
C      1  0.4876830000000  0.5704950000000  0.4830090000000 1.0
C      1  0.5582510000000  0.5331880000000  0.5220350000000 1.0
C      1  0.4629450000000  0.5099700000000  0.4325100000000 1.0
C      1  0.5237540000000  0.5250260000000  0.5654160000000 1.0
C      1  0.4805420000000  0.4818210000000  0.5720500000000 1.0
C      1  0.5120690000000  0.4293990000000  0.4643020000000 1.0
C      1  0.4751310000000  0.4308720000000  0.5315460000000 1.0
C      1  0.5202470000000  0.5692870000000  0.5128890000000 1.0
C      1  0.4303180000000  0.4653020000000  0.5101680000000 1.0
C      1  0.5719370000000  0.4837470000000  0.4790400000000 1.0
C      1  0.4334540000000  0.5269920000000  0.4806600000000 1.0
C      1  0.5493870000000  0.5254790000000  0.4700160000000 1.0
C      1  0.5212210000000  0.4817480000000  0.5460540000000 1.0
C      1  0.4791550000000  0.5459070000000  0.5255270000000 1.0
C      1  0.4678290000000  0.4882560000000  0.4854180000000 1.0
C      1  0.5376250000000  0.4678760000000  0.5247050000000 1.0
C      1  0.4560340000000  0.5043130000000  0.5244780000000 1.0
C      1  0.4793690000000  0.5185880000000  0.5387860000000 1.0
C      1  0.5049080000000  0.5246580000000  0.4524280000000 1.0
C      1  0.4924460000000  0.4846190000000  0.4636000000000 1.0
C      1  0.5254780000000  0.4476740000000  0.5073040000000 1.0
C      1  0.4862800000000  0.4622850000000  0.4948860000000 1.0
C      1  0.5228880000000  0.5403350000000  0.4713370000000 1.0
C      1  0.5313190000000  0.5227010000000  0.5180720000000 1.0
C      1  0.5247900000000  0.4780740000000  0.4631510000000 1.0
C      1  0.4732630000000  0.5485270000000  0.4964990000000 1.0
C      1  0.4525450000000  0.4754550000000  0.5253030000000 1.0
C      1  0.5465100000000  0.4964390000000  0.4750810000000 1.0
C      1  0.4626670000000  0.5241880000000  0.4810810000000 1.0
C      1  0.4757160000000  0.5244820000000  0.4539410000000 1.0
C      1  0.5146810000000  0.5119270000000  0.5411460000000 1.0
C      1  0.4939220000000  0.4714650000000  0.5486050000000 1.0
C      1  0.5257750000000  0.4508980000000  0.4776920000000 1.0
C      1  0.4777620000000  0.4596340000000  0.5256770000000 1.0
C      1  0.5163940000000  0.5421450000000  0.5016920000000 1.0
C      1  0.4859330000000  0.4301910000000  0.4553250000000 1.0
C      1  0.4543830000000  0.4836650000000  0.4310790000000 1.0
C      1  0.4949710000000  0.5785580000000  0.4574080000000 1.0
C      1  0.5174370000000  0.5767470000000  0.5394510000000 1.0
C      1  0.4975810000000  0.4177280000000  0.5410030000000 1.0
C      1  0.5392780000000  0.4998260000000  0.4210720000000 1.0
C      1  0.4585740000000  0.4973910000000  0.5785100000000 1.0
C      1  0.5356920000000  0.5061290000000  0.5804230000000 1.0
C      1  0.4318650000000  0.4526010000000  0.4856610000000 1.0
C      1  0.5690100000000  0.5540780000000  0.5070770000000 1.0
C      1  0.4205950000000  0.5381090000000  0.5022390000000 1.0
C      1  0.5801530000000  0.4670930000000  0.4994630000000 1.0
END
