TITL C-8700-8172-318 -0.00842819006348479 125000 -358.972542919781 0 0 60 (C1) n - 1
REM
REM in /home/bkarasulu/CARBON/AIRSS/Generating-Clusters/EDIP-Nigel-Params/Higher-Symm/Box-15A/Only-C60/SD-CG/HFTN-CG
REM
REM
REM
REM
REM
REM ./C.cell (414f73aa93bd7a1190c7fd0f31ff2f98)
REM
REM compiler GCC version 9.2.1 20190827 (Red Hat 9.2.1-1)
REM options -cpp -mtune=generic -march=x86-64 -g -O0 -fpre-include=/usr/include/finclude/math-vector-fortran.h
REM seed 1646722223 2125411664 -114232360 -1356805015 886804029 1075133067 -182074046 766309402 1246577651 1337055753 -408565664 -1383747621 -2107162769 -427741310 1584253459 -1902025631 1838990875 -1685660363 -534444672 -2113859350 1896337349 543921779 -1586351865 -935909444 636271351 -327723155 192545897 -938530312 1379951995 -174470837 -565373318 184969253 1583490187
REM
CELL 1.54180   50.00000   50.00000   50.00000   90.00000   90.00000   90.00000
LATT -1
SFAC C  
C      1  0.4679890000000  0.5761600000000  0.4939280000000 1.0
C      1  0.4729500000000  0.5575350000000  0.4738310000000 1.0
C      1  0.4862460000000  0.5675880000000  0.4494560000000 1.0
C      1  0.5043340000000  0.5892150000000  0.4531620000000 1.0
C      1  0.5263720000000  0.5769510000000  0.4658860000000 1.0
C      1  0.5376960000000  0.5878950000000  0.4888620000000 1.0
C      1  0.5367300000000  0.5737030000000  0.5127150000000 1.0
C      1  0.5283050000000  0.5853020000000  0.5365060000000 1.0
C      1  0.5051200000000  0.5746000000000  0.5480030000000 1.0
C      1  0.4806330000000  0.5855480000000  0.5396580000000 1.0
C      1  0.4636690000000  0.5731110000000  0.5212610000000 1.0
C      1  0.4789050000000  0.4425100000000  0.5614690000000 1.0
C      1  0.4541590000000  0.4490590000000  0.5335850000000 1.0
C      1  0.4472700000000  0.4526100000000  0.5058200000000 1.0
C      1  0.4604490000000  0.4543560000000  0.4701680000000 1.0
C      1  0.4823450000000  0.4522260000000  0.4519980000000 1.0
C      1  0.5188710000000  0.4464610000000  0.4408100000000 1.0
C      1  0.5466440000000  0.4474260000000  0.4499410000000 1.0
C      1  0.5561930000000  0.4460260000000  0.4772680000000 1.0
C      1  0.5508220000000  0.4449730000000  0.5156400000000 1.0
C      1  0.5416790000000  0.4450190000000  0.5428980000000 1.0
C      1  0.5073780000000  0.4428370000000  0.5586970000000 1.0
C      1  0.4513470000000  0.5003750000000  0.5161700000000 1.0
C      1  0.4675320000000  0.5045090000000  0.4669070000000 1.0
C      1  0.4833020000000  0.5007140000000  0.4428570000000 1.0
C      1  0.5135810000000  0.5060030000000  0.4368610000000 1.0
C      1  0.5341670000000  0.4936190000000  0.4549900000000 1.0
C      1  0.5422610000000  0.5028760000000  0.4821430000000 1.0
C      1  0.5299000000000  0.4874920000000  0.5076100000000 1.0
C      1  0.5244560000000  0.5004970000000  0.5350790000000 1.0
C      1  0.4993010000000  0.4894310000000  0.5487690000000 1.0
C      1  0.4747980000000  0.5027380000000  0.5607300000000 1.0
C      1  0.4491550000000  0.4969250000000  0.5446980000000 1.0
C      1  0.4527190000000  0.5272460000000  0.5068010000000 1.0
C      1  0.4627810000000  0.5306210000000  0.4797280000000 1.0
C      1  0.4941160000000  0.5500040000000  0.4288860000000 1.0
C      1  0.5159130000000  0.5359950000000  0.4394860000000 1.0
C      1  0.5288500000000  0.5481150000000  0.4628970000000 1.0
C      1  0.5400470000000  0.5326230000000  0.4850560000000 1.0
C      1  0.5365710000000  0.5448900000000  0.5115500000000 1.0
C      1  0.5246120000000  0.5304340000000  0.5342280000000 1.0
C      1  0.5054060000000  0.5450930000000  0.5514890000000 1.0
C      1  0.4786170000000  0.5330200000000  0.5564250000000 1.0
C      1  0.4586980000000  0.5457570000000  0.5283250000000 1.0
C      1  0.5403860000000  0.4719520000000  0.5548130000000 1.0
C      1  0.5134010000000  0.4702300000000  0.5650190000000 1.0
C      1  0.4663230000000  0.4668620000000  0.5725360000000 1.0
C      1  0.4452140000000  0.4693070000000  0.5528420000000 1.0
C      1  0.4398210000000  0.4800510000000  0.4995620000000 1.0
C      1  0.4500330000000  0.4816360000000  0.4724820000000 1.0
C      1  0.4850110000000  0.4734000000000  0.4325950000000 1.0
C      1  0.5124180000000  0.4699980000000  0.4241640000000 1.0
C      1  0.5512220000000  0.4744430000000  0.4434960000000 1.0
C      1  0.5661790000000  0.4727210000000  0.4848310000000 1.0
C      1  0.5555080000000  0.4729790000000  0.5115890000000 1.0
C      1  0.4922490000000  0.3915140000000  0.5010590000000 1.0
C      1  0.4885270000000  0.3662420000000  0.5022140000000 1.0
C      1  0.5003210000000  0.4437820000000  0.4988500000000 1.0
C      1  0.5093260000000  0.4689440000000  0.5004210000000 1.0
C      1  0.4971360000000  0.4174410000000  0.5003860000000 1.0
END
