TITL C-8703-8361-248 1.38866688486363e-06 125000 -363.638160204375 0 0 60 (Ci) n - 1
REM
REM in /home/bkarasulu/CARBON/AIRSS/Generating-Clusters/EDIP-Nigel-Params/Higher-Symm/Box-15A/Only-C60/SD-CG/HFTN-CG
REM
REM
REM
REM
REM
REM ./C.cell (414f73aa93bd7a1190c7fd0f31ff2f98)
REM
REM compiler GCC version 9.2.1 20190827 (Red Hat 9.2.1-1)
REM options -cpp -mtune=generic -march=x86-64 -g -O0 -fpre-include=/usr/include/finclude/math-vector-fortran.h
REM seed -1348445944 -1746790426 1884190113 -1929977561 1492157613 -1693192380 -1408288900 815222834 1811147625 -819169570 1931523059 176532029 -1138829951 -28786491 1422126940 -726435695 860300443 1128029472 903298202 1286952885 -1955466583 426331618 -137054204 150716069 1770231163 1656566688 -1642681665 -59393051 -1175746847 -386497355 -735926121 1677866241 362756856
REM
CELL 1.54180   50.00000   50.00000   50.00000   90.00000   90.00000   90.00000
LATT -1
SFAC C  
C      1  0.5249070000000  0.5080720000000  0.5458690000000 1.0
C      1  0.4716180000000  0.4924880000000  0.5462940000000 1.0
C      1  0.4466770000000  0.5077980000000  0.4995530000000 1.0
C      1  0.4750930000000  0.4919280000000  0.4541310000000 1.0
C      1  0.5283820000000  0.5075120000000  0.4537060000000 1.0
C      1  0.5533230000000  0.4922020000000  0.5004470000000 1.0
C      1  0.4931670000000  0.5565220000000  0.5580830000000 1.0
C      1  0.4463040000000  0.4441080000000  0.5240910000000 1.0
C      1  0.4534260000000  0.5560650000000  0.4666950000000 1.0
C      1  0.5068330000000  0.4434780000000  0.4419170000000 1.0
C      1  0.5536960000000  0.5558920000000  0.4759090000000 1.0
C      1  0.5465740000000  0.4439350000000  0.5333050000000 1.0
C      1  0.5376590000000  0.5555960000000  0.5012610000000 1.0
C      1  0.5165150000000  0.4438030000000  0.5323940000000 1.0
C      1  0.4778080000000  0.5567810000000  0.5322330000000 1.0
C      1  0.4623410000000  0.4444040000000  0.4987390000000 1.0
C      1  0.4834850000000  0.5561970000000  0.4676060000000 1.0
C      1  0.5221920000000  0.4432190000000  0.4677670000000 1.0
C      1  0.5078860000000  0.4568200000000  0.5583880000000 1.0
C      1  0.4510340000000  0.5437450000000  0.5377530000000 1.0
C      1  0.4445180000000  0.4565980000000  0.4775990000000 1.0
C      1  0.4921140000000  0.5431800000000  0.4416120000000 1.0
C      1  0.5489660000000  0.4562550000000  0.4622470000000 1.0
C      1  0.5554820000000  0.5434020000000  0.5224010000000 1.0
C      1  0.4835330000000  0.5296440000000  0.5669790000000 1.0
C      1  0.4334410000000  0.4707960000000  0.5197670000000 1.0
C      1  0.4511180000000  0.5290470000000  0.4540100000000 1.0
C      1  0.5164670000000  0.4703560000000  0.4330210000000 1.0
C      1  0.5665590000000  0.5292040000000  0.4802330000000 1.0
C      1  0.5488820000000  0.4709530000000  0.5459900000000 1.0
C      1  0.4789500000000  0.4447070000000  0.4456340000000 1.0
C      1  0.5374730000000  0.5548450000000  0.4529840000000 1.0
C      1  0.5586130000000  0.4449190000000  0.5079490000000 1.0
C      1  0.5210500000000  0.5552930000000  0.5543660000000 1.0
C      1  0.4625270000000  0.4451550000000  0.5470160000000 1.0
C      1  0.4413870000000  0.5550810000000  0.4920510000000 1.0
C      1  0.4714980000000  0.5240230000000  0.4330710000000 1.0
C      1  0.5450100000000  0.4755060000000  0.4401970000000 1.0
C      1  0.5733070000000  0.5240330000000  0.5089270000000 1.0
C      1  0.5285020000000  0.4759770000000  0.5669290000000 1.0
C      1  0.4549900000000  0.5244940000000  0.5598030000000 1.0
C      1  0.4266930000000  0.4759670000000  0.4910730000000 1.0
C      1  0.4895660000000  0.5322780000000  0.5192060000000 1.0
C      1  0.4787030000000  0.4693720000000  0.5028700000000 1.0
C      1  0.4889170000000  0.5315070000000  0.4844920000000 1.0
C      1  0.5104340000000  0.4677220000000  0.4807940000000 1.0
C      1  0.5212970000000  0.5306280000000  0.4971300000000 1.0
C      1  0.5110830000000  0.4684930000000  0.5155080000000 1.0
C      1  0.4654870000000  0.5128360000000  0.4758850000000 1.0
C      1  0.5050890000000  0.4864690000000  0.4568470000000 1.0
C      1  0.5402920000000  0.5129760000000  0.4810970000000 1.0
C      1  0.5345130000000  0.4871640000000  0.5241150000000 1.0
C      1  0.4949110000000  0.5135310000000  0.5431530000000 1.0
C      1  0.4597080000000  0.4870240000000  0.5189030000000 1.0
C      1  0.4607910000000  0.4647790000000  0.4536540000000 1.0
C      1  0.5208860000000  0.5348980000000  0.4420200000000 1.0
C      1  0.5612010000000  0.4650010000000  0.4883400000000 1.0
C      1  0.5392090000000  0.5352210000000  0.5463460000000 1.0
C      1  0.4791140000000  0.4651020000000  0.5579800000000 1.0
C      1  0.4387990000000  0.5349990000000  0.5116600000000 1.0
END
