TITL C-8704-7456-62 -3.31922166999421e-07 125000 -358.590126661719 0 0 60 (C1) n - 1
REM
REM in /home/bkarasulu/CARBON/AIRSS/Generating-Clusters/EDIP-Nigel-Params/Higher-Symm/Box-15A/Only-C60/SD-CG/HFTN-CG
REM
REM
REM
REM
REM
REM ./C.cell (414f73aa93bd7a1190c7fd0f31ff2f98)
REM
REM compiler GCC version 9.2.1 20190827 (Red Hat 9.2.1-1)
REM options -cpp -mtune=generic -march=x86-64 -g -O0 -fpre-include=/usr/include/finclude/math-vector-fortran.h
REM seed 430309008 -859232304 -1194784539 2067443496 -1976174231 869771326 -1578340112 1627002179 594189564 -282604608 379449411 692413811 1787972351 -131432547 -307574966 -841667646 1838605173 -91257495 822358584 1536706715 -112647577 1345279767 -142973210 -1080675837 1893727154 -1622399409 -1637710761 -732226046 866539970 -971172194 -950076667 -1356647418 -1589156056
REM
CELL 1.54180   50.00000   50.00000   50.00000   90.00000   90.00000   90.00000
LATT -1
SFAC C  
C      1  0.5075290000000  0.4649860000000  0.4302150000000 1.0
C      1  0.5554460000000  0.4681980000000  0.5311210000000 1.0
C      1  0.4391070000000  0.4700330000000  0.5334720000000 1.0
C      1  0.5636610000000  0.4962250000000  0.5335560000000 1.0
C      1  0.4343580000000  0.4972740000000  0.5447780000000 1.0
C      1  0.5022930000000  0.4937580000000  0.4226460000000 1.0
C      1  0.5137070000000  0.4650030000000  0.4835130000000 1.0
C      1  0.5056380000000  0.4690950000000  0.5118680000000 1.0
C      1  0.4760270000000  0.4734610000000  0.5088400000000 1.0
C      1  0.5068500000000  0.5104920000000  0.5415710000000 1.0
C      1  0.4586800000000  0.5144500000000  0.4866130000000 1.0
C      1  0.5322290000000  0.5088360000000  0.4692190000000 1.0
C      1  0.5354380000000  0.5400210000000  0.5066400000000 1.0
C      1  0.4730200000000  0.5425600000000  0.5323340000000 1.0
C      1  0.4877410000000  0.5399140000000  0.4610520000000 1.0
C      1  0.5186730000000  0.5605480000000  0.4910240000000 1.0
C      1  0.4954770000000  0.5618200000000  0.5224330000000 1.0
C      1  0.4801270000000  0.5583010000000  0.4866050000000 1.0
C      1  0.5806460000000  0.5068360000000  0.5138840000000 1.0
C      1  0.4479810000000  0.5050730000000  0.5682710000000 1.0
C      1  0.4744280000000  0.4981840000000  0.4243590000000 1.0
C      1  0.4374330000000  0.4718950000000  0.4680150000000 1.0
C      1  0.5645480000000  0.4692670000000  0.4615360000000 1.0
C      1  0.5035870000000  0.4658260000000  0.5673510000000 1.0
C      1  0.4637250000000  0.5006120000000  0.5132560000000 1.0
C      1  0.5059580000000  0.4893720000000  0.4662790000000 1.0
C      1  0.5222420000000  0.4945020000000  0.5207690000000 1.0
C      1  0.5137080000000  0.5406810000000  0.4457540000000 1.0
C      1  0.5381990000000  0.5410650000000  0.5368560000000 1.0
C      1  0.4445480000000  0.5428540000000  0.5203300000000 1.0
C      1  0.5203460000000  0.5146550000000  0.4333710000000 1.0
C      1  0.5451470000000  0.5143490000000  0.5475650000000 1.0
C      1  0.4305760000000  0.5174570000000  0.5244960000000 1.0
C      1  0.4595240000000  0.4543140000000  0.5452350000000 1.0
C      1  0.4854110000000  0.4608450000000  0.4497140000000 1.0
C      1  0.5645510000000  0.4529940000000  0.5095750000000 1.0
C      1  0.4584720000000  0.4533290000000  0.4950800000000 1.0
C      1  0.5333130000000  0.4472420000000  0.4692760000000 1.0
C      1  0.5099810000000  0.4473120000000  0.5333900000000 1.0
C      1  0.4851740000000  0.4457260000000  0.5530220000000 1.0
C      1  0.4608080000000  0.4525090000000  0.4628820000000 1.0
C      1  0.5618860000000  0.4468660000000  0.4825200000000 1.0
C      1  0.4552990000000  0.5124790000000  0.4388210000000 1.0
C      1  0.5748170000000  0.5156900000000  0.4879160000000 1.0
C      1  0.4743170000000  0.5135090000000  0.5735620000000 1.0
C      1  0.5217360000000  0.5152190000000  0.4983680000000 1.0
C      1  0.4851950000000  0.5186190000000  0.5226390000000 1.0
C      1  0.4881600000000  0.5147840000000  0.4785430000000 1.0
C      1  0.5594530000000  0.5406940000000  0.4887920000000 1.0
C      1  0.4803220000000  0.5401650000000  0.5615380000000 1.0
C      1  0.4649010000000  0.5384640000000  0.4432240000000 1.0
C      1  0.4529130000000  0.5443540000000  0.4918580000000 1.0
C      1  0.5326300000000  0.5523790000000  0.4642320000000 1.0
C      1  0.5134730000000  0.5526100000000  0.5468360000000 1.0
C      1  0.4440350000000  0.5010450000000  0.4640760000000 1.0
C      1  0.5587660000000  0.4966590000000  0.4721390000000 1.0
C      1  0.4946850000000  0.4945760000000  0.5628690000000 1.0
C      1  0.4325030000000  0.4643430000000  0.5050850000000 1.0
C      1  0.5343830000000  0.4582140000000  0.4409530000000 1.0
C      1  0.5342210000000  0.4574570000000  0.5482640000000 1.0
END
