TITL C-8700-8172-109 4.29309731972104e-05 125000 -363.77718203938 0 0 60 (C1) n - 1
REM
REM in /home/bkarasulu/CARBON/AIRSS/Generating-Clusters/EDIP-Nigel-Params/Higher-Symm/Box-15A/Only-C60/SD-CG/HFTN-CG
REM
REM
REM
REM
REM
REM ./C.cell (414f73aa93bd7a1190c7fd0f31ff2f98)
REM
REM compiler GCC version 9.2.1 20190827 (Red Hat 9.2.1-1)
REM options -cpp -mtune=generic -march=x86-64 -g -O0 -fpre-include=/usr/include/finclude/math-vector-fortran.h
REM seed 1267344522 1645070480 1857836751 -306523287 1722991081 -464678753 -1945604698 -658966204 -2900588 -342849019 1399228787 -697899683 1725893608 1328707245 2005905457 -2052715474 -1829049978 1735967235 1110941453 -992961365 -680633982 1803349404 -717761827 -1989733895 32662243 -1220050219 531407612 773236712 501074783 1192782335 1648316580 -785850498 1020511636
REM
CELL 1.54180   50.00000   50.00000   50.00000   90.00000   90.00000   90.00000
LATT -1
SFAC C  
C      1  0.4817750000000  0.4548610000000  0.4575120000000 1.0
C      1  0.5056920000000  0.4369990000000  0.5001100000000 1.0
C      1  0.5253050000000  0.5443790000000  0.5000770000000 1.0
C      1  0.4820560000000  0.4762290000000  0.5167070000000 1.0
C      1  0.5148230000000  0.5345780000000  0.4417970000000 1.0
C      1  0.4682670000000  0.4920640000000  0.4775320000000 1.0
C      1  0.4535490000000  0.4927100000000  0.4357180000000 1.0
C      1  0.4792320000000  0.5253150000000  0.5133480000000 1.0
C      1  0.5050460000000  0.5524790000000  0.4614300000000 1.0
C      1  0.4559250000000  0.5411120000000  0.4415330000000 1.0
C      1  0.4364640000000  0.4616920000000  0.4946210000000 1.0
C      1  0.4798450000000  0.4532610000000  0.4958350000000 1.0
C      1  0.4953090000000  0.5023540000000  0.4699110000000 1.0
C      1  0.4481960000000  0.4721490000000  0.4685890000000 1.0
C      1  0.5014720000000  0.5631080000000  0.5084580000000 1.0
C      1  0.4555850000000  0.5571450000000  0.5255460000000 1.0
C      1  0.5368050000000  0.5194170000000  0.4550000000000 1.0
C      1  0.5131390000000  0.4524340000000  0.5502380000000 1.0
C      1  0.5754520000000  0.5218060000000  0.5183150000000 1.0
C      1  0.5617540000000  0.4791140000000  0.4683700000000 1.0
C      1  0.5557980000000  0.4641880000000  0.5161110000000 1.0
C      1  0.5074720000000  0.4915770000000  0.5197180000000 1.0
C      1  0.5122780000000  0.4515400000000  0.4545510000000 1.0
C      1  0.4916540000000  0.4761510000000  0.5842660000000 1.0
C      1  0.4675590000000  0.5176820000000  0.5687660000000 1.0
C      1  0.4992280000000  0.4927520000000  0.4401450000000 1.0
C      1  0.4543530000000  0.4405740000000  0.5024180000000 1.0
C      1  0.5430820000000  0.5424490000000  0.5238680000000 1.0
C      1  0.5478490000000  0.4376360000000  0.5225420000000 1.0
C      1  0.4443550000000  0.5318380000000  0.5293610000000 1.0
C      1  0.5381340000000  0.5201590000000  0.4852410000000 1.0
C      1  0.4949540000000  0.5190030000000  0.5637120000000 1.0
C      1  0.5198400000000  0.4339130000000  0.5269600000000 1.0
C      1  0.4861860000000  0.4569020000000  0.5637310000000 1.0
C      1  0.5212550000000  0.4812020000000  0.5448650000000 1.0
C      1  0.5064760000000  0.5674200000000  0.5367220000000 1.0
C      1  0.5505810000000  0.4830950000000  0.5393070000000 1.0
C      1  0.4684760000000  0.4685420000000  0.5421510000000 1.0
C      1  0.5596050000000  0.5105010000000  0.5383530000000 1.0
C      1  0.5030460000000  0.5291790000000  0.5368000000000 1.0
C      1  0.5463910000000  0.4918160000000  0.4462830000000 1.0
C      1  0.4644230000000  0.5190830000000  0.4268370000000 1.0
C      1  0.5258950000000  0.4463040000000  0.4800230000000 1.0
C      1  0.4459960000000  0.5131920000000  0.5514920000000 1.0
C      1  0.5212460000000  0.4943790000000  0.4923280000000 1.0
C      1  0.5816730000000  0.4965690000000  0.4778570000000 1.0
C      1  0.4956210000000  0.5177590000000  0.4240160000000 1.0
C      1  0.5090380000000  0.4943100000000  0.5700910000000 1.0
C      1  0.5231450000000  0.4751630000000  0.4380130000000 1.0
C      1  0.4646890000000  0.4970870000000  0.5057080000000 1.0
C      1  0.4715960000000  0.5678520000000  0.5045190000000 1.0
C      1  0.4588940000000  0.5697980000000  0.4792390000000 1.0
C      1  0.5675350000000  0.5165590000000  0.4915560000000 1.0
C      1  0.4360360000000  0.4870890000000  0.5129490000000 1.0
C      1  0.4760940000000  0.4747900000000  0.4348550000000 1.0
C      1  0.4616920000000  0.5442550000000  0.4684370000000 1.0
C      1  0.4885330000000  0.5340420000000  0.4775190000000 1.0
C      1  0.5415800000000  0.4706400000000  0.4893090000000 1.0
C      1  0.5301670000000  0.5555930000000  0.5457670000000 1.0
C      1  0.4418850000000  0.4842090000000  0.5429660000000 1.0
END
