TITL C-8700-8172-140 -4.2909292731286e-05 125000 -367.76705784025 0 0 60 (C1) n - 1
REM
REM in /home/bkarasulu/CARBON/AIRSS/Generating-Clusters/EDIP-Nigel-Params/Higher-Symm/Box-15A/Only-C60/SD-CG/HFTN-CG
REM
REM
REM
REM
REM
REM ./C.cell (414f73aa93bd7a1190c7fd0f31ff2f98)
REM
REM compiler GCC version 9.2.1 20190827 (Red Hat 9.2.1-1)
REM options -cpp -mtune=generic -march=x86-64 -g -O0 -fpre-include=/usr/include/finclude/math-vector-fortran.h
REM seed -414697296 -1839221665 975098527 -136486600 5579229 -472156665 809701043 -1754596793 1092200303 357866816 356318352 1958042908 -1114136223 1028950658 -485688276 1649926679 36505289 397363178 -819856059 -1580514603 179119844 -752687903 2024998172 646074047 -946390192 -1840519287 -2036455037 -827091734 -1549072688 458812367 1331303255 -2122363385 964736409
REM
CELL 1.54180   50.00000   50.00000   50.00000   90.00000   90.00000   90.00000
LATT -1
SFAC C  
C      1  0.4947360000000  0.4832840000000  0.4186280000000 1.0
C      1  0.4824740000000  0.5327640000000  0.4232010000000 1.0
C      1  0.4868970000000  0.5728020000000  0.4783890000000 1.0
C      1  0.4904540000000  0.5711940000000  0.5068660000000 1.0
C      1  0.4939380000000  0.5405700000000  0.5647880000000 1.0
C      1  0.4956850000000  0.5162380000000  0.5798450000000 1.0
C      1  0.4820670000000  0.4675240000000  0.5766910000000 1.0
C      1  0.4877890000000  0.4282500000000  0.5219690000000 1.0
C      1  0.4894480000000  0.4284010000000  0.4933180000000 1.0
C      1  0.4945900000000  0.4598850000000  0.4353300000000 1.0
C      1  0.4464260000000  0.5419900000000  0.4816540000000 1.0
C      1  0.4476900000000  0.5423730000000  0.5099250000000 1.0
C      1  0.4494280000000  0.5246110000000  0.5440780000000 1.0
C      1  0.4526840000000  0.5003390000000  0.5588650000000 1.0
C      1  0.4405680000000  0.4748260000000  0.5522980000000 1.0
C      1  0.4462390000000  0.4580170000000  0.5183910000000 1.0
C      1  0.4477730000000  0.4586410000000  0.4901560000000 1.0
C      1  0.4495810000000  0.4756520000000  0.4556010000000 1.0
C      1  0.4526410000000  0.4999610000000  0.4408070000000 1.0
C      1  0.4407980000000  0.5255180000000  0.4475820000000 1.0
C      1  0.5421930000000  0.5242080000000  0.4566790000000 1.0
C      1  0.5363760000000  0.5399870000000  0.4804290000000 1.0
C      1  0.5461730000000  0.5418510000000  0.5081270000000 1.0
C      1  0.5402860000000  0.5285370000000  0.5338270000000 1.0
C      1  0.5476690000000  0.5033890000000  0.5471060000000 1.0
C      1  0.5373180000000  0.4767230000000  0.5417320000000 1.0
C      1  0.5449240000000  0.4570170000000  0.5223510000000 1.0
C      1  0.5388850000000  0.4588410000000  0.4942230000000 1.0
C      1  0.5478030000000  0.4730370000000  0.4675790000000 1.0
C      1  0.5402780000000  0.4958820000000  0.4511380000000 1.0
C      1  0.5187280000000  0.4889200000000  0.4051050000000 1.0
C      1  0.5084630000000  0.5433480000000  0.4228400000000 1.0
C      1  0.5090690000000  0.5814810000000  0.4636810000000 1.0
C      1  0.5149320000000  0.5794820000000  0.5175620000000 1.0
C      1  0.5153090000000  0.5585850000000  0.5655440000000 1.0
C      1  0.5209920000000  0.5098560000000  0.5898220000000 1.0
C      1  0.5077270000000  0.4564290000000  0.5768580000000 1.0
C      1  0.5112580000000  0.4217600000000  0.5354920000000 1.0
C      1  0.5123160000000  0.4185370000000  0.4808740000000 1.0
C      1  0.5180290000000  0.4447630000000  0.4371670000000 1.0
C      1  0.5378500000000  0.5493150000000  0.5529950000000 1.0
C      1  0.5433860000000  0.5066580000000  0.5747320000000 1.0
C      1  0.5315640000000  0.4616410000000  0.5648260000000 1.0
C      1  0.5362380000000  0.4328000000000  0.5340360000000 1.0
C      1  0.5368310000000  0.4321060000000  0.4795350000000 1.0
C      1  0.5418550000000  0.4456000000000  0.4524360000000 1.0
C      1  0.5382130000000  0.4906080000000  0.4238640000000 1.0
C      1  0.5323850000000  0.5384080000000  0.4345500000000 1.0
C      1  0.5301270000000  0.5658310000000  0.4711900000000 1.0
C      1  0.5402790000000  0.5689540000000  0.5153260000000 1.0
C      1  0.4781410000000  0.5046740000000  0.4286060000000 1.0
C      1  0.4616470000000  0.5461130000000  0.4400980000000 1.0
C      1  0.4687960000000  0.5531200000000  0.4676360000000 1.0
C      1  0.4702740000000  0.5563840000000  0.5214630000000 1.0
C      1  0.4709410000000  0.5439870000000  0.5474690000000 1.0
C      1  0.4784860000000  0.4953830000000  0.5702650000000 1.0
C      1  0.4613210000000  0.4542240000000  0.5599460000000 1.0
C      1  0.4690180000000  0.4474940000000  0.5324570000000 1.0
C      1  0.4702350000000  0.4443770000000  0.4789700000000 1.0
C      1  0.4717780000000  0.4568460000000  0.4530830000000 1.0
END
