TITL C-8705-8172-322 0.000107030057781503 125000 -368.079871678882 0 0 60 (C1) n - 1
REM
REM in /home/bkarasulu/CARBON/AIRSS/Generating-Clusters/EDIP-Nigel-Params/Higher-Symm/Box-15A/Only-C60/SD-CG/HFTN-CG
REM
REM
REM
REM
REM
REM ./C.cell (414f73aa93bd7a1190c7fd0f31ff2f98)
REM
REM compiler GCC version 9.2.1 20190827 (Red Hat 9.2.1-1)
REM options -cpp -mtune=generic -march=x86-64 -g -O0 -fpre-include=/usr/include/finclude/math-vector-fortran.h
REM seed -1763933115 -2118204536 -552027875 -478078853 -77324855 -416874259 -1516251925 1738185078 993868490 -1078989759 -1476431871 1994534908 -729155332 1080028895 -51855190 123318503 2073588150 -300241648 -1439120644 27594161 75292171 -1009247577 -1728106166 1626545678 -1714811598 569484141 469149350 -431904639 1977587853 503212920 1269839666 -964189763 2066982184
REM
CELL 1.54180   50.00000   50.00000   50.00000   90.00000   90.00000   90.00000
LATT -1
SFAC C  
C      1  0.5029260000000  0.5222960000000  0.5702510000000 1.0
C      1  0.4373580000000  0.5207000000000  0.4676570000000 1.0
C      1  0.5594790000000  0.5231310000000  0.4621750000000 1.0
C      1  0.5205150000000  0.4928780000000  0.4624930000000 1.0
C      1  0.5248880000000  0.4934340000000  0.5392020000000 1.0
C      1  0.4534270000000  0.4916670000000  0.5014590000000 1.0
C      1  0.5225170000000  0.5355770000000  0.5529670000000 1.0
C      1  0.4419700000000  0.5339450000000  0.4932070000000 1.0
C      1  0.5339140000000  0.5343550000000  0.4533270000000 1.0
C      1  0.4858200000000  0.4540450000000  0.4747630000000 1.0
C      1  0.5289230000000  0.4562800000000  0.5000580000000 1.0
C      1  0.4867550000000  0.4543550000000  0.5246980000000 1.0
C      1  0.5161990000000  0.5553210000000  0.5310310000000 1.0
C      1  0.4632200000000  0.5545870000000  0.4987010000000 1.0
C      1  0.5181610000000  0.5546060000000  0.4692250000000 1.0
C      1  0.4952230000000  0.5742900000000  0.5317360000000 1.0
C      1  0.4727980000000  0.5731600000000  0.4796820000000 1.0
C      1  0.5293930000000  0.5740110000000  0.4864240000000 1.0
C      1  0.4723040000000  0.5591000000000  0.5258100000000 1.0
C      1  0.4899670000000  0.5577500000000  0.4635410000000 1.0
C      1  0.5355180000000  0.5593940000000  0.5097410000000 1.0
C      1  0.4765990000000  0.4683190000000  0.4273680000000 1.0
C      1  0.5733890000000  0.4713740000000  0.5175960000000 1.0
C      1  0.4509010000000  0.4683360000000  0.5544190000000 1.0
C      1  0.4949890000000  0.4705030000000  0.5707600000000 1.0
C      1  0.4410820000000  0.4695050000000  0.4597100000000 1.0
C      1  0.5646760000000  0.4723760000000  0.4706620000000 1.0
C      1  0.5157550000000  0.4443820000000  0.5239370000000 1.0
C      1  0.4725860000000  0.4433610000000  0.5004370000000 1.0
C      1  0.5142410000000  0.4436370000000  0.4756380000000 1.0
C      1  0.4941040000000  0.4831880000000  0.4748300000000 1.0
C      1  0.5225220000000  0.4862440000000  0.5081860000000 1.0
C      1  0.4809990000000  0.4848130000000  0.5166810000000 1.0
C      1  0.5628730000000  0.5214100000000  0.5233730000000 1.0
C      1  0.4499960000000  0.5185290000000  0.5416100000000 1.0
C      1  0.4876300000000  0.5184810000000  0.4349520000000 1.0
C      1  0.5289180000000  0.5070310000000  0.4880450000000 1.0
C      1  0.4962290000000  0.5069180000000  0.5314930000000 1.0
C      1  0.4743580000000  0.5039420000000  0.4816430000000 1.0
C      1  0.5713730000000  0.5008870000000  0.4777010000000 1.0
C      1  0.4846490000000  0.4991460000000  0.5726830000000 1.0
C      1  0.4441820000000  0.4979200000000  0.4502890000000 1.0
C      1  0.4375000000000  0.5135060000000  0.5147140000000 1.0
C      1  0.5171430000000  0.5127780000000  0.4396100000000 1.0
C      1  0.5444730000000  0.5153830000000  0.5467760000000 1.0
C      1  0.5596890000000  0.4574380000000  0.4967960000000 1.0
C      1  0.4755060000000  0.4535080000000  0.5533720000000 1.0
C      1  0.4661830000000  0.4545330000000  0.4502090000000 1.0
C      1  0.4379320000000  0.4684640000000  0.4893300000000 1.0
C      1  0.5403890000000  0.4713630000000  0.4535610000000 1.0
C      1  0.5222970000000  0.4705110000000  0.5589730000000 1.0
C      1  0.5734020000000  0.4981500000000  0.5078410000000 1.0
C      1  0.4610860000000  0.4950240000000  0.5549910000000 1.0
C      1  0.4684760000000  0.4952480000000  0.4324710000000 1.0
C      1  0.5293520000000  0.4455600000000  0.5482230000000 1.0
C      1  0.4447310000000  0.4434890000000  0.5002150000000 1.0
C      1  0.5290550000000  0.4455830000000  0.4520140000000 1.0
C      1  0.5489830000000  0.5354800000000  0.5026760000000 1.0
C      1  0.4727190000000  0.5355530000000  0.5408920000000 1.0
C      1  0.4777570000000  0.5332440000000  0.4571750000000 1.0
END
