TITL C-8703-8361-98 -2.50582604419998e-06 125000 -364.897169442012 0 0 60 (C2h) n - 1
REM
REM in /home/bkarasulu/CARBON/AIRSS/Generating-Clusters/EDIP-Nigel-Params/Higher-Symm/Box-15A/Only-C60/SD-CG/HFTN-CG
REM
REM
REM
REM
REM
REM ./C.cell (414f73aa93bd7a1190c7fd0f31ff2f98)
REM
REM compiler GCC version 9.2.1 20190827 (Red Hat 9.2.1-1)
REM options -cpp -mtune=generic -march=x86-64 -g -O0 -fpre-include=/usr/include/finclude/math-vector-fortran.h
REM seed 1332860191 1693363460 -1271474319 -171334287 1584874474 1177565038 688083198 -1838986305 -94937314 1450678887 132100197 -478703562 899216151 -789410997 671868968 -1315402356 2061304567 -641618061 1139397542 -1707804451 1799027292 1739173022 -28223882 -934026762 943551388 -371819348 -624444167 -1911538724 -329124097 -1342773042 1203759236 -2135447473 870234634
REM
CELL 1.54180   50.00000   50.00000   50.00000   90.00000   90.00000   90.00000
LATT -1
SFAC C  
C      1  0.5011550000000  0.5621040000000  0.5540180000000 1.0
C      1  0.4988500000000  0.5620900000000  0.4459670000000 1.0
C      1  0.5011500000000  0.4379100000000  0.5540330000000 1.0
C      1  0.4988450000000  0.4378960000000  0.4459820000000 1.0
C      1  0.5514470000000  0.5595240000000  0.5175190000000 1.0
C      1  0.4485570000000  0.5595240000000  0.4824660000000 1.0
C      1  0.5514430000000  0.4404760000000  0.5175340000000 1.0
C      1  0.4485530000000  0.4404760000000  0.4824810000000 1.0
C      1  0.4948110000000  0.4847410000000  0.5595920000000 1.0
C      1  0.5051880000000  0.4847260000000  0.4404120000000 1.0
C      1  0.4948120000000  0.5152740000000  0.5595880000000 1.0
C      1  0.5051890000000  0.5152590000000  0.4404080000000 1.0
C      1  0.4942490000000  0.5291820000000  0.4865530000000 1.0
C      1  0.5057530000000  0.5291850000000  0.5134400000000 1.0
C      1  0.4942470000000  0.4708150000000  0.4865600000000 1.0
C      1  0.5057510000000  0.4708180000000  0.5134470000000 1.0
C      1  0.5394660000000  0.4641020000000  0.5590580000000 1.0
C      1  0.4605320000000  0.4640900000000  0.4409510000000 1.0
C      1  0.5394680000000  0.5359100000000  0.5590490000000 1.0
C      1  0.4605340000000  0.5358980000000  0.4409420000000 1.0
C      1  0.5476700000000  0.5566670000000  0.4799060000000 1.0
C      1  0.4523350000000  0.5566750000000  0.5200800000000 1.0
C      1  0.5476650000000  0.4433250000000  0.4799200000000 1.0
C      1  0.4523300000000  0.4433330000000  0.5200940000000 1.0
C      1  0.5505400000000  0.5341770000000  0.5331700000000 1.0
C      1  0.4494630000000  0.5341730000000  0.4668220000000 1.0
C      1  0.5505370000000  0.4658270000000  0.5331780000000 1.0
C      1  0.4494600000000  0.4658230000000  0.4668300000000 1.0
C      1  0.5349960000000  0.4839000000000  0.4491400000000 1.0
C      1  0.4650030000000  0.4839160000000  0.5508640000000 1.0
C      1  0.5349970000000  0.5160840000000  0.4491360000000 1.0
C      1  0.4650040000000  0.5161000000000  0.5508600000000 1.0
C      1  0.4741320000000  0.4259350000000  0.4857300000000 1.0
C      1  0.5258630000000  0.4259370000000  0.5142880000000 1.0
C      1  0.4741370000000  0.5740630000000  0.4857120000000 1.0
C      1  0.5258680000000  0.5740650000000  0.5142700000000 1.0
C      1  0.4979050000000  0.4410080000000  0.4751290000000 1.0
C      1  0.5020900000000  0.4410140000000  0.5248860000000 1.0
C      1  0.4979100000000  0.5589860000000  0.4751140000000 1.0
C      1  0.5020950000000  0.5589920000000  0.5248710000000 1.0
C      1  0.4761740000000  0.4274690000000  0.5149590000000 1.0
C      1  0.5238210000000  0.4274630000000  0.4850590000000 1.0
C      1  0.4761790000000  0.5725370000000  0.5149410000000 1.0
C      1  0.5238260000000  0.5725310000000  0.4850410000000 1.0
C      1  0.4658060000000  0.5164740000000  0.4852780000000 1.0
C      1  0.5341950000000  0.5164760000000  0.5147180000000 1.0
C      1  0.4658050000000  0.4835240000000  0.4852820000000 1.0
C      1  0.5341940000000  0.4835260000000  0.5147220000000 1.0
C      1  0.5633690000000  0.5138560000000  0.4893920000000 1.0
C      1  0.4366320000000  0.5138640000000  0.5106050000000 1.0
C      1  0.5633680000000  0.4861360000000  0.4893950000000 1.0
C      1  0.4366310000000  0.4861440000000  0.5106080000000 1.0
C      1  0.5447030000000  0.4715190000000  0.4743380000000 1.0
C      1  0.4552950000000  0.4715280000000  0.5256690000000 1.0
C      1  0.5447050000000  0.5284720000000  0.4743310000000 1.0
C      1  0.4552970000000  0.5284810000000  0.5256620000000 1.0
C      1  0.5119990000000  0.4615110000000  0.5633290000000 1.0
C      1  0.4879980000000  0.4614960000000  0.4366800000000 1.0
C      1  0.5120020000000  0.5385040000000  0.5633200000000 1.0
C      1  0.4880010000000  0.5384890000000  0.4366710000000 1.0
END
