TITL C-8702-7969-332 -3.14899992844511e-06 125000 -368.086303566481 0 0 60 (C1) n - 1
REM
REM in /home/bkarasulu/CARBON/AIRSS/Generating-Clusters/EDIP-Nigel-Params/Higher-Symm/Box-15A/Only-C60/SD-CG/HFTN-CG
REM
REM
REM
REM
REM
REM ./C.cell (414f73aa93bd7a1190c7fd0f31ff2f98)
REM
REM compiler GCC version 9.2.1 20190827 (Red Hat 9.2.1-1)
REM options -cpp -mtune=generic -march=x86-64 -g -O0 -fpre-include=/usr/include/finclude/math-vector-fortran.h
REM seed -357578004 1472591247 -215767483 1942907356 -1595657973 56751061 -767577418 -503913746 -1633409880 -1063706733 -502867051 657002620 166033823 -1817950570 -1419059425 -1215503645 -583739988 1750008141 -314117458 -1170807840 -1559437467 -841907644 2062128618 968837838 2103123540 2029130865 -962290212 -924491342 -1399108150 -2075851345 1791578603 1445021548 491159578
REM
CELL 1.54180   50.00000   50.00000   50.00000   90.00000   90.00000   90.00000
LATT -1
SFAC C  
C      1  0.5181030000000  0.5126910000000  0.5138800000000 1.0
C      1  0.4893440000000  0.5245350000000  0.5133610000000 1.0
C      1  0.4694900000000  0.4993590000000  0.5137560000000 1.0
C      1  0.4872430000000  0.4727720000000  0.5147100000000 1.0
C      1  0.5163110000000  0.4826720000000  0.5159340000000 1.0
C      1  0.4906700000000  0.5685240000000  0.5164040000000 1.0
C      1  0.4276160000000  0.5132010000000  0.5143490000000 1.0
C      1  0.4632760000000  0.4361320000000  0.5138990000000 1.0
C      1  0.5512760000000  0.4466460000000  0.5144270000000 1.0
C      1  0.5653980000000  0.5312780000000  0.5156110000000 1.0
C      1  0.5209960000000  0.5046710000000  0.5716370000000 1.0
C      1  0.4975780000000  0.5222420000000  0.5712060000000 1.0
C      1  0.4734870000000  0.5059670000000  0.5700520000000 1.0
C      1  0.4816590000000  0.4780400000000  0.5704190000000 1.0
C      1  0.5111330000000  0.4768900000000  0.5708900000000 1.0
C      1  0.5501870000000  0.4886500000000  0.4520480000000 1.0
C      1  0.5301970000000  0.5434840000000  0.4513260000000 1.0
C      1  0.4708990000000  0.5421700000000  0.4479520000000 1.0
C      1  0.4550630000000  0.4851660000000  0.4475920000000 1.0
C      1  0.5038840000000  0.4525740000000  0.4498170000000 1.0
C      1  0.5175200000000  0.5233350000000  0.4342370000000 1.0
C      1  0.4877580000000  0.5226910000000  0.4335040000000 1.0
C      1  0.4791260000000  0.4944590000000  0.4334830000000 1.0
C      1  0.5032730000000  0.4775740000000  0.4344950000000 1.0
C      1  0.5270950000000  0.4951850000000  0.4351430000000 1.0
C      1  0.4851950000000  0.5603450000000  0.4658850000000 1.0
C      1  0.4405230000000  0.5046930000000  0.4637070000000 1.0
C      1  0.4795430000000  0.4449960000000  0.4642530000000 1.0
C      1  0.5485080000000  0.4639820000000  0.4673000000000 1.0
C      1  0.5521300000000  0.5340790000000  0.4677810000000 1.0
C      1  0.5263160000000  0.4574870000000  0.5568190000000 1.0
C      1  0.5436140000000  0.5120990000000  0.5564450000000 1.0
C      1  0.4990910000000  0.5485460000000  0.5613620000000 1.0
C      1  0.4488100000000  0.5152250000000  0.5601880000000 1.0
C      1  0.4655820000000  0.4569700000000  0.5605200000000 1.0
C      1  0.5370990000000  0.4670710000000  0.5320880000000 1.0
C      1  0.5401270000000  0.5253450000000  0.5313330000000 1.0
C      1  0.4862550000000  0.5469790000000  0.5361750000000 1.0
C      1  0.4466130000000  0.5028310000000  0.5348360000000 1.0
C      1  0.4774600000000  0.4512150000000  0.5354590000000 1.0
C      1  0.5657220000000  0.5106920000000  0.4600580000000 1.0
C      1  0.5124910000000  0.5633530000000  0.4599910000000 1.0
C      1  0.4466870000000  0.5312780000000  0.4573200000000 1.0
C      1  0.4564110000000  0.4585650000000  0.4562910000000 1.0
C      1  0.5292910000000  0.4451060000000  0.4594530000000 1.0
C      1  0.5579200000000  0.5485660000000  0.4925250000000 1.0
C      1  0.4757330000000  0.5554390000000  0.4938280000000 1.0
C      1  0.4374520000000  0.4949950000000  0.4920050000000 1.0
C      1  0.4853740000000  0.4403300000000  0.4931440000000 1.0
C      1  0.5644620000000  0.4611280000000  0.4917420000000 1.0
C      1  0.4286500000000  0.4680890000000  0.4946870000000 1.0
C      1  0.5081980000000  0.4240290000000  0.4974800000000 1.0
C      1  0.5799390000000  0.4830100000000  0.4996300000000 1.0
C      1  0.5404230000000  0.5692350000000  0.4997290000000 1.0
C      1  0.4475010000000  0.5563790000000  0.4972170000000 1.0
C      1  0.5335050000000  0.4266450000000  0.5057820000000 1.0
C      1  0.5799090000000  0.5082480000000  0.5085610000000 1.0
C      1  0.5170000000000  0.5756450000000  0.5110830000000 1.0
C      1  0.4294270000000  0.5403280000000  0.5087170000000 1.0
C      1  0.4384590000000  0.4461720000000  0.5064740000000 1.0
END
