TITL C-8703-8361-243 2.17640906939802e-06 125000 -367.411740377901 0 0 60 (C1) n - 1
REM
REM in /home/bkarasulu/CARBON/AIRSS/Generating-Clusters/EDIP-Nigel-Params/Higher-Symm/Box-15A/Only-C60/SD-CG/HFTN-CG
REM
REM
REM
REM
REM
REM ./C.cell (414f73aa93bd7a1190c7fd0f31ff2f98)
REM
REM compiler GCC version 9.2.1 20190827 (Red Hat 9.2.1-1)
REM options -cpp -mtune=generic -march=x86-64 -g -O0 -fpre-include=/usr/include/finclude/math-vector-fortran.h
REM seed -1881955311 419305968 712704715 2066473307 -476065297 -2082031561 1585590124 -1383031178 1198223452 30183891 -1163149181 1360045074 2018215446 -635174064 -1770355810 615574491 1255337084 1974658507 -423378566 -1485997609 1503893272 57107489 -221209029 -1266385842 1029540592 494020049 -1007426034 2141490621 -535755458 -1188571409 -1284297953 -1306573787 1152625141
REM
CELL 1.54180   50.00000   50.00000   50.00000   90.00000   90.00000   90.00000
LATT -1
SFAC C  
C      1  0.4749910000000  0.4509530000000  0.4861770000000 1.0
C      1  0.4711730000000  0.5533250000000  0.5128880000000 1.0
C      1  0.5265930000000  0.4493840000000  0.4846400000000 1.0
C      1  0.5239490000000  0.5501220000000  0.5150920000000 1.0
C      1  0.5133970000000  0.5262060000000  0.5002310000000 1.0
C      1  0.5177890000000  0.4719550000000  0.5021050000000 1.0
C      1  0.4860860000000  0.5168370000000  0.5106390000000 1.0
C      1  0.4896740000000  0.4761130000000  0.4965420000000 1.0
C      1  0.4450520000000  0.5124600000000  0.5375800000000 1.0
C      1  0.4509190000000  0.4940610000000  0.4637790000000 1.0
C      1  0.5422160000000  0.5048720000000  0.5342890000000 1.0
C      1  0.5431320000000  0.4962360000000  0.4670750000000 1.0
C      1  0.5274270000000  0.4803390000000  0.4461760000000 1.0
C      1  0.5246200000000  0.5208270000000  0.5531520000000 1.0
C      1  0.4684500000000  0.4788700000000  0.4457400000000 1.0
C      1  0.4681080000000  0.5216670000000  0.5509950000000 1.0
C      1  0.5111120000000  0.4988520000000  0.4294190000000 1.0
C      1  0.5091560000000  0.5029720000000  0.5710890000000 1.0
C      1  0.4821230000000  0.4973060000000  0.4274960000000 1.0
C      1  0.4797910000000  0.5048070000000  0.5718020000000 1.0
C      1  0.4670890000000  0.4792660000000  0.5739650000000 1.0
C      1  0.4700510000000  0.5227400000000  0.4277350000000 1.0
C      1  0.5209030000000  0.4778020000000  0.5754480000000 1.0
C      1  0.5226800000000  0.5221930000000  0.4187470000000 1.0
C      1  0.5149310000000  0.5754980000000  0.5012490000000 1.0
C      1  0.5160020000000  0.4238390000000  0.4983460000000 1.0
C      1  0.4854340000000  0.5756320000000  0.4978670000000 1.0
C      1  0.4855860000000  0.4266160000000  0.5010300000000 1.0
C      1  0.4497170000000  0.5375570000000  0.4975250000000 1.0
C      1  0.4485000000000  0.4595900000000  0.4982460000000 1.0
C      1  0.5528820000000  0.5447820000000  0.5081190000000 1.0
C      1  0.5563190000000  0.4535440000000  0.4905570000000 1.0
C      1  0.5339870000000  0.4580370000000  0.5612320000000 1.0
C      1  0.5295930000000  0.5376150000000  0.4404970000000 1.0
C      1  0.4744550000000  0.4683430000000  0.5475700000000 1.0
C      1  0.4661530000000  0.5427740000000  0.4472220000000 1.0
C      1  0.5549990000000  0.5154930000000  0.5100510000000 1.0
C      1  0.5582720000000  0.4834090000000  0.4892900000000 1.0
C      1  0.4422730000000  0.5120330000000  0.5095880000000 1.0
C      1  0.4453270000000  0.4884010000000  0.4915400000000 1.0
C      1  0.4837810000000  0.4556020000000  0.4573780000000 1.0
C      1  0.4816820000000  0.5461980000000  0.5415440000000 1.0
C      1  0.5142970000000  0.4558130000000  0.4569000000000 1.0
C      1  0.5123970000000  0.5462130000000  0.5430050000000 1.0
C      1  0.5237770000000  0.4809290000000  0.5322080000000 1.0
C      1  0.5173600000000  0.5160100000000  0.4699750000000 1.0
C      1  0.4922400000000  0.4901180000000  0.5323490000000 1.0
C      1  0.4857340000000  0.5015790000000  0.4790570000000 1.0
C      1  0.4490110000000  0.5392510000000  0.4693430000000 1.0
C      1  0.4502580000000  0.4502560000000  0.5260340000000 1.0
C      1  0.5557710000000  0.5588040000000  0.4833210000000 1.0
C      1  0.5583040000000  0.4380030000000  0.5148930000000 1.0
C      1  0.5149770000000  0.5566150000000  0.4559950000000 1.0
C      1  0.5192650000000  0.4394260000000  0.5452700000000 1.0
C      1  0.4864100000000  0.5633910000000  0.4523640000000 1.0
C      1  0.4898650000000  0.4407270000000  0.5489680000000 1.0
C      1  0.5333760000000  0.4254530000000  0.5230120000000 1.0
C      1  0.5309580000000  0.5715680000000  0.4759690000000 1.0
C      1  0.4721360000000  0.4288500000000  0.5281020000000 1.0
C      1  0.4774920000000  0.5818680000000  0.4715800000000 1.0
END
