TITL C-8706-7473-151 6.39571043521672e-06 125000 -369.081990060497 0 0 60 (C1) n - 1
REM
REM in /home/bkarasulu/CARBON/AIRSS/Generating-Clusters/EDIP-Nigel-Params/Higher-Symm/Box-15A/Only-C60/SD-CG/HFTN-CG
REM
REM
REM
REM
REM
REM ./C.cell (414f73aa93bd7a1190c7fd0f31ff2f98)
REM
REM compiler GCC version 9.2.1 20190827 (Red Hat 9.2.1-1)
REM options -cpp -mtune=generic -march=x86-64 -g -O0 -fpre-include=/usr/include/finclude/math-vector-fortran.h
REM seed 221988225 -847931591 1842466587 -1988993782 2021244569 -1737173737 -733368856 -521866664 -800691532 1170348562 -473312256 76114794 2032745556 -809369618 255186423 1141600788 2084364834 -417541593 530243992 -1027067897 359866870 710425613 581150523 -906060448 856104364 2059710193 -221446556 4278030 -1872337779 877321810 1876487773 2054315280 282410112
REM
CELL 1.54180   50.00000   50.00000   50.00000   90.00000   90.00000   90.00000
LATT -1
SFAC C  
C      1  0.5440770000000  0.5385440000000  0.4953100000000 1.0
C      1  0.5031830000000  0.4695530000000  0.5559070000000 1.0
C      1  0.5333720000000  0.4931770000000  0.5008170000000 1.0
C      1  0.5232260000000  0.4600980000000  0.4553990000000 1.0
C      1  0.4479810000000  0.4573840000000  0.4821560000000 1.0
C      1  0.4754440000000  0.5164050000000  0.5573180000000 1.0
C      1  0.4898160000000  0.4340950000000  0.4764580000000 1.0
C      1  0.4903590000000  0.5502260000000  0.5219280000000 1.0
C      1  0.5535560000000  0.5252110000000  0.5229950000000 1.0
C      1  0.5202170000000  0.4348770000000  0.4701940000000 1.0
C      1  0.4973060000000  0.5210180000000  0.5740030000000 1.0
C      1  0.4455500000000  0.4492530000000  0.5363820000000 1.0
C      1  0.5462460000000  0.4790250000000  0.4571060000000 1.0
C      1  0.5188540000000  0.5263830000000  0.5562290000000 1.0
C      1  0.5275230000000  0.4659530000000  0.5144920000000 1.0
C      1  0.4694280000000  0.5371740000000  0.5375420000000 1.0
C      1  0.4755090000000  0.4605520000000  0.4712360000000 1.0
C      1  0.4134290000000  0.4877960000000  0.4925900000000 1.0
C      1  0.5043450000000  0.4672220000000  0.4336140000000 1.0
C      1  0.5096740000000  0.4956490000000  0.4261010000000 1.0
C      1  0.5106480000000  0.5685030000000  0.5323400000000 1.0
C      1  0.5252140000000  0.4742880000000  0.5713130000000 1.0
C      1  0.5075700000000  0.5433060000000  0.4606230000000 1.0
C      1  0.5340690000000  0.5075070000000  0.5373490000000 1.0
C      1  0.4661340000000  0.5145900000000  0.4719760000000 1.0
C      1  0.5448480000000  0.4844000000000  0.5535040000000 1.0
C      1  0.4519930000000  0.4882880000000  0.5254970000000 1.0
C      1  0.5301700000000  0.5496680000000  0.4448250000000 1.0
C      1  0.5487610000000  0.5671730000000  0.5095280000000 1.0
C      1  0.4806780000000  0.4870430000000  0.5142600000000 1.0
C      1  0.4834690000000  0.5102270000000  0.4271260000000 1.0
C      1  0.5467970000000  0.5273120000000  0.4477710000000 1.0
C      1  0.5257400000000  0.5829470000000  0.5130840000000 1.0
C      1  0.5806400000000  0.4807730000000  0.4951770000000 1.0
C      1  0.5609830000000  0.5239140000000  0.4741750000000 1.0
C      1  0.4557730000000  0.4952610000000  0.5630650000000 1.0
C      1  0.4511300000000  0.4667610000000  0.5582430000000 1.0
C      1  0.5001750000000  0.4281080000000  0.5029250000000 1.0
C      1  0.5580620000000  0.4934890000000  0.4823140000000 1.0
C      1  0.5747500000000  0.4698030000000  0.5189910000000 1.0
C      1  0.4440310000000  0.4483600000000  0.5088060000000 1.0
C      1  0.5007570000000  0.4702650000000  0.5280510000000 1.0
C      1  0.4756750000000  0.4647060000000  0.4412700000000 1.0
C      1  0.4816580000000  0.5540850000000  0.4951270000000 1.0
C      1  0.5282270000000  0.5544100000000  0.5518100000000 1.0
C      1  0.4440480000000  0.5000200000000  0.4561700000000 1.0
C      1  0.5271840000000  0.4391660000000  0.5002790000000 1.0
C      1  0.4492580000000  0.5316750000000  0.5173270000000 1.0
C      1  0.4611170000000  0.4896450000000  0.4328450000000 1.0
C      1  0.5512900000000  0.4647020000000  0.5331470000000 1.0
C      1  0.4843470000000  0.4912100000000  0.4850660000000 1.0
C      1  0.5282100000000  0.5036860000000  0.4494310000000 1.0
C      1  0.4223930000000  0.5237150000000  0.5221900000000 1.0
C      1  0.5125410000000  0.5040930000000  0.4813240000000 1.0
C      1  0.4230820000000  0.4962810000000  0.5172090000000 1.0
C      1  0.4835600000000  0.5279880000000  0.4510500000000 1.0
C      1  0.5540420000000  0.5526980000000  0.5360610000000 1.0
C      1  0.4583300000000  0.5378430000000  0.4903700000000 1.0
C      1  0.4301660000000  0.4784380000000  0.4722340000000 1.0
C      1  0.5133890000000  0.5340570000000  0.4883710000000 1.0
END
