TITL C-8704-7456-102 1.25838281622759e-05 125000 -361.701512273779 0 0 60 (C1) n - 1
REM
REM in /home/bkarasulu/CARBON/AIRSS/Generating-Clusters/EDIP-Nigel-Params/Higher-Symm/Box-15A/Only-C60/SD-CG/HFTN-CG
REM
REM
REM
REM
REM
REM ./C.cell (414f73aa93bd7a1190c7fd0f31ff2f98)
REM
REM compiler GCC version 9.2.1 20190827 (Red Hat 9.2.1-1)
REM options -cpp -mtune=generic -march=x86-64 -g -O0 -fpre-include=/usr/include/finclude/math-vector-fortran.h
REM seed 326635736 65093987 1600013383 1529266864 1264950440 -269682140 1858638688 1414680741 2020703381 2128003314 1631932658 -1311998919 1489977454 -1654858468 1712308763 -120434069 2139408939 222069251 -159121317 -1770284413 441264452 707295084 244503726 -1757665802 1353053944 -2143725767 7666328 -2044173597 -1843016056 -1668754878 1054024121 1818513418 -1600123289
REM
CELL 1.54180   50.00000   50.00000   50.00000   90.00000   90.00000   90.00000
LATT -1
SFAC C  
C      1  0.5137740000000  0.4657940000000  0.4317670000000 1.0
C      1  0.4853370000000  0.5333780000000  0.4304750000000 1.0
C      1  0.5114140000000  0.4688990000000  0.5685370000000 1.0
C      1  0.4879840000000  0.5308030000000  0.5692690000000 1.0
C      1  0.5154510000000  0.5016990000000  0.4831280000000 1.0
C      1  0.4849470000000  0.5026290000000  0.4833200000000 1.0
C      1  0.5164500000000  0.5012260000000  0.5146960000000 1.0
C      1  0.4853410000000  0.5001680000000  0.5143450000000 1.0
C      1  0.4882390000000  0.4688770000000  0.4443370000000 1.0
C      1  0.5111370000000  0.5305840000000  0.4427190000000 1.0
C      1  0.4852560000000  0.4679670000000  0.5582370000000 1.0
C      1  0.5142290000000  0.5318030000000  0.5591290000000 1.0
C      1  0.4746180000000  0.5246520000000  0.5304100000000 1.0
C      1  0.5259240000000  0.4757530000000  0.5300720000000 1.0
C      1  0.4742990000000  0.5254810000000  0.4665250000000 1.0
C      1  0.5250810000000  0.4766260000000  0.4670510000000 1.0
C      1  0.5650810000000  0.5244160000000  0.5259000000000 1.0
C      1  0.4348260000000  0.4737510000000  0.5251220000000 1.0
C      1  0.5643130000000  0.5248670000000  0.4739950000000 1.0
C      1  0.4368130000000  0.4751650000000  0.4744920000000 1.0
C      1  0.5769090000000  0.5003450000000  0.5258590000000 1.0
C      1  0.4241870000000  0.4984270000000  0.5248870000000 1.0
C      1  0.5766340000000  0.5010130000000  0.4744350000000 1.0
C      1  0.4246400000000  0.4991590000000  0.4751770000000 1.0
C      1  0.4834320000000  0.4638830000000  0.5286120000000 1.0
C      1  0.5167400000000  0.5376510000000  0.5298100000000 1.0
C      1  0.4846410000000  0.4597510000000  0.4723440000000 1.0
C      1  0.5159210000000  0.5398950000000  0.4714830000000 1.0
C      1  0.4714060000000  0.4873870000000  0.4319450000000 1.0
C      1  0.5274410000000  0.5117370000000  0.4304290000000 1.0
C      1  0.4689450000000  0.4872700000000  0.5694610000000 1.0
C      1  0.5306160000000  0.5122680000000  0.5698930000000 1.0
C      1  0.5427260000000  0.5365160000000  0.5148980000000 1.0
C      1  0.4570310000000  0.4604730000000  0.5150080000000 1.0
C      1  0.5421210000000  0.5364470000000  0.4858990000000 1.0
C      1  0.4584990000000  0.4619140000000  0.4859440000000 1.0
C      1  0.5562250000000  0.4557300000000  0.5155190000000 1.0
C      1  0.4441000000000  0.5437660000000  0.5149830000000 1.0
C      1  0.5542730000000  0.4570040000000  0.4845820000000 1.0
C      1  0.4450510000000  0.5444810000000  0.4839750000000 1.0
C      1  0.5695140000000  0.4751290000000  0.5344620000000 1.0
C      1  0.4309160000000  0.5238610000000  0.5335300000000 1.0
C      1  0.5684620000000  0.4760480000000  0.4655830000000 1.0
C      1  0.4309700000000  0.5243710000000  0.4654740000000 1.0
C      1  0.4413570000000  0.5226630000000  0.4395500000000 1.0
C      1  0.5575810000000  0.4772730000000  0.4398800000000 1.0
C      1  0.4422670000000  0.5241290000000  0.5589190000000 1.0
C      1  0.5573820000000  0.4752780000000  0.5595130000000 1.0
C      1  0.4956860000000  0.5573430000000  0.4863500000000 1.0
C      1  0.5050030000000  0.4436860000000  0.4864370000000 1.0
C      1  0.4947480000000  0.5557620000000  0.5163940000000 1.0
C      1  0.5054310000000  0.4449600000000  0.5162950000000 1.0
C      1  0.4650170000000  0.5146180000000  0.5717840000000 1.0
C      1  0.5343830000000  0.4848600000000  0.5718970000000 1.0
C      1  0.4643240000000  0.5138510000000  0.4260410000000 1.0
C      1  0.5345690000000  0.4851120000000  0.4258660000000 1.0
C      1  0.4666580000000  0.5599820000000  0.5273510000000 1.0
C      1  0.5332520000000  0.4400290000000  0.5276280000000 1.0
C      1  0.4690130000000  0.5609960000000  0.4741320000000 1.0
C      1  0.5314190000000  0.4403930000000  0.4742440000000 1.0
END
