TITL C-8700-8172-267 -2.81351811006638e-07 125000 -377.819097410109 0 0 60 (C1) n - 1
REM
REM in /home/bkarasulu/CARBON/AIRSS/Generating-Clusters/EDIP-Nigel-Params/Higher-Symm/Box-15A/Only-C60/SD-CG/HFTN-CG
REM
REM
REM
REM
REM
REM ./C.cell (414f73aa93bd7a1190c7fd0f31ff2f98)
REM
REM compiler GCC version 9.2.1 20190827 (Red Hat 9.2.1-1)
REM options -cpp -mtune=generic -march=x86-64 -g -O0 -fpre-include=/usr/include/finclude/math-vector-fortran.h
REM seed -1121497863 1434250174 -623980231 -2131409604 -1575554304 -1940696726 804852342 1437298050 1192679254 -2038009725 94307203 -1046910373 819752747 -1522599570 1993618902 -520073190 599284783 -1766395665 689534993 1070598040 -1095694735 684465505 1528848178 661580048 -2069826609 605155497 -1507358985 -1781015010 187683960 812741774 1787694362 -1411606746 532081243
REM
CELL 1.54180   50.00000   50.00000   50.00000   90.00000   90.00000   90.00000
LATT -1
SFAC C  
C      1  0.4614600000000  0.5040770000000  0.5634750000000 1.0
C      1  0.5367520000000  0.4937370000000  0.4385350000000 1.0
C      1  0.5270400000000  0.5495550000000  0.4545130000000 1.0
C      1  0.4726260000000  0.4494160000000  0.5451480000000 1.0
C      1  0.4781140000000  0.5518880000000  0.4554050000000 1.0
C      1  0.5215490000000  0.4494270000000  0.5443510000000 1.0
C      1  0.4541010000000  0.4420970000000  0.4887920000000 1.0
C      1  0.5469710000000  0.5582650000000  0.5109240000000 1.0
C      1  0.5273680000000  0.4336000000000  0.4996470000000 1.0
C      1  0.4736080000000  0.5677360000000  0.5004420000000 1.0
C      1  0.4496260000000  0.4639370000000  0.5340440000000 1.0
C      1  0.5494260000000  0.5351260000000  0.4665470000000 1.0
C      1  0.5059540000000  0.4790350000000  0.5010600000000 1.0
C      1  0.4935500000000  0.5211960000000  0.4975070000000 1.0
C      1  0.4664170000000  0.5313990000000  0.5629140000000 1.0
C      1  0.5357860000000  0.4660950000000  0.4351600000000 1.0
C      1  0.5221170000000  0.4560560000000  0.4572580000000 1.0
C      1  0.4788620000000  0.5454710000000  0.5424930000000 1.0
C      1  0.5101120000000  0.4965780000000  0.5601510000000 1.0
C      1  0.4881000000000  0.5026040000000  0.4419300000000 1.0
C      1  0.5077220000000  0.5460250000000  0.5419230000000 1.0
C      1  0.4931820000000  0.4529130000000  0.4569290000000 1.0
C      1  0.5686350000000  0.5154340000000  0.5039120000000 1.0
C      1  0.4322730000000  0.4853750000000  0.4956850000000 1.0
C      1  0.5575690000000  0.4686770000000  0.4919120000000 1.0
C      1  0.4429810000000  0.5324230000000  0.5091140000000 1.0
C      1  0.4846390000000  0.4884000000000  0.5730590000000 1.0
C      1  0.5137550000000  0.5094360000000  0.4287990000000 1.0
C      1  0.4982680000000  0.4316170000000  0.5048660000000 1.0
C      1  0.5028120000000  0.5694090000000  0.4949730000000 1.0
C      1  0.4775920000000  0.4741530000000  0.4425380000000 1.0
C      1  0.5214680000000  0.5247110000000  0.5585250000000 1.0
C      1  0.4812040000000  0.4399380000000  0.4818170000000 1.0
C      1  0.5199590000000  0.5604570000000  0.5179760000000 1.0
C      1  0.5030010000000  0.5492380000000  0.4721340000000 1.0
C      1  0.4967830000000  0.4517820000000  0.5274850000000 1.0
C      1  0.5288840000000  0.4603670000000  0.4860040000000 1.0
C      1  0.4717420000000  0.5408420000000  0.5138930000000 1.0
C      1  0.4379790000000  0.5406330000000  0.4803670000000 1.0
C      1  0.5619850000000  0.4616290000000  0.5208090000000 1.0
C      1  0.4787860000000  0.4607960000000  0.5703190000000 1.0
C      1  0.5202250000000  0.5368880000000  0.4302960000000 1.0
C      1  0.5304590000000  0.4752210000000  0.5562750000000 1.0
C      1  0.4683480000000  0.5255040000000  0.4443290000000 1.0
C      1  0.4521930000000  0.4925770000000  0.4740100000000 1.0
C      1  0.5464230000000  0.5079660000000  0.5231600000000 1.0
C      1  0.4819570000000  0.4951030000000  0.4852660000000 1.0
C      1  0.5171860000000  0.5054090000000  0.5117910000000 1.0
C      1  0.4579320000000  0.5630680000000  0.4747370000000 1.0
C      1  0.5424690000000  0.4389310000000  0.5256230000000 1.0
C      1  0.5543660000000  0.4841010000000  0.5404290000000 1.0
C      1  0.4447290000000  0.5185240000000  0.4610520000000 1.0
C      1  0.5481930000000  0.5223430000000  0.5483490000000 1.0
C      1  0.4509920000000  0.4727700000000  0.4522620000000 1.0
C      1  0.4508250000000  0.4924570000000  0.5387530000000 1.0
C      1  0.5505460000000  0.5068290000000  0.4609580000000 1.0
C      1  0.4346490000000  0.5051470000000  0.5180140000000 1.0
C      1  0.5670740000000  0.4951040000000  0.4819650000000 1.0
C      1  0.5611620000000  0.5419990000000  0.4929430000000 1.0
C      1  0.4395120000000  0.4585110000000  0.5064500000000 1.0
END
