TITL C-8700-8172-225 1.46108194121462e-06 125000 -367.747409623621 0 0 60 (C1) n - 1
REM
REM in /home/bkarasulu/CARBON/AIRSS/Generating-Clusters/EDIP-Nigel-Params/Higher-Symm/Box-15A/Only-C60/SD-CG/HFTN-CG
REM
REM
REM
REM
REM
REM ./C.cell (414f73aa93bd7a1190c7fd0f31ff2f98)
REM
REM compiler GCC version 9.2.1 20190827 (Red Hat 9.2.1-1)
REM options -cpp -mtune=generic -march=x86-64 -g -O0 -fpre-include=/usr/include/finclude/math-vector-fortran.h
REM seed -1739787811 -1125609344 638877029 126659062 382964003 1669120578 500503381 693703425 716761204 1637434151 548501140 -1381436974 -74750003 -1100108816 -1162541025 -855425645 233475288 79300382 102091237 1614775444 -2097902975 -36496312 1603411583 -1047175656 -309057837 320299158 1072549329 -151784111 1263241372 -1906862667 434024182 1393502031 -1393296320
REM
CELL 1.54180   50.00000   50.00000   50.00000   90.00000   90.00000   90.00000
LATT -1
SFAC C  
C      1  0.5227160000000  0.5160300000000  0.5044720000000 1.0
C      1  0.4914430000000  0.4848340000000  0.5106830000000 1.0
C      1  0.4902530000000  0.5194840000000  0.5168820000000 1.0
C      1  0.4735570000000  0.4902640000000  0.4865820000000 1.0
C      1  0.4898500000000  0.5178760000000  0.4785910000000 1.0
C      1  0.5206850000000  0.4860800000000  0.5033030000000 1.0
C      1  0.4466150000000  0.4557430000000  0.4779440000000 1.0
C      1  0.4966030000000  0.5437380000000  0.4431840000000 1.0
C      1  0.5461580000000  0.4638760000000  0.4673910000000 1.0
C      1  0.5496270000000  0.5427620000000  0.5259770000000 1.0
C      1  0.5079050000000  0.4624020000000  0.5503350000000 1.0
C      1  0.4576900000000  0.5473780000000  0.5270800000000 1.0
C      1  0.4656330000000  0.4439520000000  0.5221670000000 1.0
C      1  0.4650700000000  0.5543980000000  0.4777380000000 1.0
C      1  0.4982850000000  0.4489850000000  0.4703740000000 1.0
C      1  0.5275020000000  0.5539370000000  0.4831560000000 1.0
C      1  0.5418900000000  0.4433820000000  0.5146420000000 1.0
C      1  0.5042340000000  0.5535780000000  0.5416270000000 1.0
C      1  0.5342380000000  0.5107940000000  0.4486890000000 1.0
C      1  0.5678560000000  0.4866410000000  0.5039780000000 1.0
C      1  0.5301510000000  0.5091210000000  0.5602580000000 1.0
C      1  0.4651270000000  0.4855980000000  0.5504210000000 1.0
C      1  0.4374320000000  0.5141900000000  0.4941210000000 1.0
C      1  0.4686440000000  0.4833740000000  0.4418360000000 1.0
C      1  0.4812670000000  0.4988270000000  0.5704420000000 1.0
C      1  0.4332030000000  0.5018660000000  0.5195050000000 1.0
C      1  0.4442210000000  0.4992320000000  0.4451280000000 1.0
C      1  0.5143540000000  0.4972440000000  0.4321190000000 1.0
C      1  0.5735510000000  0.5026550000000  0.4795460000000 1.0
C      1  0.5545100000000  0.4954750000000  0.5511630000000 1.0
C      1  0.4839060000000  0.5737420000000  0.4838410000000 1.0
C      1  0.5010140000000  0.4283970000000  0.4908850000000 1.0
C      1  0.5088120000000  0.5729040000000  0.4956430000000 1.0
C      1  0.5257680000000  0.4239950000000  0.5025200000000 1.0
C      1  0.5080030000000  0.5743190000000  0.5233430000000 1.0
C      1  0.4797680000000  0.4249140000000  0.5079670000000 1.0
C      1  0.5549070000000  0.4676550000000  0.5549520000000 1.0
C      1  0.4768160000000  0.5265700000000  0.5696110000000 1.0
C      1  0.4282260000000  0.4745160000000  0.5180370000000 1.0
C      1  0.4493340000000  0.5263660000000  0.4409570000000 1.0
C      1  0.5172230000000  0.4696330000000  0.4299010000000 1.0
C      1  0.5697120000000  0.5301620000000  0.4838690000000 1.0
C      1  0.4819380000000  0.4669860000000  0.5340630000000 1.0
C      1  0.4561660000000  0.5368120000000  0.4993440000000 1.0
C      1  0.4726440000000  0.4663050000000  0.4668730000000 1.0
C      1  0.5165100000000  0.5328900000000  0.4636050000000 1.0
C      1  0.5444680000000  0.4684960000000  0.4975680000000 1.0
C      1  0.5248650000000  0.5325610000000  0.5402480000000 1.0
C      1  0.5216420000000  0.4545800000000  0.4532140000000 1.0
C      1  0.5524970000000  0.5477580000000  0.4973700000000 1.0
C      1  0.5353360000000  0.4510300000000  0.5432480000000 1.0
C      1  0.4771690000000  0.5461040000000  0.5492120000000 1.0
C      1  0.4419280000000  0.4527930000000  0.5067430000000 1.0
C      1  0.4684380000000  0.5446020000000  0.4506830000000 1.0
C      1  0.4574210000000  0.5092620000000  0.5343590000000 1.0
C      1  0.4369540000000  0.4922900000000  0.4729770000000 1.0
C      1  0.4880810000000  0.5060690000000  0.4415500000000 1.0
C      1  0.5561210000000  0.4912970000000  0.4579620000000 1.0
C      1  0.5551350000000  0.5051290000000  0.5232380000000 1.0
C      1  0.5089310000000  0.4881460000000  0.5668830000000 1.0
END
