TITL C-8700-8172-220 -0.0398693261597006 125000 -351.55144793642 0 0 60 (C1) n - 1
REM
REM in /home/bkarasulu/CARBON/AIRSS/Generating-Clusters/EDIP-Nigel-Params/Higher-Symm/Box-15A/Only-C60/SD-CG/HFTN-CG
REM
REM
REM
REM
REM
REM ./C.cell (414f73aa93bd7a1190c7fd0f31ff2f98)
REM
REM compiler GCC version 9.2.1 20190827 (Red Hat 9.2.1-1)
REM options -cpp -mtune=generic -march=x86-64 -g -O0 -fpre-include=/usr/include/finclude/math-vector-fortran.h
REM seed -972686098 577242396 706932325 -2022333918 160815530 -863723147 -1538625607 -410876384 -1632729089 -1864961010 687424039 -519479104 -1806374434 1886544219 -916631929 -79282407 -62319042 1235722899 -39373550 -1352540643 -752514724 526786558 1578732146 -95932214 2091148620 -373053537 -1416984031 1732460700 -291546013 26887663 321388467 32010513 -1420532804
REM
CELL 1.54180   50.00000   50.00000   50.00000   90.00000   90.00000   90.00000
LATT -1
SFAC C  
C      1  0.4462580000000  0.5401770000000  0.4662530000000 1.0
C      1  0.5279940000000  0.5644750000000  0.4709900000000 1.0
C      1  0.5597440000000  0.4953140000000  0.4647440000000 1.0
C      1  0.5161330000000  0.4325670000000  0.4680490000000 1.0
C      1  0.4374400000000  0.4588740000000  0.4655220000000 1.0
C      1  0.4312130000000  0.5209940000000  0.4832870000000 1.0
C      1  0.5026040000000  0.5686200000000  0.4854680000000 1.0
C      1  0.5610560000000  0.5195100000000  0.4838490000000 1.0
C      1  0.5364690000000  0.4496810000000  0.4809010000000 1.0
C      1  0.4524860000000  0.4446390000000  0.4863790000000 1.0
C      1  0.4408870000000  0.4702140000000  0.5320130000000 1.0
C      1  0.4556990000000  0.5399830000000  0.5214860000000 1.0
C      1  0.5251480000000  0.5451020000000  0.5283500000000 1.0
C      1  0.5449400000000  0.4952320000000  0.5253270000000 1.0
C      1  0.5070320000000  0.4657180000000  0.5180540000000 1.0
C      1  0.5127080000000  0.5401900000000  0.5546240000000 1.0
C      1  0.5433400000000  0.5034360000000  0.5551420000000 1.0
C      1  0.5095140000000  0.4726690000000  0.5489470000000 1.0
C      1  0.4565380000000  0.4704390000000  0.5571360000000 1.0
C      1  0.4655390000000  0.5283250000000  0.5459570000000 1.0
C      1  0.4825160000000  0.4573500000000  0.5539770000000 1.0
C      1  0.4483760000000  0.5077160000000  0.5569010000000 1.0
C      1  0.4844270000000  0.5491940000000  0.5540340000000 1.0
C      1  0.5608920000000  0.5274770000000  0.5560160000000 1.0
C      1  0.5372880000000  0.4651430000000  0.5562400000000 1.0
C      1  0.4565590000000  0.4694730000000  0.4455200000000 1.0
C      1  0.4594650000000  0.5260720000000  0.4439350000000 1.0
C      1  0.5220100000000  0.5554070000000  0.4421170000000 1.0
C      1  0.5554010000000  0.5100480000000  0.4402480000000 1.0
C      1  0.5073020000000  0.4466840000000  0.4434770000000 1.0
C      1  0.4819550000000  0.4487610000000  0.5241590000000 1.0
C      1  0.4343280000000  0.4994780000000  0.5319450000000 1.0
C      1  0.4819090000000  0.5664000000000  0.5301200000000 1.0
C      1  0.5549660000000  0.5381410000000  0.5298920000000 1.0
C      1  0.5501570000000  0.4662760000000  0.5289390000000 1.0
C      1  0.4815320000000  0.5515700000000  0.4728220000000 1.0
C      1  0.5369800000000  0.5353440000000  0.4783490000000 1.0
C      1  0.5365150000000  0.4760530000000  0.4664070000000 1.0
C      1  0.4777230000000  0.4348090000000  0.4742790000000 1.0
C      1  0.4289660000000  0.4964050000000  0.4679600000000 1.0
C      1  0.4432980000000  0.5170430000000  0.5094070000000 1.0
C      1  0.5068490000000  0.5655180000000  0.5152550000000 1.0
C      1  0.5640700000000  0.5140840000000  0.5129960000000 1.0
C      1  0.5324280000000  0.4497640000000  0.5106570000000 1.0
C      1  0.4586830000000  0.4598780000000  0.5107040000000 1.0
C      1  0.5241490000000  0.4706180000000  0.4392560000000 1.0
C      1  0.4808340000000  0.4548250000000  0.4538230000000 1.0
C      1  0.4531020000000  0.4981340000000  0.4522120000000 1.0
C      1  0.4876460000000  0.5374490000000  0.4468130000000 1.0
C      1  0.5316570000000  0.5261800000000  0.4494310000000 1.0
C      1  0.5088190000000  0.5075190000000  0.5905580000000 1.0
C      1  0.5014290000000  0.4884670000000  0.5012250000000 1.0
C      1  0.5167210000000  0.5133470000000  0.5647490000000 1.0
C      1  0.5016350000000  0.5009400000000  0.4773280000000 1.0
C      1  0.4993120000000  0.4991230000000  0.6137490000000 1.0
C      1  0.5082400000000  0.5082670000000  0.3787890000000 1.0
C      1  0.5056540000000  0.5121080000000  0.4509540000000 1.0
C      1  0.4909310000000  0.4921960000000  0.6368920000000 1.0
C      1  0.5062540000000  0.4918340000000  0.4291290000000 1.0
C      1  0.5096260000000  0.5003890000000  0.4031030000000 1.0
END
