TITL C-8705-8172-203 -2.64468853097438e-06 125000 -370.056593222535 0 0 60 (C1) n - 1
REM
REM in /home/bkarasulu/CARBON/AIRSS/Generating-Clusters/EDIP-Nigel-Params/Higher-Symm/Box-15A/Only-C60/SD-CG/HFTN-CG
REM
REM
REM
REM
REM
REM ./C.cell (414f73aa93bd7a1190c7fd0f31ff2f98)
REM
REM compiler GCC version 9.2.1 20190827 (Red Hat 9.2.1-1)
REM options -cpp -mtune=generic -march=x86-64 -g -O0 -fpre-include=/usr/include/finclude/math-vector-fortran.h
REM seed -1641776494 -1987658259 328151134 -267866218 -1711169439 1563664188 -1328502240 1442222462 -2091290062 -2067925845 -1679019268 2001275354 -2058454059 -1900187518 -939760138 290736111 1008120707 -2131867514 1055749065 -1403582747 1604036385 1724679361 1388540611 1862362784 1193146353 -1465296476 -2029798376 -122486588 -851713031 -1176102778 -1551201881 264282889 -1248898223
REM
CELL 1.54180   50.00000   50.00000   50.00000   90.00000   90.00000   90.00000
LATT -1
SFAC C  
C      1  0.4371210000000  0.4924560000000  0.5179270000000 1.0
C      1  0.5147670000000  0.4944550000000  0.4361700000000 1.0
C      1  0.5497680000000  0.4960140000000  0.5466330000000 1.0
C      1  0.4427710000000  0.4889910000000  0.4873620000000 1.0
C      1  0.5389730000000  0.4891430000000  0.4564290000000 1.0
C      1  0.5199140000000  0.4889100000000  0.5556040000000 1.0
C      1  0.5153480000000  0.5180070000000  0.4882490000000 1.0
C      1  0.5031870000000  0.5175790000000  0.5195990000000 1.0
C      1  0.4825430000000  0.5177920000000  0.4918190000000 1.0
C      1  0.5596290000000  0.5269410000000  0.5082500000000 1.0
C      1  0.4628850000000  0.5241960000000  0.5481800000000 1.0
C      1  0.4767760000000  0.5267760000000  0.4442150000000 1.0
C      1  0.5791070000000  0.5097500000000  0.4950670000000 1.0
C      1  0.4665770000000  0.5043660000000  0.5691400000000 1.0
C      1  0.4559380000000  0.5090200000000  0.4344380000000 1.0
C      1  0.4597410000000  0.4763670000000  0.5623400000000 1.0
C      1  0.4636450000000  0.4807550000000  0.4319560000000 1.0
C      1  0.5781230000000  0.4816670000000  0.5036290000000 1.0
C      1  0.5089540000000  0.4596780000000  0.5631330000000 1.0
C      1  0.4389320000000  0.4625480000000  0.4726090000000 1.0
C      1  0.5516180000000  0.4617300000000  0.4641110000000 1.0
C      1  0.5233910000000  0.4486480000000  0.5029780000000 1.0
C      1  0.4950140000000  0.4455820000000  0.5123590000000 1.0
C      1  0.4832940000000  0.4445370000000  0.4838570000000 1.0
C      1  0.4917200000000  0.4750430000000  0.4419430000000 1.0
C      1  0.5559610000000  0.4770840000000  0.5237220000000 1.0
C      1  0.4549600000000  0.4725910000000  0.5328010000000 1.0
C      1  0.4925030000000  0.4719590000000  0.4723440000000 1.0
C      1  0.5290330000000  0.4763620000000  0.5091740000000 1.0
C      1  0.4814880000000  0.4741640000000  0.5173580000000 1.0
C      1  0.5099120000000  0.5126890000000  0.5714700000000 1.0
C      1  0.4338670000000  0.5140800000000  0.4725340000000 1.0
C      1  0.5565700000000  0.5140780000000  0.4570980000000 1.0
C      1  0.5461380000000  0.5484740000000  0.4945740000000 1.0
C      1  0.4811770000000  0.5464320000000  0.5439560000000 1.0
C      1  0.4716330000000  0.5485420000000  0.4627780000000 1.0
C      1  0.4532510000000  0.5442560000000  0.5093520000000 1.0
C      1  0.5155090000000  0.5458850000000  0.4552700000000 1.0
C      1  0.5306650000000  0.5458950000000  0.5369140000000 1.0
C      1  0.4438430000000  0.4651470000000  0.4450760000000 1.0
C      1  0.5742340000000  0.4654000000000  0.4805080000000 1.0
C      1  0.4805420000000  0.4576040000000  0.5717100000000 1.0
C      1  0.4817530000000  0.5551620000000  0.5147690000000 1.0
C      1  0.4967850000000  0.5564490000000  0.4778110000000 1.0
C      1  0.5206660000000  0.5563030000000  0.5090570000000 1.0
C      1  0.5213130000000  0.4892370000000  0.4817380000000 1.0
C      1  0.5070930000000  0.4890680000000  0.5276350000000 1.0
C      1  0.4735980000000  0.4891600000000  0.4901860000000 1.0
C      1  0.4986320000000  0.4394970000000  0.5429320000000 1.0
C      1  0.4555300000000  0.4426410000000  0.4828160000000 1.0
C      1  0.5331020000000  0.4443020000000  0.4767120000000 1.0
C      1  0.5077960000000  0.5372640000000  0.5537620000000 1.0
C      1  0.4502550000000  0.5379620000000  0.4807500000000 1.0
C      1  0.5415660000000  0.5384100000000  0.4669510000000 1.0
C      1  0.4298800000000  0.5125850000000  0.4447370000000 1.0
C      1  0.5826570000000  0.5123890000000  0.4672070000000 1.0
C      1  0.4874280000000  0.5082190000000  0.5876970000000 1.0
C      1  0.4441480000000  0.5213100000000  0.5267710000000 1.0
C      1  0.5045200000000  0.5235980000000  0.4379630000000 1.0
C      1  0.5522580000000  0.5248530000000  0.5358710000000 1.0
END
