TITL C-8705-8172-298 -8.83971084535065e-07 125000 -354.967352893881 0 0 60 (C4v) n - 1
REM
REM in /home/bkarasulu/CARBON/AIRSS/Generating-Clusters/EDIP-Nigel-Params/Higher-Symm/Box-15A/Only-C60/SD-CG/HFTN-CG
REM
REM
REM
REM
REM
REM ./C.cell (414f73aa93bd7a1190c7fd0f31ff2f98)
REM
REM compiler GCC version 9.2.1 20190827 (Red Hat 9.2.1-1)
REM options -cpp -mtune=generic -march=x86-64 -g -O0 -fpre-include=/usr/include/finclude/math-vector-fortran.h
REM seed -1305449640 979940071 -674414060 -1678723297 1270027821 1077847943 -1475348963 -1016001167 558532307 2143867084 -269963498 1682284625 -817154043 -856737251 254747041 -988570280 113785282 -45157256 831347398 2072555592 -119556774 -1314404744 -1329760507 2000939786 -1090709999 -901823955 1149325069 -492234824 -1586269120 854408492 -1212370957 -422391589 -1419732423
REM
CELL 1.54180   50.00000   50.00000   50.00000   90.00000   90.00000   90.00000
LATT -1
SFAC C  
C      1  0.4805180000000  0.4990360000000  0.5703780000000 1.0
C      1  0.5703780000000  0.4990340000000  0.5194820000000 1.0
C      1  0.5194820000000  0.4990370000000  0.4296220000000 1.0
C      1  0.4296220000000  0.4990400000000  0.4805180000000 1.0
C      1  0.5194830000000  0.4990350000000  0.5703780000000 1.0
C      1  0.4296220000000  0.4990390000000  0.5194830000000 1.0
C      1  0.4805170000000  0.4990390000000  0.4296220000000 1.0
C      1  0.5703780000000  0.4990350000000  0.4805170000000 1.0
C      1  0.5345460000000  0.4517690000000  0.5142890000000 1.0
C      1  0.5142880000000  0.4517710000000  0.4654520000000 1.0
C      1  0.4654510000000  0.4517720000000  0.4857100000000 1.0
C      1  0.4857090000000  0.4517710000000  0.5345470000000 1.0
C      1  0.4654510000000  0.4517720000000  0.5142890000000 1.0
C      1  0.4857080000000  0.4517720000000  0.4654520000000 1.0
C      1  0.5345460000000  0.4517700000000  0.4857090000000 1.0
C      1  0.5142880000000  0.4517700000000  0.5345460000000 1.0
C      1  0.5281320000000  0.5414320000000  0.5485200000000 1.0
C      1  0.5485210000000  0.5414330000000  0.4718700000000 1.0
C      1  0.4718710000000  0.5414360000000  0.4514810000000 1.0
C      1  0.4514820000000  0.5414350000000  0.5281310000000 1.0
C      1  0.4718710000000  0.5414340000000  0.5485200000000 1.0
C      1  0.4514820000000  0.5414360000000  0.4718700000000 1.0
C      1  0.5281320000000  0.5414340000000  0.4514810000000 1.0
C      1  0.5485210000000  0.5414320000000  0.5281310000000 1.0
C      1  0.4859020000000  0.5659000000000  0.5410450000000 1.0
C      1  0.5410470000000  0.5658980000000  0.5141010000000 1.0
C      1  0.5141030000000  0.5659000000000  0.4589570000000 1.0
C      1  0.4589580000000  0.5659020000000  0.4859010000000 1.0
C      1  0.5141030000000  0.5658990000000  0.5410450000000 1.0
C      1  0.4589580000000  0.5659010000000  0.5141020000000 1.0
C      1  0.4859010000000  0.5659010000000  0.4589570000000 1.0
C      1  0.5410470000000  0.5658990000000  0.4859000000000 1.0
C      1  0.4850480000000  0.5143800000000  0.5462290000000 1.0
C      1  0.5462290000000  0.5143790000000  0.5149530000000 1.0
C      1  0.5149530000000  0.5143810000000  0.4537710000000 1.0
C      1  0.4537720000000  0.5143820000000  0.4850470000000 1.0
C      1  0.5149540000000  0.5143790000000  0.5462290000000 1.0
C      1  0.4537720000000  0.5143820000000  0.5149540000000 1.0
C      1  0.4850470000000  0.5143820000000  0.4537710000000 1.0
C      1  0.5462290000000  0.5143790000000  0.4850470000000 1.0
C      1  0.4394280000000  0.4532600000000  0.5256300000000 1.0
C      1  0.5256290000000  0.4532560000000  0.5605700000000 1.0
C      1  0.5605690000000  0.4532570000000  0.4743690000000 1.0
C      1  0.4743680000000  0.4532600000000  0.4394290000000 1.0
C      1  0.5605690000000  0.4532560000000  0.5256290000000 1.0
C      1  0.4743690000000  0.4532580000000  0.5605700000000 1.0
C      1  0.4394280000000  0.4532610000000  0.4743690000000 1.0
C      1  0.5256280000000  0.4532580000000  0.4394290000000 1.0
C      1  0.5380030000000  0.4789140000000  0.5601450000000 1.0
C      1  0.5601450000000  0.4789150000000  0.4619960000000 1.0
C      1  0.4619960000000  0.4789190000000  0.4398540000000 1.0
C      1  0.4398540000000  0.4789180000000  0.5380030000000 1.0
C      1  0.4619960000000  0.4789170000000  0.5601460000000 1.0
C      1  0.4398530000000  0.4789190000000  0.4619970000000 1.0
C      1  0.5380020000000  0.4789160000000  0.4398530000000 1.0
C      1  0.5601450000000  0.4789140000000  0.5380030000000 1.0
C      1  0.5173900000000  0.4922230000000  0.4826090000000 1.0
C      1  0.4826090000000  0.4922250000000  0.4826100000000 1.0
C      1  0.4826090000000  0.4922240000000  0.5173900000000 1.0
C      1  0.5173900000000  0.4922230000000  0.5173900000000 1.0
END
