TITL C-8700-8172-168 -3.89897157359454e-06 125000 -364.57881689491 0 0 60 (C1) n - 1
REM
REM in /home/bkarasulu/CARBON/AIRSS/Generating-Clusters/EDIP-Nigel-Params/Higher-Symm/Box-15A/Only-C60/SD-CG/HFTN-CG
REM
REM
REM
REM
REM
REM ./C.cell (414f73aa93bd7a1190c7fd0f31ff2f98)
REM
REM compiler GCC version 9.2.1 20190827 (Red Hat 9.2.1-1)
REM options -cpp -mtune=generic -march=x86-64 -g -O0 -fpre-include=/usr/include/finclude/math-vector-fortran.h
REM seed -302147199 -751547272 -1596465037 2054098250 380629852 1856979101 -750910457 110037917 -1966965567 -285659161 -122608899 -703162117 -1947887820 595569278 -226157784 -1036410161 656703809 1215628773 425604022 112119937 608766447 -2141342499 -698110568 -598265794 -1641319469 1890263092 2079639351 396530518 -1655681700 -951238344 651848800 -1934118524 1264731540
REM
CELL 1.54180   50.00000   50.00000   50.00000   90.00000   90.00000   90.00000
LATT -1
SFAC C  
C      1  0.5060100000000  0.5256290000000  0.3960410000000 1.0
C      1  0.5219340000000  0.5025660000000  0.4021950000000 1.0
C      1  0.5021420000000  0.4791050000000  0.4012060000000 1.0
C      1  0.4770150000000  0.4912320000000  0.3944950000000 1.0
C      1  0.4804240000000  0.5172950000000  0.4059660000000 1.0
C      1  0.5018420000000  0.4825420000000  0.6104090000000 1.0
C      1  0.5190280000000  0.5039360000000  0.6020340000000 1.0
C      1  0.4999290000000  0.5271530000000  0.5960050000000 1.0
C      1  0.4738640000000  0.5169090000000  0.6022580000000 1.0
C      1  0.4776060000000  0.4890770000000  0.5964950000000 1.0
C      1  0.5141880000000  0.5512810000000  0.5519870000000 1.0
C      1  0.5504550000000  0.5040390000000  0.5514190000000 1.0
C      1  0.5187950000000  0.4519930000000  0.5511710000000 1.0
C      1  0.4623520000000  0.4660570000000  0.5480720000000 1.0
C      1  0.4609320000000  0.5261540000000  0.5424240000000 1.0
C      1  0.5123390000000  0.4474890000000  0.4430470000000 1.0
C      1  0.5533390000000  0.4960990000000  0.4462010000000 1.0
C      1  0.5185920000000  0.5449060000000  0.4565550000000 1.0
C      1  0.4590050000000  0.5327920000000  0.4528480000000 1.0
C      1  0.4595590000000  0.4713210000000  0.4566280000000 1.0
C      1  0.4893190000000  0.5279210000000  0.4850570000000 1.0
C      1  0.5285580000000  0.5120610000000  0.4842020000000 1.0
C      1  0.5240840000000  0.4830650000000  0.4775190000000 1.0
C      1  0.4965600000000  0.4702710000000  0.4813770000000 1.0
C      1  0.4707340000000  0.5035850000000  0.4841860000000 1.0
C      1  0.4924560000000  0.4728580000000  0.5123510000000 1.0
C      1  0.5206800000000  0.4843030000000  0.5215130000000 1.0
C      1  0.5236920000000  0.5145720000000  0.5147380000000 1.0
C      1  0.4961270000000  0.5290910000000  0.5152540000000 1.0
C      1  0.4714770000000  0.4947710000000  0.5134530000000 1.0
C      1  0.4965470000000  0.5566990000000  0.5289220000000 1.0
C      1  0.5455320000000  0.5263520000000  0.5326820000000 1.0
C      1  0.5422980000000  0.4557940000000  0.5355000000000 1.0
C      1  0.4801930000000  0.4504880000000  0.5294240000000 1.0
C      1  0.4404740000000  0.5095360000000  0.5315520000000 1.0
C      1  0.4968750000000  0.4420540000000  0.4680020000000 1.0
C      1  0.5452480000000  0.4715790000000  0.4608530000000 1.0
C      1  0.5451320000000  0.5424840000000  0.4667620000000 1.0
C      1  0.4726610000000  0.5511900000000  0.4727590000000 1.0
C      1  0.4391940000000  0.4874500000000  0.4683560000000 1.0
C      1  0.4390370000000  0.5157920000000  0.4659880000000 1.0
C      1  0.4980630000000  0.5622830000000  0.4652500000000 1.0
C      1  0.5603860000000  0.5184780000000  0.4640360000000 1.0
C      1  0.5400280000000  0.4477160000000  0.4467400000000 1.0
C      1  0.4684920000000  0.4460030000000  0.4655670000000 1.0
C      1  0.4418090000000  0.4810870000000  0.5333840000000 1.0
C      1  0.4989740000000  0.4341530000000  0.5426010000000 1.0
C      1  0.5563240000000  0.4801970000000  0.5360340000000 1.0
C      1  0.5412150000000  0.5510790000000  0.5451320000000 1.0
C      1  0.4685220000000  0.5521200000000  0.5339720000000 1.0
C      1  0.5082970000000  0.5208830000000  0.4458650000000 1.0
C      1  0.5253100000000  0.5001580000000  0.4330390000000 1.0
C      1  0.5037080000000  0.4746350000000  0.4318410000000 1.0
C      1  0.4796600000000  0.4869340000000  0.4442130000000 1.0
C      1  0.4799870000000  0.5161650000000  0.4369140000000 1.0
C      1  0.5091680000000  0.4769440000000  0.5625870000000 1.0
C      1  0.5259340000000  0.5007980000000  0.5703230000000 1.0
C      1  0.5050750000000  0.5254260000000  0.5657150000000 1.0
C      1  0.4824170000000  0.5112100000000  0.5530480000000 1.0
C      1  0.4804040000000  0.4842430000000  0.5658320000000 1.0
END
