TITL C-8700-8172-13 -5.82867388332092e-07 125000 -363.766278611549 0 0 60 (C2) n - 1
REM
REM in /home/bkarasulu/CARBON/AIRSS/Generating-Clusters/EDIP-Nigel-Params/Higher-Symm/Box-15A/Only-C60/SD-CG/HFTN-CG
REM
REM
REM
REM
REM
REM ./C.cell (414f73aa93bd7a1190c7fd0f31ff2f98)
REM
REM compiler GCC version 9.2.1 20190827 (Red Hat 9.2.1-1)
REM options -cpp -mtune=generic -march=x86-64 -g -O0 -fpre-include=/usr/include/finclude/math-vector-fortran.h
REM seed 1189346315 284412479 371652503 1892636729 752142358 -504758907 1204054737 781308859 -325566235 -630972267 -1318550322 -100919539 -1164483534 -1528766716 1036804451 -1153171310 1848930531 -1917243739 270249833 554942181 -730715698 -338929245 -806675382 -1480416081 -1323813479 1947834741 2063144138 -948680256 -1566162859 -1600413685 618468131 -733535204 -1827499777
REM
CELL 1.54180   50.00000   50.00000   50.00000   90.00000   90.00000   90.00000
LATT -1
SFAC C  
C      1  0.5446740000000  0.5292330000000  0.4699430000000 1.0
C      1  0.5417510000000  0.4645450000000  0.4690170000000 1.0
C      1  0.4806310000000  0.4506610000000  0.4701280000000 1.0
C      1  0.4495090000000  0.5034550000000  0.4693810000000 1.0
C      1  0.4862070000000  0.5507090000000  0.4706690000000 1.0
C      1  0.5446740000000  0.4707670000000  0.5300570000000 1.0
C      1  0.5417510000000  0.5354540000000  0.5309830000000 1.0
C      1  0.4806320000000  0.5493390000000  0.5298720000000 1.0
C      1  0.4495090000000  0.4965450000000  0.5306190000000 1.0
C      1  0.4862070000000  0.4492910000000  0.5293310000000 1.0
C      1  0.4772880000000  0.4990160000000  0.5221620000000 1.0
C      1  0.4913690000000  0.5242120000000  0.5157690000000 1.0
C      1  0.5200110000000  0.5156770000000  0.5223370000000 1.0
C      1  0.5221430000000  0.4855960000000  0.5165460000000 1.0
C      1  0.4930390000000  0.4754580000000  0.5142840000000 1.0
C      1  0.4772870000000  0.5009840000000  0.4778380000000 1.0
C      1  0.4913680000000  0.4757880000000  0.4842310000000 1.0
C      1  0.5200100000000  0.4843230000000  0.4776630000000 1.0
C      1  0.5221430000000  0.5144040000000  0.4834540000000 1.0
C      1  0.4930390000000  0.5245420000000  0.4857160000000 1.0
C      1  0.4407660000000  0.4654820000000  0.5149560000000 1.0
C      1  0.4469170000000  0.5427740000000  0.5120960000000 1.0
C      1  0.5266360000000  0.5645750000000  0.5143250000000 1.0
C      1  0.5688500000000  0.4954220000000  0.5135830000000 1.0
C      1  0.5169600000000  0.4330400000000  0.5127490000000 1.0
C      1  0.4407660000000  0.5345180000000  0.4850450000000 1.0
C      1  0.4469160000000  0.4572270000000  0.4879040000000 1.0
C      1  0.5266360000000  0.4354250000000  0.4856740000000 1.0
C      1  0.5688490000000  0.5045770000000  0.4864160000000 1.0
C      1  0.5169600000000  0.5669600000000  0.4872500000000 1.0
C      1  0.5051790000000  0.5510030000000  0.4464760000000 1.0
C      1  0.5504190000000  0.5105000000000  0.4462940000000 1.0
C      1  0.5249020000000  0.4542930000000  0.4452710000000 1.0
C      1  0.4643660000000  0.4616580000000  0.4457170000000 1.0
C      1  0.4521740000000  0.5215800000000  0.4439120000000 1.0
C      1  0.5051800000000  0.4489970000000  0.5535240000000 1.0
C      1  0.5504200000000  0.4895000000000  0.5537060000000 1.0
C      1  0.5249030000000  0.5457070000000  0.5547290000000 1.0
C      1  0.4643660000000  0.5383430000000  0.5542840000000 1.0
C      1  0.4521750000000  0.4784200000000  0.5560890000000 1.0
C      1  0.5621950000000  0.4878350000000  0.4628080000000 1.0
C      1  0.5074750000000  0.4365350000000  0.4625650000000 1.0
C      1  0.4430720000000  0.4736360000000  0.4637640000000 1.0
C      1  0.4565180000000  0.5465730000000  0.4620260000000 1.0
C      1  0.5297810000000  0.5554300000000  0.4633100000000 1.0
C      1  0.5621960000000  0.5121650000000  0.5371910000000 1.0
C      1  0.5074760000000  0.5634650000000  0.5374350000000 1.0
C      1  0.4430720000000  0.5263640000000  0.5362370000000 1.0
C      1  0.4565180000000  0.4534280000000  0.5379740000000 1.0
C      1  0.5297810000000  0.4445700000000  0.5366890000000 1.0
C      1  0.4817300000000  0.4810100000000  0.4298590000000 1.0
C      1  0.4762410000000  0.5116110000000  0.4279620000000 1.0
C      1  0.5035180000000  0.5252180000000  0.4311630000000 1.0
C      1  0.5246760000000  0.5041490000000  0.4325300000000 1.0
C      1  0.5110010000000  0.4781160000000  0.4347150000000 1.0
C      1  0.4817310000000  0.5189900000000  0.5701410000000 1.0
C      1  0.4762420000000  0.4883890000000  0.5720390000000 1.0
C      1  0.5035190000000  0.4747820000000  0.5688370000000 1.0
C      1  0.5246770000000  0.4958500000000  0.5674690000000 1.0
C      1  0.5110020000000  0.5218840000000  0.5652850000000 1.0
END
