TITL C-8704-7456-76 3.31833975419678e-05 125000 -364.68973172947 0 0 60 (C1) n - 1
REM
REM in /home/bkarasulu/CARBON/AIRSS/Generating-Clusters/EDIP-Nigel-Params/Higher-Symm/Box-15A/Only-C60/SD-CG/HFTN-CG
REM
REM
REM
REM
REM
REM ./C.cell (414f73aa93bd7a1190c7fd0f31ff2f98)
REM
REM compiler GCC version 9.2.1 20190827 (Red Hat 9.2.1-1)
REM options -cpp -mtune=generic -march=x86-64 -g -O0 -fpre-include=/usr/include/finclude/math-vector-fortran.h
REM seed 1054004540 -1018190982 -1987875056 312953630 333524517 -77855637 243485590 -737603434 -716597959 -1479605731 -556892788 -1137665180 339423398 728908062 -482023424 -826511695 -890009504 -228719160 919855224 -1855149801 1897843090 -242619308 -1081357435 1670232324 853251254 -365556928 -1176459819 1848093162 -1937349111 -1794348189 894932905 -1122950322 1126729388
REM
CELL 1.54180   50.00000   50.00000   50.00000   90.00000   90.00000   90.00000
LATT -1
SFAC C  
C      1  0.4622940000000  0.5571200000000  0.5106900000000 1.0
C      1  0.5748540000000  0.5229920000000  0.5344620000000 1.0
C      1  0.4669550000000  0.4589140000000  0.4549040000000 1.0
C      1  0.4491120000000  0.5175870000000  0.4689030000000 1.0
C      1  0.5344880000000  0.5012630000000  0.4642450000000 1.0
C      1  0.4937120000000  0.4943250000000  0.4324310000000 1.0
C      1  0.5258410000000  0.4530990000000  0.4749180000000 1.0
C      1  0.5471060000000  0.4888660000000  0.5084930000000 1.0
C      1  0.5074050000000  0.4683700000000  0.4293760000000 1.0
C      1  0.4693940000000  0.4506390000000  0.5420280000000 1.0
C      1  0.5604440000000  0.5430740000000  0.5494370000000 1.0
C      1  0.5059080000000  0.5006300000000  0.5806840000000 1.0
C      1  0.5007020000000  0.4163110000000  0.4810830000000 1.0
C      1  0.4561080000000  0.4911180000000  0.5106060000000 1.0
C      1  0.4788000000000  0.4879440000000  0.4925220000000 1.0
C      1  0.4564790000000  0.5254380000000  0.5466190000000 1.0
C      1  0.5424590000000  0.4881860000000  0.5368960000000 1.0
C      1  0.5423990000000  0.5594610000000  0.5090330000000 1.0
C      1  0.4690110000000  0.4991710000000  0.5371690000000 1.0
C      1  0.5074460000000  0.4260520000000  0.4548940000000 1.0
C      1  0.4776070000000  0.5073920000000  0.4716800000000 1.0
C      1  0.4973500000000  0.4646420000000  0.4865520000000 1.0
C      1  0.5419990000000  0.4729390000000  0.4567780000000 1.0
C      1  0.5659960000000  0.5096140000000  0.5004820000000 1.0
C      1  0.4891810000000  0.5327450000000  0.4857300000000 1.0
C      1  0.4866240000000  0.5497800000000  0.5249170000000 1.0
C      1  0.4570900000000  0.4428620000000  0.4786030000000 1.0
C      1  0.4830720000000  0.4372840000000  0.4940270000000 1.0
C      1  0.4764790000000  0.5454160000000  0.4404980000000 1.0
C      1  0.4334900000000  0.4496800000000  0.4920520000000 1.0
C      1  0.5357870000000  0.4682950000000  0.4298430000000 1.0
C      1  0.4926420000000  0.5665940000000  0.5488840000000 1.0
C      1  0.5040600000000  0.5405200000000  0.4452720000000 1.0
C      1  0.5239180000000  0.4121630000000  0.4968080000000 1.0
C      1  0.5326330000000  0.5418810000000  0.4887020000000 1.0
C      1  0.4729780000000  0.4750120000000  0.5555440000000 1.0
C      1  0.5010020000000  0.4773480000000  0.5655130000000 1.0
C      1  0.4659580000000  0.4899390000000  0.4468160000000 1.0
C      1  0.5128240000000  0.5128390000000  0.4454100000000 1.0
C      1  0.5224810000000  0.4933050000000  0.4915520000000 1.0
C      1  0.5118750000000  0.5209490000000  0.5029390000000 1.0
C      1  0.5607370000000  0.5045150000000  0.5517370000000 1.0
C      1  0.4556400000000  0.5456970000000  0.4596840000000 1.0
C      1  0.4931700000000  0.4492760000000  0.4456610000000 1.0
C      1  0.5202480000000  0.5705900000000  0.5500070000000 1.0
C      1  0.4396840000000  0.4675650000000  0.5111380000000 1.0
C      1  0.4941880000000  0.5723280000000  0.4774160000000 1.0
C      1  0.5320260000000  0.4389820000000  0.5025490000000 1.0
C      1  0.4867400000000  0.4374420000000  0.5245290000000 1.0
C      1  0.4969370000000  0.5135100000000  0.5336510000000 1.0
C      1  0.4663200000000  0.5637800000000  0.4816700000000 1.0
C      1  0.5430770000000  0.5615890000000  0.5366210000000 1.0
C      1  0.5537610000000  0.5228220000000  0.4771000000000 1.0
C      1  0.4444670000000  0.5362740000000  0.5201220000000 1.0
C      1  0.5164000000000  0.5575730000000  0.4663810000000 1.0
C      1  0.5045680000000  0.5215630000000  0.5624970000000 1.0
C      1  0.4805970000000  0.5409830000000  0.5628840000000 1.0
C      1  0.4406150000000  0.5144020000000  0.4993020000000 1.0
C      1  0.5210950000000  0.4697980000000  0.5446380000000 1.0
C      1  0.5137740000000  0.4495510000000  0.5244180000000 1.0
END
