TITL C-8706-7473-118 -1.05584918061034e-05 125000 -352.371898394766 0 0 60 (C1) n - 1
REM
REM in /home/bkarasulu/CARBON/AIRSS/Generating-Clusters/EDIP-Nigel-Params/Higher-Symm/Box-15A/Only-C60/SD-CG/HFTN-CG
REM
REM
REM
REM
REM
REM ./C.cell (414f73aa93bd7a1190c7fd0f31ff2f98)
REM
REM compiler GCC version 9.2.1 20190827 (Red Hat 9.2.1-1)
REM options -cpp -mtune=generic -march=x86-64 -g -O0 -fpre-include=/usr/include/finclude/math-vector-fortran.h
REM seed 48260656 -1521932933 804685854 -532745862 1898672687 -1780543262 -1092241604 1271254569 -1981054322 226866166 1346459312 -1748384669 920772031 313828715 -464620366 1734805823 -1761367596 -1097601175 1752260276 309418588 1826953274 1125285642 -1807301707 -1958977291 207860036 2042099516 -1869962608 638260690 -1023848499 -343373402 -355421212 572434571 -1652634267
REM
CELL 1.54180   50.00000   50.00000   50.00000   90.00000   90.00000   90.00000
LATT -1
SFAC C  
C      1  0.4431700000000  0.4606660000000  0.5164440000000 1.0
C      1  0.4389990000000  0.5441750000000  0.5256640000000 1.0
C      1  0.4360050000000  0.4974470000000  0.4510650000000 1.0
C      1  0.5205120000000  0.4983340000000  0.5370180000000 1.0
C      1  0.5191680000000  0.5265200000000  0.4884320000000 1.0
C      1  0.5160530000000  0.4701700000000  0.4840010000000 1.0
C      1  0.4997590000000  0.4848320000000  0.5100990000000 1.0
C      1  0.5034830000000  0.5174000000000  0.5160500000000 1.0
C      1  0.5042010000000  0.5016990000000  0.4748270000000 1.0
C      1  0.5036420000000  0.5149540000000  0.5741410000000 1.0
C      1  0.4951150000000  0.5570610000000  0.4502730000000 1.0
C      1  0.5088610000000  0.4302390000000  0.4681480000000 1.0
C      1  0.5701340000000  0.4480750000000  0.5278450000000 1.0
C      1  0.5736540000000  0.5433700000000  0.5302700000000 1.0
C      1  0.5691310000000  0.4973980000000  0.4474420000000 1.0
C      1  0.5122960000000  0.5383270000000  0.5540950000000 1.0
C      1  0.4980510000000  0.5312950000000  0.4338000000000 1.0
C      1  0.5141240000000  0.4329540000000  0.5057570000000 1.0
C      1  0.4807690000000  0.4348950000000  0.4766160000000 1.0
C      1  0.4751940000000  0.5152910000000  0.5617870000000 1.0
C      1  0.4685490000000  0.5492940000000  0.4614120000000 1.0
C      1  0.4119200000000  0.4784410000000  0.4864480000000 1.0
C      1  0.4199000000000  0.5004700000000  0.5264260000000 1.0
C      1  0.4192170000000  0.5242140000000  0.4866880000000 1.0
C      1  0.5852640000000  0.4671430000000  0.5160060000000 1.0
C      1  0.5883540000000  0.5240580000000  0.5182170000000 1.0
C      1  0.5852280000000  0.4959640000000  0.4692150000000 1.0
C      1  0.5236260000000  0.5633920000000  0.5483900000000 1.0
C      1  0.5228010000000  0.5197960000000  0.4268700000000 1.0
C      1  0.5260880000000  0.4311490000000  0.5304930000000 1.0
C      1  0.5458520000000  0.4725830000000  0.4876370000000 1.0
C      1  0.5495490000000  0.4966150000000  0.5314870000000 1.0
C      1  0.5486570000000  0.5224890000000  0.4890090000000 1.0
C      1  0.5138450000000  0.5604670000000  0.4724700000000 1.0
C      1  0.5196910000000  0.4500340000000  0.4510200000000 1.0
C      1  0.5154940000000  0.4882700000000  0.5737920000000 1.0
C      1  0.4627730000000  0.4964000000000  0.4438310000000 1.0
C      1  0.4695000000000  0.4559710000000  0.5232710000000 1.0
C      1  0.4654450000000  0.5526180000000  0.5271180000000 1.0
C      1  0.4638330000000  0.4902250000000  0.5571800000000 1.0
C      1  0.4577920000000  0.5658890000000  0.4809910000000 1.0
C      1  0.4658160000000  0.4502140000000  0.4584480000000 1.0
C      1  0.5042230000000  0.4654360000000  0.5603600000000 1.0
C      1  0.5038210000000  0.5664160000000  0.4990820000000 1.0
C      1  0.5053940000000  0.4725750000000  0.4415020000000 1.0
C      1  0.4795180000000  0.4702040000000  0.5462280000000 1.0
C      1  0.4752840000000  0.5639400000000  0.5027200000000 1.0
C      1  0.4764650000000  0.4711260000000  0.4433620000000 1.0
C      1  0.5190400000000  0.4928950000000  0.4281440000000 1.0
C      1  0.5203790000000  0.4442080000000  0.5530630000000 1.0
C      1  0.5198680000000  0.5677660000000  0.5219130000000 1.0
C      1  0.4217500000000  0.5255930000000  0.5144810000000 1.0
C      1  0.4173560000000  0.5010660000000  0.4710780000000 1.0
C      1  0.4205820000000  0.4760420000000  0.5128560000000 1.0
C      1  0.4852150000000  0.5327090000000  0.5379970000000 1.0
C      1  0.4818870000000  0.5156150000000  0.4557020000000 1.0
C      1  0.4870630000000  0.4433630000000  0.5040180000000 1.0
C      1  0.5559840000000  0.4974450000000  0.4743500000000 1.0
C      1  0.5558270000000  0.4717530000000  0.5159340000000 1.0
C      1  0.5588260000000  0.5210480000000  0.5170150000000 1.0
END
