TITL C-8704-7456-255 -1.44823823116356e-06 125000 -368.107482580566 0 0 60 (C1) n - 1
REM
REM in /home/bkarasulu/CARBON/AIRSS/Generating-Clusters/EDIP-Nigel-Params/Higher-Symm/Box-15A/Only-C60/SD-CG/HFTN-CG
REM
REM
REM
REM
REM
REM ./C.cell (414f73aa93bd7a1190c7fd0f31ff2f98)
REM
REM compiler GCC version 9.2.1 20190827 (Red Hat 9.2.1-1)
REM options -cpp -mtune=generic -march=x86-64 -g -O0 -fpre-include=/usr/include/finclude/math-vector-fortran.h
REM seed -1993864254 -948848915 -1811356466 1169009175 67398310 711924697 -1738688090 -977371400 1078340664 2017709543 -776938099 1814917022 -1009992527 1676111197 -119286232 -12981070 -1888085661 68040337 -1261386735 -196388579 1505951397 -2019110305 338876924 790678843 -1463780987 26484330 -489042562 1737590992 1162793177 -2108097769 72677314 -1099800443 -1386534234
REM
CELL 1.54180   50.00000   50.00000   50.00000   90.00000   90.00000   90.00000
LATT -1
SFAC C  
C      1  0.5487780000000  0.4710270000000  0.4577800000000 1.0
C      1  0.5227830000000  0.4827620000000  0.4840240000000 1.0
C      1  0.4950660000000  0.5339120000000  0.4343140000000 1.0
C      1  0.4503630000000  0.5552000000000  0.4672770000000 1.0
C      1  0.5522860000000  0.5138220000000  0.5096340000000 1.0
C      1  0.4488620000000  0.5064630000000  0.4766660000000 1.0
C      1  0.5149340000000  0.4459860000000  0.5326140000000 1.0
C      1  0.5017320000000  0.5077750000000  0.4799510000000 1.0
C      1  0.5329610000000  0.4901910000000  0.5122600000000 1.0
C      1  0.4963750000000  0.5579570000000  0.4491560000000 1.0
C      1  0.4411930000000  0.5184450000000  0.5327980000000 1.0
C      1  0.5504300000000  0.4707020000000  0.5270510000000 1.0
C      1  0.4400020000000  0.4478270000000  0.5097690000000 1.0
C      1  0.5236030000000  0.5410570000000  0.5352770000000 1.0
C      1  0.5049840000000  0.5185600000000  0.5428410000000 1.0
C      1  0.4776300000000  0.4648560000000  0.4954360000000 1.0
C      1  0.5022720000000  0.4686650000000  0.5440000000000 1.0
C      1  0.5339190000000  0.4934500000000  0.4433100000000 1.0
C      1  0.5072780000000  0.4433810000000  0.4589670000000 1.0
C      1  0.4836070000000  0.5571410000000  0.5468860000000 1.0
C      1  0.5398340000000  0.5178150000000  0.5698210000000 1.0
C      1  0.5667680000000  0.4781430000000  0.4805390000000 1.0
C      1  0.4473590000000  0.4940000000000  0.5190680000000 1.0
C      1  0.5138720000000  0.5365880000000  0.4866330000000 1.0
C      1  0.5626430000000  0.4583040000000  0.5029530000000 1.0
C      1  0.4554230000000  0.5155340000000  0.5588080000000 1.0
C      1  0.4606800000000  0.4876880000000  0.5602460000000 1.0
C      1  0.5693530000000  0.5071210000000  0.4859110000000 1.0
C      1  0.5177460000000  0.4375740000000  0.5057620000000 1.0
C      1  0.4948250000000  0.4610750000000  0.4387750000000 1.0
C      1  0.4778550000000  0.5577450000000  0.4715890000000 1.0
C      1  0.5059460000000  0.4882670000000  0.4360100000000 1.0
C      1  0.4281400000000  0.4754690000000  0.5080770000000 1.0
C      1  0.5105450000000  0.5131810000000  0.5716240000000 1.0
C      1  0.5665090000000  0.5222670000000  0.4625940000000 1.0
C      1  0.4737700000000  0.4645890000000  0.5498570000000 1.0
C      1  0.5383530000000  0.4424130000000  0.4606500000000 1.0
C      1  0.4397700000000  0.4613570000000  0.4629280000000 1.0
C      1  0.4600750000000  0.4729540000000  0.4448030000000 1.0
C      1  0.5114900000000  0.5654010000000  0.5451890000000 1.0
C      1  0.4901790000000  0.5090560000000  0.4497330000000 1.0
C      1  0.5352080000000  0.5378760000000  0.5076220000000 1.0
C      1  0.5051240000000  0.4567200000000  0.4864430000000 1.0
C      1  0.4635580000000  0.4487120000000  0.5274290000000 1.0
C      1  0.5235320000000  0.5442250000000  0.4585160000000 1.0
C      1  0.4616090000000  0.5014570000000  0.4507020000000 1.0
C      1  0.5424490000000  0.5217010000000  0.4485540000000 1.0
C      1  0.4478150000000  0.5412060000000  0.5145950000000 1.0
C      1  0.5690380000000  0.5136830000000  0.5333930000000 1.0
C      1  0.4782450000000  0.5337950000000  0.5658940000000 1.0
C      1  0.4889580000000  0.5628730000000  0.4975290000000 1.0
C      1  0.5051260000000  0.4931750000000  0.5263590000000 1.0
C      1  0.4424280000000  0.5346050000000  0.4851780000000 1.0
C      1  0.5420550000000  0.5441520000000  0.5572990000000 1.0
C      1  0.4822100000000  0.4945840000000  0.5033130000000 1.0
C      1  0.5447140000000  0.4364330000000  0.4911480000000 1.0
C      1  0.4740270000000  0.5531280000000  0.5198310000000 1.0
C      1  0.4495770000000  0.4426060000000  0.4824860000000 1.0
C      1  0.5545890000000  0.4992160000000  0.5524640000000 1.0
C      1  0.4295440000000  0.4841270000000  0.4796660000000 1.0
END
