TITL C-8704-7456-271 5.45454854269148e-06 125000 -358.071430698733 0 0 60 (C2) n - 1
REM
REM in /home/bkarasulu/CARBON/AIRSS/Generating-Clusters/EDIP-Nigel-Params/Higher-Symm/Box-15A/Only-C60/SD-CG/HFTN-CG
REM
REM
REM
REM
REM
REM ./C.cell (414f73aa93bd7a1190c7fd0f31ff2f98)
REM
REM compiler GCC version 9.2.1 20190827 (Red Hat 9.2.1-1)
REM options -cpp -mtune=generic -march=x86-64 -g -O0 -fpre-include=/usr/include/finclude/math-vector-fortran.h
REM seed 2037475006 -1194786038 -1074010345 -1004817390 436127344 -1347563114 849634971 1388528317 -1342948481 1445243734 -359319013 -1565333573 61609726 186281144 1135448767 -1762123617 1135834060 -1940356522 -1041396499 1041451030 -630026180 1682558631 -1979412866 -1908760276 1454416258 605428907 -1398206751 -501953107 53964078 1937618503 80230466 2082253195 1481434465
REM
CELL 1.54180   50.00000   50.00000   50.00000   90.00000   90.00000   90.00000
LATT -1
SFAC C  
C      1  0.5418880000000  0.4678930000000  0.5631170000000 1.0
C      1  0.4580750000000  0.4679160000000  0.4368960000000 1.0
C      1  0.5468670000000  0.4697730000000  0.4329170000000 1.0
C      1  0.4530980000000  0.4698550000000  0.5670950000000 1.0
C      1  0.5548330000000  0.5598460000000  0.4841220000000 1.0
C      1  0.4452370000000  0.5599170000000  0.5158540000000 1.0
C      1  0.5539240000000  0.5595390000000  0.5151400000000 1.0
C      1  0.4461460000000  0.5595960000000  0.4848360000000 1.0
C      1  0.5635940000000  0.4841420000000  0.5140640000000 1.0
C      1  0.4363870000000  0.4842110000000  0.4859430000000 1.0
C      1  0.5641410000000  0.4844220000000  0.4837120000000 1.0
C      1  0.4358410000000  0.4845040000000  0.5162950000000 1.0
C      1  0.4874250000000  0.4283250000000  0.5283080000000 1.0
C      1  0.5124910000000  0.4282980000000  0.4717210000000 1.0
C      1  0.4857940000000  0.4277980000000  0.4746580000000 1.0
C      1  0.5141220000000  0.4277910000000  0.5253710000000 1.0
C      1  0.5319130000000  0.4448610000000  0.5124340000000 1.0
C      1  0.4680230000000  0.4448930000000  0.4875880000000 1.0
C      1  0.5312110000000  0.4451670000000  0.4835870000000 1.0
C      1  0.4687250000000  0.4452100000000  0.5164350000000 1.0
C      1  0.5160570000000  0.4934790000000  0.4764640000000 1.0
C      1  0.4839350000000  0.4935070000000  0.5235390000000 1.0
C      1  0.5154570000000  0.4922050000000  0.5153880000000 1.0
C      1  0.4845340000000  0.4922170000000  0.4846160000000 1.0
C      1  0.4872550000000  0.5199980000000  0.4392780000000 1.0
C      1  0.5127680000000  0.5200080000000  0.5607140000000 1.0
C      1  0.4845750000000  0.5212040000000  0.5644400000000 1.0
C      1  0.5154500000000  0.5211600000000  0.4355510000000 1.0
C      1  0.5606010000000  0.5127950000000  0.4736900000000 1.0
C      1  0.4394140000000  0.5128770000000  0.5263050000000 1.0
C      1  0.5591920000000  0.5121570000000  0.5249450000000 1.0
C      1  0.4408230000000  0.5122170000000  0.4750500000000 1.0
C      1  0.4672410000000  0.5195280000000  0.5166130000000 1.0
C      1  0.5327820000000  0.5194830000000  0.4833790000000 1.0
C      1  0.4681260000000  0.5191510000000  0.4860040000000 1.0
C      1  0.5318970000000  0.5191190000000  0.5139880000000 1.0
C      1  0.4624620000000  0.4712840000000  0.4750980000000 1.0
C      1  0.5375040000000  0.4712510000000  0.5249140000000 1.0
C      1  0.4613250000000  0.4713170000000  0.5293580000000 1.0
C      1  0.5386410000000  0.4712600000000  0.4706530000000 1.0
C      1  0.5207700000000  0.5482370000000  0.4458330000000 1.0
C      1  0.4792860000000  0.5482830000000  0.5541480000000 1.0
C      1  0.5179680000000  0.5471490000000  0.5511400000000 1.0
C      1  0.4820870000000  0.5471500000000  0.4488410000000 1.0
C      1  0.4729710000000  0.5476830000000  0.4762340000000 1.0
C      1  0.5270850000000  0.5476610000000  0.5237470000000 1.0
C      1  0.4715240000000  0.5481110000000  0.5262170000000 1.0
C      1  0.5285320000000  0.5480670000000  0.4737630000000 1.0
C      1  0.5277880000000  0.4947560000000  0.5611790000000 1.0
C      1  0.4722050000000  0.4947640000000  0.4388240000000 1.0
C      1  0.5319420000000  0.4966070000000  0.4352580000000 1.0
C      1  0.4680540000000  0.4966710000000  0.5647440000000 1.0
C      1  0.5752220000000  0.5357960000000  0.5152350000000 1.0
C      1  0.4248200000000  0.5358780000000  0.4847510000000 1.0
C      1  0.5761770000000  0.5360830000000  0.4848670000000 1.0
C      1  0.4238650000000  0.5361780000000  0.5151190000000 1.0
C      1  0.5121990000000  0.4697880000000  0.5673310000000 1.0
C      1  0.4877660000000  0.4697750000000  0.4326810000000 1.0
C      1  0.5170280000000  0.4705710000000  0.4320870000000 1.0
C      1  0.4829370000000  0.4706180000000  0.5679250000000 1.0
END
