TITL C-8705-8172-309 3.03518185763973e-06 125000 -351.177100314841 0 0 60 (C1) n - 1
REM
REM in /home/bkarasulu/CARBON/AIRSS/Generating-Clusters/EDIP-Nigel-Params/Higher-Symm/Box-15A/Only-C60/SD-CG/HFTN-CG
REM
REM
REM
REM
REM
REM ./C.cell (414f73aa93bd7a1190c7fd0f31ff2f98)
REM
REM compiler GCC version 9.2.1 20190827 (Red Hat 9.2.1-1)
REM options -cpp -mtune=generic -march=x86-64 -g -O0 -fpre-include=/usr/include/finclude/math-vector-fortran.h
REM seed -1594512684 1082504180 1108080487 -783629890 -393050733 1805169325 1096828573 -1406459689 970319751 -590047371 1623723777 1340230208 -1841240147 793663921 1558350290 -112738563 -807320197 380551139 -1033437145 1669605616 313578808 1590561895 -1553362779 1885910188 1360552353 -781840253 -1782437823 1451867832 -571763401 1291898342 1120806318 1130068313 -701739853
REM
CELL 1.54180   50.00000   50.00000   50.00000   90.00000   90.00000   90.00000
LATT -1
SFAC C  
C      1  0.5585360000000  0.5075090000000  0.5304120000000 1.0
C      1  0.4422270000000  0.4664810000000  0.5221360000000 1.0
C      1  0.5573010000000  0.4529890000000  0.4931170000000 1.0
C      1  0.4418700000000  0.4878450000000  0.4644400000000 1.0
C      1  0.5552120000000  0.5352920000000  0.4772910000000 1.0
C      1  0.4415830000000  0.5464830000000  0.5172810000000 1.0
C      1  0.5029740000000  0.5353980000000  0.5737880000000 1.0
C      1  0.4994180000000  0.4593580000000  0.5677090000000 1.0
C      1  0.4976770000000  0.4126530000000  0.4927710000000 1.0
C      1  0.5020570000000  0.4649540000000  0.4256430000000 1.0
C      1  0.4993130000000  0.5414860000000  0.4306810000000 1.0
C      1  0.5002870000000  0.5889040000000  0.5050620000000 1.0
C      1  0.4767900000000  0.4702080000000  0.5548200000000 1.0
C      1  0.5201020000000  0.4291000000000  0.4994790000000 1.0
C      1  0.4805490000000  0.4651050000000  0.4443360000000 1.0
C      1  0.5218630000000  0.5306300000000  0.4436660000000 1.0
C      1  0.4770100000000  0.5733270000000  0.5011240000000 1.0
C      1  0.5230100000000  0.5340890000000  0.5534680000000 1.0
C      1  0.5409590000000  0.5503620000000  0.4561510000000 1.0
C      1  0.4586040000000  0.5697140000000  0.5247540000000 1.0
C      1  0.5456600000000  0.5141690000000  0.5568880000000 1.0
C      1  0.4570960000000  0.4506890000000  0.5425170000000 1.0
C      1  0.5421800000000  0.4315330000000  0.4789970000000 1.0
C      1  0.4570390000000  0.4832410000000  0.4389790000000 1.0
C      1  0.5839090000000  0.4510720000000  0.4905770000000 1.0
C      1  0.4185690000000  0.5003940000000  0.4610180000000 1.0
C      1  0.5713030000000  0.5503440000000  0.4922530000000 1.0
C      1  0.4249890000000  0.5385650000000  0.5365500000000 1.0
C      1  0.5806960000000  0.4927980000000  0.5322820000000 1.0
C      1  0.4250660000000  0.4520640000000  0.5077710000000 1.0
C      1  0.5140550000000  0.5121320000000  0.4663750000000 1.0
C      1  0.4839190000000  0.5442280000000  0.4918790000000 1.0
C      1  0.5094010000000  0.5286310000000  0.5285320000000 1.0
C      1  0.4843930000000  0.4888540000000  0.5320870000000 1.0
C      1  0.5108160000000  0.4569020000000  0.5080530000000 1.0
C      1  0.4913980000000  0.4707700000000  0.4706910000000 1.0
C      1  0.4840110000000  0.5199630000000  0.4704240000000 1.0
C      1  0.5125260000000  0.5430610000000  0.5031710000000 1.0
C      1  0.4819490000000  0.5200330000000  0.5341760000000 1.0
C      1  0.5141170000000  0.4802650000000  0.5271900000000 1.0
C      1  0.4840440000000  0.4574990000000  0.4959940000000 1.0
C      1  0.5196240000000  0.4808270000000  0.4669020000000 1.0
C      1  0.4757270000000  0.4287840000000  0.5006490000000 1.0
C      1  0.5251290000000  0.4648960000000  0.4421460000000 1.0
C      1  0.4773740000000  0.5289810000000  0.4428210000000 1.0
C      1  0.5211900000000  0.5715570000000  0.4978890000000 1.0
C      1  0.4785500000000  0.5369280000000  0.5592950000000 1.0
C      1  0.5213130000000  0.4710730000000  0.5546780000000 1.0
C      1  0.4674820000000  0.4283560000000  0.5278510000000 1.0
C      1  0.5342170000000  0.4403380000000  0.4528630000000 1.0
C      1  0.4650660000000  0.5084390000000  0.4287900000000 1.0
C      1  0.5296140000000  0.5719010000000  0.4709520000000 1.0
C      1  0.4705690000000  0.5623730000000  0.5496760000000 1.0
C      1  0.5362520000000  0.4900300000000  0.5684250000000 1.0
C      1  0.4648450000000  0.5284370000000  0.5099110000000 1.0
C      1  0.5369220000000  0.4985890000000  0.5107260000000 1.0
C      1  0.4669220000000  0.4785380000000  0.5089060000000 1.0
C      1  0.5435950000000  0.4789350000000  0.4879320000000 1.0
C      1  0.4609090000000  0.4992120000000  0.4854390000000 1.0
C      1  0.5302190000000  0.5227130000000  0.4896140000000 1.0
END
