TITL C-8703-8361-49 -1.60057555662188e-06 125000 -362.338926826928 0 0 60 (C2) n - 1
REM
REM in /home/bkarasulu/CARBON/AIRSS/Generating-Clusters/EDIP-Nigel-Params/Higher-Symm/Box-15A/Only-C60/SD-CG/HFTN-CG
REM
REM
REM
REM
REM
REM ./C.cell (414f73aa93bd7a1190c7fd0f31ff2f98)
REM
REM compiler GCC version 9.2.1 20190827 (Red Hat 9.2.1-1)
REM options -cpp -mtune=generic -march=x86-64 -g -O0 -fpre-include=/usr/include/finclude/math-vector-fortran.h
REM seed -770565097 1342949006 -2914541 426824289 1191409145 511177140 58319697 -886884330 -1833507031 1825465496 1972379854 424044980 1189538233 809668013 -1327177596 1985247552 -507187355 1897454314 1728128792 -741299856 1517259539 1795990896 -1451172866 886351585 733801255 2117516167 606762709 675488066 -412851913 222122712 1602969996 62206629 1813224495
REM
CELL 1.54180   50.00000   50.00000   50.00000   90.00000   90.00000   90.00000
LATT -1
SFAC C  
C      1  0.4580890000000  0.4833670000000  0.4616490000000 1.0
C      1  0.5419120000000  0.4833690000000  0.5383510000000 1.0
C      1  0.5580780000000  0.4922650000000  0.5148360000000 1.0
C      1  0.4419220000000  0.4922630000000  0.4851640000000 1.0
C      1  0.4643200000000  0.5608510000000  0.4809200000000 1.0
C      1  0.5356780000000  0.5608520000000  0.5190800000000 1.0
C      1  0.4688310000000  0.5509840000000  0.5305810000000 1.0
C      1  0.5311680000000  0.5509850000000  0.4694190000000 1.0
C      1  0.5160280000000  0.5574540000000  0.4960370000000 1.0
C      1  0.4839700000000  0.5574530000000  0.5039630000000 1.0
C      1  0.5050790000000  0.5033040000000  0.5696120000000 1.0
C      1  0.4949210000000  0.5033030000000  0.4303880000000 1.0
C      1  0.5140210000000  0.4804560000000  0.4309310000000 1.0
C      1  0.4859800000000  0.4804560000000  0.5690690000000 1.0
C      1  0.5563940000000  0.5373850000000  0.4799200000000 1.0
C      1  0.4436050000000  0.5373830000000  0.5200800000000 1.0
C      1  0.5080580000000  0.5308010000000  0.4279290000000 1.0
C      1  0.4919410000000  0.5308010000000  0.5720710000000 1.0
C      1  0.5080970000000  0.4530100000000  0.4401720000000 1.0
C      1  0.4919040000000  0.4530100000000  0.5598280000000 1.0
C      1  0.4238560000000  0.4914870000000  0.5093710000000 1.0
C      1  0.5761440000000  0.4914890000000  0.4906290000000 1.0
C      1  0.4625990000000  0.4418950000000  0.4883660000000 1.0
C      1  0.5374030000000  0.4418960000000  0.5116340000000 1.0
C      1  0.4888510000000  0.4974930000000  0.5291290000000 1.0
C      1  0.5111490000000  0.4974930000000  0.4708710000000 1.0
C      1  0.4589470000000  0.5176890000000  0.4897980000000 1.0
C      1  0.5410520000000  0.5176900000000  0.5102020000000 1.0
C      1  0.5071120000000  0.5529200000000  0.5623660000000 1.0
C      1  0.4928860000000  0.5529200000000  0.4376340000000 1.0
C      1  0.4758770000000  0.5286640000000  0.5480100000000 1.0
C      1  0.5241220000000  0.5286650000000  0.4519900000000 1.0
C      1  0.5191250000000  0.4468530000000  0.5571570000000 1.0
C      1  0.4808770000000  0.4468530000000  0.4428430000000 1.0
C      1  0.4546500000000  0.4616060000000  0.5313290000000 1.0
C      1  0.5453510000000  0.4616070000000  0.4686710000000 1.0
C      1  0.4414330000000  0.5442860000000  0.4901660000000 1.0
C      1  0.5585660000000  0.5442880000000  0.5098340000000 1.0
C      1  0.4743590000000  0.4602800000000  0.4680560000000 1.0
C      1  0.5256420000000  0.4602810000000  0.5319440000000 1.0
C      1  0.4811650000000  0.4493900000000  0.5309830000000 1.0
C      1  0.5188370000000  0.4493910000000  0.4690170000000 1.0
C      1  0.4431730000000  0.4587080000000  0.5047940000000 1.0
C      1  0.5568280000000  0.4587100000000  0.4952060000000 1.0
C      1  0.5297530000000  0.5497330000000  0.5459030000000 1.0
C      1  0.4702450000000  0.5497320000000  0.4540970000000 1.0
C      1  0.5618930000000  0.5075990000000  0.4710510000000 1.0
C      1  0.4381070000000  0.5075970000000  0.5289490000000 1.0
C      1  0.5002990000000  0.4706930000000  0.4824960000000 1.0
C      1  0.4997020000000  0.4706930000000  0.5175040000000 1.0
C      1  0.5135600000000  0.5183980000000  0.4929910000000 1.0
C      1  0.4864390000000  0.5183980000000  0.5070080000000 1.0
C      1  0.5148340000000  0.4303680000000  0.4941480000000 1.0
C      1  0.4851690000000  0.4303680000000  0.5058520000000 1.0
C      1  0.4550850000000  0.5272570000000  0.4477620000000 1.0
C      1  0.5449140000000  0.5272590000000  0.5522380000000 1.0
C      1  0.4599040000000  0.4893390000000  0.5414900000000 1.0
C      1  0.5400970000000  0.4893400000000  0.4585100000000 1.0
C      1  0.5272580000000  0.5054600000000  0.5497900000000 1.0
C      1  0.4727420000000  0.5054590000000  0.4502100000000 1.0
END
