TITL C-8705-8172-221 8.0362818671671e-05 125000 -362.964829525615 0 0 60 (C1) n - 1
REM
REM in /home/bkarasulu/CARBON/AIRSS/Generating-Clusters/EDIP-Nigel-Params/Higher-Symm/Box-15A/Only-C60/SD-CG/HFTN-CG
REM
REM
REM
REM
REM
REM ./C.cell (414f73aa93bd7a1190c7fd0f31ff2f98)
REM
REM compiler GCC version 9.2.1 20190827 (Red Hat 9.2.1-1)
REM options -cpp -mtune=generic -march=x86-64 -g -O0 -fpre-include=/usr/include/finclude/math-vector-fortran.h
REM seed -1733313441 495178620 -557392410 -994215922 110278308 1793884111 699698252 1716705600 -270429179 1680224647 -1574130824 -1596980077 1112546666 1748857386 143417458 -1391828146 1870604393 1013465580 -412582811 -349882242 -1543282780 1829160275 -1556190763 -1797115620 -1694917712 -1454767059 -692307867 1163441593 -925087225 -1280263016 -1728425806 974834317 -1893011898
REM
CELL 1.54180   50.00000   50.00000   50.00000   90.00000   90.00000   90.00000
LATT -1
SFAC C  
C      1  0.5434640000000  0.4993700000000  0.5893060000000 1.0
C      1  0.4309280000000  0.5302070000000  0.5823680000000 1.0
C      1  0.4198240000000  0.4976620000000  0.4598460000000 1.0
C      1  0.5140440000000  0.5042720000000  0.4046050000000 1.0
C      1  0.5927060000000  0.5033540000000  0.4819530000000 1.0
C      1  0.5328430000000  0.4286340000000  0.5238970000000 1.0
C      1  0.4857510000000  0.4250500000000  0.5238260000000 1.0
C      1  0.4716860000000  0.4227440000000  0.4761140000000 1.0
C      1  0.5068340000000  0.4289530000000  0.4444370000000 1.0
C      1  0.5420600000000  0.4272440000000  0.4764120000000 1.0
C      1  0.5361420000000  0.5458830000000  0.4818450000000 1.0
C      1  0.5298640000000  0.5426460000000  0.5350100000000 1.0
C      1  0.4788350000000  0.5476980000000  0.5388740000000 1.0
C      1  0.4513490000000  0.5460640000000  0.4932560000000 1.0
C      1  0.4916780000000  0.5463040000000  0.4578880000000 1.0
C      1  0.4709290000000  0.5066240000000  0.5150950000000 1.0
C      1  0.4778660000000  0.5058600000000  0.4856940000000 1.0
C      1  0.5063450000000  0.5074690000000  0.4822870000000 1.0
C      1  0.5177820000000  0.5090900000000  0.5074370000000 1.0
C      1  0.4977160000000  0.5027000000000  0.5285680000000 1.0
C      1  0.4229110000000  0.5085750000000  0.5516830000000 1.0
C      1  0.4628140000000  0.4876950000000  0.4544230000000 1.0
C      1  0.5328290000000  0.4896020000000  0.4447550000000 1.0
C      1  0.5564690000000  0.4874350000000  0.5062910000000 1.0
C      1  0.5050920000000  0.4994380000000  0.5875490000000 1.0
C      1  0.5154330000000  0.5308030000000  0.4671600000000 1.0
C      1  0.5350950000000  0.5316930000000  0.5085940000000 1.0
C      1  0.5034660000000  0.5301840000000  0.5444660000000 1.0
C      1  0.4584480000000  0.5334840000000  0.5208240000000 1.0
C      1  0.4701720000000  0.5325960000000  0.4737690000000 1.0
C      1  0.4368270000000  0.4766250000000  0.4589880000000 1.0
C      1  0.5258340000000  0.4839140000000  0.4182240000000 1.0
C      1  0.5804440000000  0.4816630000000  0.4928610000000 1.0
C      1  0.5234750000000  0.4892080000000  0.6055210000000 1.0
C      1  0.4119710000000  0.5107470000000  0.5770130000000 1.0
C      1  0.4747090000000  0.4363590000000  0.5005290000000 1.0
C      1  0.4841680000000  0.4393240000000  0.4570980000000 1.0
C      1  0.5285450000000  0.4415970000000  0.4566270000000 1.0
C      1  0.5424460000000  0.4408220000000  0.5007000000000 1.0
C      1  0.5083200000000  0.4409930000000  0.5293830000000 1.0
C      1  0.5396840000000  0.5235740000000  0.5740480000000 1.0
C      1  0.4405210000000  0.5479770000000  0.5616160000000 1.0
C      1  0.4290700000000  0.5238780000000  0.4576600000000 1.0
C      1  0.5135120000000  0.5264110000000  0.4218260000000 1.0
C      1  0.5769850000000  0.5256560000000  0.4887050000000 1.0
C      1  0.5064330000000  0.4678040000000  0.5155800000000 1.0
C      1  0.4837200000000  0.4634300000000  0.4965760000000 1.0
C      1  0.4889030000000  0.4672510000000  0.4672600000000 1.0
C      1  0.5218250000000  0.4694120000000  0.4656250000000 1.0
C      1  0.5327700000000  0.4686610000000  0.4973630000000 1.0
C      1  0.4577910000000  0.5193120000000  0.4493200000000 1.0
C      1  0.5325650000000  0.5202520000000  0.4450700000000 1.0
C      1  0.5606670000000  0.5175110000000  0.5133970000000 1.0
C      1  0.5103720000000  0.5239270000000  0.5730640000000 1.0
C      1  0.4339600000000  0.5317880000000  0.5382470000000 1.0
C      1  0.4662480000000  0.5591330000000  0.5609970000000 1.0
C      1  0.4267940000000  0.5404520000000  0.4804660000000 1.0
C      1  0.4875780000000  0.5362370000000  0.4310680000000 1.0
C      1  0.5596830000000  0.5362270000000  0.4677060000000 1.0
C      1  0.5528070000000  0.5305210000000  0.5492290000000 1.0
END
