TITL C-8703-8361-10 -4.16192398430489e-06 125000 -355.982969996642 0 0 60 (C1) n - 1
REM
REM in /home/bkarasulu/CARBON/AIRSS/Generating-Clusters/EDIP-Nigel-Params/Higher-Symm/Box-15A/Only-C60/SD-CG/HFTN-CG
REM
REM
REM
REM
REM
REM ./C.cell (414f73aa93bd7a1190c7fd0f31ff2f98)
REM
REM compiler GCC version 9.2.1 20190827 (Red Hat 9.2.1-1)
REM options -cpp -mtune=generic -march=x86-64 -g -O0 -fpre-include=/usr/include/finclude/math-vector-fortran.h
REM seed 1742753575 -636855692 -796284538 -1752580509 -12017596 1976028444 -618683290 1821189127 1031423655 155338929 -1480872319 1497500784 582447494 -922082844 -665713207 232894907 1943855845 333744098 1525577174 -313022162 -1033145595 -1377022229 -236047251 -1219851638 556204193 -1963351216 -815696288 -1439372841 801452914 1363960292 -1687187909 -463872254 146632912
REM
CELL 1.54180   50.00000   50.00000   50.00000   90.00000   90.00000   90.00000
LATT -1
SFAC C  
C      1  0.5522690000000  0.5333180000000  0.5263750000000 1.0
C      1  0.5526770000000  0.4665530000000  0.4732510000000 1.0
C      1  0.5518840000000  0.4664130000000  0.5298840000000 1.0
C      1  0.5520670000000  0.5338850000000  0.4696750000000 1.0
C      1  0.4754890000000  0.5305100000000  0.4337190000000 1.0
C      1  0.4750620000000  0.4699880000000  0.5657880000000 1.0
C      1  0.4767470000000  0.4719610000000  0.4311180000000 1.0
C      1  0.4764800000000  0.5276370000000  0.5684850000000 1.0
C      1  0.5398900000000  0.5181880000000  0.4490910000000 1.0
C      1  0.5403660000000  0.4817500000000  0.5511410000000 1.0
C      1  0.5405570000000  0.4800480000000  0.4512780000000 1.0
C      1  0.5409540000000  0.5199420000000  0.5489010000000 1.0
C      1  0.4965650000000  0.5113190000000  0.5803240000000 1.0
C      1  0.4969190000000  0.4886030000000  0.4199060000000 1.0
C      1  0.4941540000000  0.4833480000000  0.5818130000000 1.0
C      1  0.4946590000000  0.5165850000000  0.4183300000000 1.0
C      1  0.4613270000000  0.4729860000000  0.5157960000000 1.0
C      1  0.4607740000000  0.5307200000000  0.4857350000000 1.0
C      1  0.4622220000000  0.5262440000000  0.5152790000000 1.0
C      1  0.4613930000000  0.4698240000000  0.4861230000000 1.0
C      1  0.4706570000000  0.5679120000000  0.4855910000000 1.0
C      1  0.4689840000000  0.4356480000000  0.5132360000000 1.0
C      1  0.4714560000000  0.4326740000000  0.4852370000000 1.0
C      1  0.4701010000000  0.5636960000000  0.5135180000000 1.0
C      1  0.5348350000000  0.5532710000000  0.4838550000000 1.0
C      1  0.5350330000000  0.4465350000000  0.5156770000000 1.0
C      1  0.5359290000000  0.4465850000000  0.4868990000000 1.0
C      1  0.5358140000000  0.5536760000000  0.5126450000000 1.0
C      1  0.5162910000000  0.4294360000000  0.5284070000000 1.0
C      1  0.5174050000000  0.5710960000000  0.4704160000000 1.0
C      1  0.5178570000000  0.5707560000000  0.5263300000000 1.0
C      1  0.5189610000000  0.4290890000000  0.4725580000000 1.0
C      1  0.5723380000000  0.5180830000000  0.5122870000000 1.0
C      1  0.5724390000000  0.4820510000000  0.4875180000000 1.0
C      1  0.5731150000000  0.4803280000000  0.5159580000000 1.0
C      1  0.5730960000000  0.5198670000000  0.4838520000000 1.0
C      1  0.5109050000000  0.5135970000000  0.4532920000000 1.0
C      1  0.5114380000000  0.4863020000000  0.5473860000000 1.0
C      1  0.5114130000000  0.4835320000000  0.4553560000000 1.0
C      1  0.5119260000000  0.5162740000000  0.5452180000000 1.0
C      1  0.4489180000000  0.4833890000000  0.5617250000000 1.0
C      1  0.4499100000000  0.5166400000000  0.4392530000000 1.0
C      1  0.4497760000000  0.5151280000000  0.5624280000000 1.0
C      1  0.4507270000000  0.4850350000000  0.4386350000000 1.0
C      1  0.4810310000000  0.4438050000000  0.5579730000000 1.0
C      1  0.4816500000000  0.5566190000000  0.4416030000000 1.0
C      1  0.4856870000000  0.5506570000000  0.5555840000000 1.0
C      1  0.4859430000000  0.4488300000000  0.4438580000000 1.0
C      1  0.4999840000000  0.4724240000000  0.4838810000000 1.0
C      1  0.5011040000000  0.5264930000000  0.5163360000000 1.0
C      1  0.4986250000000  0.5282580000000  0.4791130000000 1.0
C      1  0.4996050000000  0.4723280000000  0.5213700000000 1.0
C      1  0.4419750000000  0.4844090000000  0.4685120000000 1.0
C      1  0.4403780000000  0.5154930000000  0.5326050000000 1.0
C      1  0.4409820000000  0.5158790000000  0.4687940000000 1.0
C      1  0.4393160000000  0.4845850000000  0.5323170000000 1.0
C      1  0.4921740000000  0.5570210000000  0.4686100000000 1.0
C      1  0.4914450000000  0.4440230000000  0.5308780000000 1.0
C      1  0.4943560000000  0.4443380000000  0.4708620000000 1.0
C      1  0.4939690000000  0.5544120000000  0.5284160000000 1.0
END
