TITL C-8706-7473-42 2.33962480292957e-06 125000 -360.831207484822 0 0 60 (C1) n - 1
REM
REM in /home/bkarasulu/CARBON/AIRSS/Generating-Clusters/EDIP-Nigel-Params/Higher-Symm/Box-15A/Only-C60/SD-CG/HFTN-CG
REM
REM
REM
REM
REM
REM ./C.cell (414f73aa93bd7a1190c7fd0f31ff2f98)
REM
REM compiler GCC version 9.2.1 20190827 (Red Hat 9.2.1-1)
REM options -cpp -mtune=generic -march=x86-64 -g -O0 -fpre-include=/usr/include/finclude/math-vector-fortran.h
REM seed 787672924 -1766001725 1297368662 1960776451 585134915 -2006870121 955844877 -1982333472 1221328345 -1052771003 1216570161 -1911233391 -1149294837 702952186 -102662084 -1346328184 1553896861 -1559722158 399890635 -816503883 1495011711 -1109004142 646514840 133150799 92400114 1659880216 -2047078282 -1479709587 1838356800 -2061270841 1036815368 -889079380 -1707093339
REM
CELL 1.54180   50.00000   50.00000   50.00000   90.00000   90.00000   90.00000
LATT -1
SFAC C  
C      1  0.4299140000000  0.4694890000000  0.5033700000000 1.0
C      1  0.4529260000000  0.4530050000000  0.5017840000000 1.0
C      1  0.5077170000000  0.4414150000000  0.5083940000000 1.0
C      1  0.5362550000000  0.4418700000000  0.5107460000000 1.0
C      1  0.5657390000000  0.4696430000000  0.5117960000000 1.0
C      1  0.5734280000000  0.4979280000000  0.5138880000000 1.0
C      1  0.5517850000000  0.5160840000000  0.5076870000000 1.0
C      1  0.5019930000000  0.5568690000000  0.5109620000000 1.0
C      1  0.4801310000000  0.5747190000000  0.5199150000000 1.0
C      1  0.4509070000000  0.5623480000000  0.5198990000000 1.0
C      1  0.4490150000000  0.5345090000000  0.5106310000000 1.0
C      1  0.4707300000000  0.4521720000000  0.4785210000000 1.0
C      1  0.4978790000000  0.4419160000000  0.4821850000000 1.0
C      1  0.5201400000000  0.4510620000000  0.4659030000000 1.0
C      1  0.5446100000000  0.4644500000000  0.4800290000000 1.0
C      1  0.5482850000000  0.4917710000000  0.4652710000000 1.0
C      1  0.5443590000000  0.5174020000000  0.4799850000000 1.0
C      1  0.5269460000000  0.5390060000000  0.4686550000000 1.0
C      1  0.5048510000000  0.5530700000000  0.4824810000000 1.0
C      1  0.4711200000000  0.5448560000000  0.4677920000000 1.0
C      1  0.4503390000000  0.5299390000000  0.4820930000000 1.0
C      1  0.4446710000000  0.5040400000000  0.4717110000000 1.0
C      1  0.4502360000000  0.5653180000000  0.5510170000000 1.0
C      1  0.4348840000000  0.5161040000000  0.5280320000000 1.0
C      1  0.4367170000000  0.4873200000000  0.5245220000000 1.0
C      1  0.4628550000000  0.4428620000000  0.5277820000000 1.0
C      1  0.4904110000000  0.4345700000000  0.5301260000000 1.0
C      1  0.5434470000000  0.4400210000000  0.5393600000000 1.0
C      1  0.5637410000000  0.4600790000000  0.5402250000000 1.0
C      1  0.5836120000000  0.5037670000000  0.5396440000000 1.0
C      1  0.5461510000000  0.5352920000000  0.5286680000000 1.0
C      1  0.5234280000000  0.5530920000000  0.5301660000000 1.0
C      1  0.4777320000000  0.5778270000000  0.5513470000000 1.0
C      1  0.5515550000000  0.4783470000000  0.5599340000000 1.0
C      1  0.5648540000000  0.5043070000000  0.5607980000000 1.0
C      1  0.5482790000000  0.5279980000000  0.5569080000000 1.0
C      1  0.5183860000000  0.5522200000000  0.5586400000000 1.0
C      1  0.4912860000000  0.5566610000000  0.5659780000000 1.0
C      1  0.4566820000000  0.5403890000000  0.5646210000000 1.0
C      1  0.4418270000000  0.5172570000000  0.5565890000000 1.0
C      1  0.4435950000000  0.4798250000000  0.5518170000000 1.0
C      1  0.4601390000000  0.4564890000000  0.5537460000000 1.0
C      1  0.4966260000000  0.4449130000000  0.5563970000000 1.0
C      1  0.5245140000000  0.4512580000000  0.5588000000000 1.0
C      1  0.5428650000000  0.4932540000000  0.4365970000000 1.0
C      1  0.5391590000000  0.5189740000000  0.4266340000000 1.0
C      1  0.5249290000000  0.5392290000000  0.4394660000000 1.0
C      1  0.4996790000000  0.5463490000000  0.4294570000000 1.0
C      1  0.4768620000000  0.5344350000000  0.4411610000000 1.0
C      1  0.4812020000000  0.5052090000000  0.4461190000000 1.0
C      1  0.4554400000000  0.4902700000000  0.4488920000000 1.0
C      1  0.4637170000000  0.4609170000000  0.4510110000000 1.0
C      1  0.4854140000000  0.4551240000000  0.4333750000000 1.0
C      1  0.5131000000000  0.4555500000000  0.4382200000000 1.0
C      1  0.5311160000000  0.4713150000000  0.4239760000000 1.0
C      1  0.4964480000000  0.4975310000000  0.5252470000000 1.0
C      1  0.4933740000000  0.5022970000000  0.4720680000000 1.0
C      1  0.4938370000000  0.4990010000000  0.4989020000000 1.0
C      1  0.4982750000000  0.5000140000000  0.5515770000000 1.0
C      1  0.4982060000000  0.4992900000000  0.5772450000000 1.0
END
