TITL C-8700-8172-256 1.88669191074386e-06 125000 -366.671218146225 0 0 60 (C1) n - 1
REM
REM in /home/bkarasulu/CARBON/AIRSS/Generating-Clusters/EDIP-Nigel-Params/Higher-Symm/Box-15A/Only-C60/SD-CG/HFTN-CG
REM
REM
REM
REM
REM
REM ./C.cell (414f73aa93bd7a1190c7fd0f31ff2f98)
REM
REM compiler GCC version 9.2.1 20190827 (Red Hat 9.2.1-1)
REM options -cpp -mtune=generic -march=x86-64 -g -O0 -fpre-include=/usr/include/finclude/math-vector-fortran.h
REM seed 1024972773 -1307100673 527919288 -1256359463 -152772595 -414217660 179954052 1496780106 158388092 -1011928620 -630152709 552703925 -1431068246 403002611 -1189504987 -1132746119 1501029486 -1917383333 -1146392471 1551814973 94883321 -248008191 2079675607 1314455835 87436335 1740745822 -1466030853 -755790230 -958510301 -1975709705 -407075023 1867402676 234524753
REM
CELL 1.54180   50.00000   50.00000   50.00000   90.00000   90.00000   90.00000
LATT -1
SFAC C  
C      1  0.4526640000000  0.5530420000000  0.5036550000000 1.0
C      1  0.4530070000000  0.4744240000000  0.4488820000000 1.0
C      1  0.4468900000000  0.4697660000000  0.5485540000000 1.0
C      1  0.4552570000000  0.4433920000000  0.5008260000000 1.0
C      1  0.4527620000000  0.5242810000000  0.4503950000000 1.0
C      1  0.4471800000000  0.5244200000000  0.5488050000000 1.0
C      1  0.5855970000000  0.4910270000000  0.5106680000000 1.0
C      1  0.5632490000000  0.5301470000000  0.4983010000000 1.0
C      1  0.5664320000000  0.4789480000000  0.4675080000000 1.0
C      1  0.5773250000000  0.5158950000000  0.5201660000000 1.0
C      1  0.5676430000000  0.4744990000000  0.4964560000000 1.0
C      1  0.5645400000000  0.5179010000000  0.4716210000000 1.0
C      1  0.4894620000000  0.5774960000000  0.4824450000000 1.0
C      1  0.4898720000000  0.4452960000000  0.4472800000000 1.0
C      1  0.4814750000000  0.4799590000000  0.5829470000000 1.0
C      1  0.4956210000000  0.4242290000000  0.4787750000000 1.0
C      1  0.4878760000000  0.5555900000000  0.4508970000000 1.0
C      1  0.4814320000000  0.5181050000000  0.5837210000000 1.0
C      1  0.5214590000000  0.5285370000000  0.5571330000000 1.0
C      1  0.5267670000000  0.5276520000000  0.4312670000000 1.0
C      1  0.5272430000000  0.4452150000000  0.5082960000000 1.0
C      1  0.5192240000000  0.4738410000000  0.5545460000000 1.0
C      1  0.5270560000000  0.4735980000000  0.4280840000000 1.0
C      1  0.5234020000000  0.5584200000000  0.5104580000000 1.0
C      1  0.4855650000000  0.4759660000000  0.4956360000000 1.0
C      1  0.4942570000000  0.5137910000000  0.5210560000000 1.0
C      1  0.5059200000000  0.5140590000000  0.4754450000000 1.0
C      1  0.4908660000000  0.5248520000000  0.4959120000000 1.0
C      1  0.4870210000000  0.4861560000000  0.5213360000000 1.0
C      1  0.5028630000000  0.4840880000000  0.4757890000000 1.0
C      1  0.4717800000000  0.4638860000000  0.5604920000000 1.0
C      1  0.4757530000000  0.5693780000000  0.5068950000000 1.0
C      1  0.4763930000000  0.4672370000000  0.4345040000000 1.0
C      1  0.4715890000000  0.5320170000000  0.5604720000000 1.0
C      1  0.4805220000000  0.4301590000000  0.5031940000000 1.0
C      1  0.4760020000000  0.5334290000000  0.4371000000000 1.0
C      1  0.4993690000000  0.5159080000000  0.4276940000000 1.0
C      1  0.5008990000000  0.4409150000000  0.5228300000000 1.0
C      1  0.4954450000000  0.5342340000000  0.5421460000000 1.0
C      1  0.4996890000000  0.4857200000000  0.4270260000000 1.0
C      1  0.4977150000000  0.5603230000000  0.5262060000000 1.0
C      1  0.4943300000000  0.4649940000000  0.5404940000000 1.0
C      1  0.4433090000000  0.4842640000000  0.4735190000000 1.0
C      1  0.4382990000000  0.4826940000000  0.5248180000000 1.0
C      1  0.4426410000000  0.5269390000000  0.5003320000000 1.0
C      1  0.4432700000000  0.5130190000000  0.4743490000000 1.0
C      1  0.4384810000000  0.5120440000000  0.5251240000000 1.0
C      1  0.4420350000000  0.4685060000000  0.4989580000000 1.0
C      1  0.5448820000000  0.5163480000000  0.5382580000000 1.0
C      1  0.5432880000000  0.5136030000000  0.4515320000000 1.0
C      1  0.5428380000000  0.4705410000000  0.5116850000000 1.0
C      1  0.5407270000000  0.4852360000000  0.5373630000000 1.0
C      1  0.5460070000000  0.4854940000000  0.4472290000000 1.0
C      1  0.5374150000000  0.5322050000000  0.5115650000000 1.0
C      1  0.5227740000000  0.4364800000000  0.4801550000000 1.0
C      1  0.5113840000000  0.5152150000000  0.5822110000000 1.0
C      1  0.5123150000000  0.5430650000000  0.4628570000000 1.0
C      1  0.5170180000000  0.5668670000000  0.4825400000000 1.0
C      1  0.5107740000000  0.4853120000000  0.5807500000000 1.0
C      1  0.5131300000000  0.4593740000000  0.4608420000000 1.0
END
