TITL C-8706-7473-102 1.72825221894271e-07 125000 -369.042750185158 0 0 60 (C1) n - 1
REM
REM in /home/bkarasulu/CARBON/AIRSS/Generating-Clusters/EDIP-Nigel-Params/Higher-Symm/Box-15A/Only-C60/SD-CG/HFTN-CG
REM
REM
REM
REM
REM
REM ./C.cell (414f73aa93bd7a1190c7fd0f31ff2f98)
REM
REM compiler GCC version 9.2.1 20190827 (Red Hat 9.2.1-1)
REM options -cpp -mtune=generic -march=x86-64 -g -O0 -fpre-include=/usr/include/finclude/math-vector-fortran.h
REM seed -912429057 1673026471 -417808867 -1557404335 -1340145558 -1391223955 -713965895 -1195441897 -174518824 1355540901 -1369177040 -300246767 -273015047 80509406 -1473404121 -2099295396 -1305456328 -916371114 -1778033795 990646134 -1579057824 1050424985 364970066 1975038165 -502121018 1548012488 -1220905463 -251641524 -1313304786 1788209238 -1882278627 -451974520 -458465989
REM
CELL 1.54180   50.00000   50.00000   50.00000   90.00000   90.00000   90.00000
LATT -1
SFAC C  
C      1  0.5189970000000  0.5453700000000  0.4667030000000 1.0
C      1  0.5191870000000  0.5467230000000  0.5345190000000 1.0
C      1  0.5178320000000  0.4835440000000  0.5539800000000 1.0
C      1  0.5190290000000  0.4475680000000  0.5034430000000 1.0
C      1  0.5275930000000  0.4858360000000  0.4525980000000 1.0
C      1  0.4771840000000  0.4463340000000  0.4584830000000 1.0
C      1  0.4873970000000  0.5166850000000  0.4414690000000 1.0
C      1  0.4853260000000  0.5558680000000  0.5017700000000 1.0
C      1  0.4847170000000  0.5173260000000  0.5629510000000 1.0
C      1  0.4825480000000  0.4502560000000  0.5348040000000 1.0
C      1  0.5343890000000  0.4580700000000  0.5471440000000 1.0
C      1  0.5295620000000  0.4409230000000  0.4665850000000 1.0
C      1  0.5386500000000  0.5093980000000  0.4380320000000 1.0
C      1  0.5362620000000  0.5622290000000  0.4868050000000 1.0
C      1  0.5365340000000  0.5312360000000  0.5550720000000 1.0
C      1  0.5150150000000  0.5650350000000  0.5083530000000 1.0
C      1  0.5165390000000  0.5118800000000  0.5670730000000 1.0
C      1  0.5130230000000  0.4422660000000  0.5324230000000 1.0
C      1  0.5053310000000  0.4452920000000  0.4477130000000 1.0
C      1  0.5162450000000  0.5287930000000  0.4399330000000 1.0
C      1  0.4833590000000  0.4874010000000  0.4340820000000 1.0
C      1  0.4763920000000  0.5557060000000  0.4730640000000 1.0
C      1  0.4780340000000  0.5437110000000  0.5508260000000 1.0
C      1  0.4764570000000  0.4679340000000  0.5580410000000 1.0
C      1  0.4751250000000  0.4358730000000  0.4866150000000 1.0
C      1  0.5660830000000  0.4798870000000  0.4824760000000 1.0
C      1  0.5708870000000  0.5080360000000  0.4740630000000 1.0
C      1  0.5706700000000  0.5253880000000  0.4972730000000 1.0
C      1  0.5685960000000  0.5088070000000  0.5208780000000 1.0
C      1  0.5651990000000  0.4811040000000  0.5126760000000 1.0
C      1  0.5631010000000  0.5175540000000  0.4488680000000 1.0
C      1  0.5607080000000  0.5513950000000  0.4954760000000 1.0
C      1  0.5598600000000  0.5193110000000  0.5451100000000 1.0
C      1  0.5572930000000  0.4617500000000  0.5312300000000 1.0
C      1  0.5479730000000  0.4653570000000  0.4623080000000 1.0
C      1  0.4676270000000  0.5435540000000  0.5230500000000 1.0
C      1  0.4669170000000  0.4951860000000  0.5531370000000 1.0
C      1  0.4653000000000  0.4515290000000  0.5101260000000 1.0
C      1  0.4647010000000  0.4715550000000  0.4501310000000 1.0
C      1  0.4675360000000  0.5298970000000  0.4610370000000 1.0
C      1  0.4388130000000  0.4990340000000  0.5514260000000 1.0
C      1  0.4372570000000  0.4577640000000  0.5119630000000 1.0
C      1  0.4372190000000  0.4765610000000  0.4495300000000 1.0
C      1  0.4413260000000  0.5210860000000  0.4707790000000 1.0
C      1  0.4400060000000  0.5361870000000  0.5179070000000 1.0
C      1  0.5095570000000  0.5218520000000  0.5166810000000 1.0
C      1  0.5091180000000  0.4934870000000  0.5252630000000 1.0
C      1  0.5109120000000  0.4770230000000  0.5011720000000 1.0
C      1  0.5133530000000  0.4946700000000  0.4781860000000 1.0
C      1  0.5109050000000  0.5224430000000  0.4869920000000 1.0
C      1  0.4984800000000  0.5651950000000  0.4588580000000 1.0
C      1  0.5003110000000  0.5604130000000  0.5524820000000 1.0
C      1  0.4995870000000  0.4703510000000  0.5731420000000 1.0
C      1  0.5021900000000  0.4272180000000  0.4900560000000 1.0
C      1  0.5087050000000  0.4717450000000  0.4343320000000 1.0
C      1  0.4326620000000  0.4934400000000  0.4713140000000 1.0
C      1  0.4314710000000  0.5367050000000  0.4915180000000 1.0
C      1  0.4263190000000  0.5179470000000  0.5348980000000 1.0
C      1  0.4226060000000  0.4816370000000  0.5207840000000 1.0
C      1  0.4160240000000  0.4836750000000  0.4923970000000 1.0
END
