TITL C-8701-7969-98 -2.40156135747133e-06 125000 -369.395589650858 0 0 60 (C1) n - 1
REM
REM in /home/bkarasulu/CARBON/AIRSS/Generating-Clusters/EDIP-Nigel-Params/Higher-Symm/Box-15A/Only-C60/SD-CG/HFTN-CG
REM
REM
REM
REM
REM
REM ./C.cell (414f73aa93bd7a1190c7fd0f31ff2f98)
REM
REM compiler GCC version 9.2.1 20190827 (Red Hat 9.2.1-1)
REM options -cpp -mtune=generic -march=x86-64 -g -O0 -fpre-include=/usr/include/finclude/math-vector-fortran.h
REM seed -709132724 -1597287083 1851431058 -1998940432 156590087 127714831 -1647220034 -1772380743 441893838 1583159808 1640573207 -932256810 -1137350826 -1230166453 -1585730077 1931670486 207083350 -1474853683 -675235543 280596224 1071305945 1894072765 1416901337 387994678 1116768685 -1876472505 -1748394074 -231233206 1506015943 -80142464 22399085 220284420 -701623273
REM
CELL 1.54180   50.00000   50.00000   50.00000   90.00000   90.00000   90.00000
LATT -1
SFAC C  
C      1  0.5072040000000  0.5511060000000  0.5066270000000 1.0
C      1  0.5142090000000  0.5671590000000  0.4793940000000 1.0
C      1  0.4779390000000  0.5397840000000  0.5033260000000 1.0
C      1  0.5142910000000  0.4910920000000  0.5674460000000 1.0
C      1  0.5497080000000  0.4850880000000  0.4567860000000 1.0
C      1  0.4331560000000  0.4878320000000  0.4789890000000 1.0
C      1  0.4668990000000  0.4431030000000  0.5159760000000 1.0
C      1  0.5342110000000  0.4417540000000  0.5206980000000 1.0
C      1  0.5068100000000  0.4431970000000  0.4629780000000 1.0
C      1  0.5403220000000  0.5370830000000  0.5113620000000 1.0
C      1  0.5005460000000  0.5551550000000  0.4548950000000 1.0
C      1  0.4641470000000  0.5386300000000  0.5302260000000 1.0
C      1  0.5107280000000  0.4942510000000  0.4752650000000 1.0
C      1  0.4697460000000  0.5021850000000  0.4974930000000 1.0
C      1  0.5097530000000  0.4925030000000  0.5232770000000 1.0
C      1  0.4865050000000  0.5079350000000  0.4752390000000 1.0
C      1  0.4817120000000  0.4948530000000  0.5229570000000 1.0
C      1  0.5242460000000  0.4938240000000  0.4993600000000 1.0
C      1  0.4667570000000  0.5199840000000  0.4558960000000 1.0
C      1  0.4729140000000  0.5129770000000  0.5447090000000 1.0
C      1  0.5481520000000  0.5097420000000  0.4996320000000 1.0
C      1  0.4543980000000  0.4618880000000  0.5338860000000 1.0
C      1  0.5577930000000  0.4584370000000  0.5231220000000 1.0
C      1  0.5008750000000  0.4629280000000  0.4420970000000 1.0
C      1  0.4992240000000  0.5167900000000  0.5625000000000 1.0
C      1  0.5573450000000  0.5111350000000  0.4699850000000 1.0
C      1  0.4385780000000  0.5156340000000  0.4690150000000 1.0
C      1  0.4605140000000  0.5562360000000  0.4843910000000 1.0
C      1  0.5023090000000  0.5606330000000  0.5361740000000 1.0
C      1  0.5434860000000  0.5603880000000  0.4740490000000 1.0
C      1  0.5343070000000  0.4237330000000  0.4989050000000 1.0
C      1  0.4842290000000  0.4301470000000  0.4731630000000 1.0
C      1  0.4885480000000  0.4289410000000  0.5273690000000 1.0
C      1  0.4599520000000  0.4728760000000  0.4734760000000 1.0
C      1  0.5006970000000  0.4679210000000  0.5520540000000 1.0
C      1  0.5542770000000  0.4610170000000  0.4738670000000 1.0
C      1  0.4469350000000  0.4960630000000  0.5501030000000 1.0
C      1  0.5654100000000  0.4953480000000  0.5205300000000 1.0
C      1  0.4759780000000  0.5030310000000  0.4323330000000 1.0
C      1  0.5436150000000  0.5349660000000  0.4570050000000 1.0
C      1  0.4355290000000  0.5391570000000  0.4896430000000 1.0
C      1  0.5169110000000  0.5407000000000  0.5536350000000 1.0
C      1  0.5705250000000  0.4642520000000  0.4980780000000 1.0
C      1  0.4731350000000  0.4746840000000  0.4436360000000 1.0
C      1  0.4710170000000  0.4675340000000  0.5563210000000 1.0
C      1  0.5421220000000  0.4936010000000  0.5655090000000 1.0
C      1  0.5211040000000  0.4832670000000  0.4341800000000 1.0
C      1  0.4237520000000  0.4893290000000  0.5056160000000 1.0
C      1  0.5063210000000  0.5089900000000  0.4298590000000 1.0
C      1  0.4273430000000  0.5058310000000  0.5282690000000 1.0
C      1  0.5569950000000  0.5083870000000  0.5470180000000 1.0
C      1  0.5327590000000  0.4406990000000  0.4763640000000 1.0
C      1  0.4656470000000  0.4461660000000  0.4868400000000 1.0
C      1  0.5107380000000  0.4423260000000  0.5383850000000 1.0
C      1  0.4351340000000  0.5337100000000  0.5203710000000 1.0
C      1  0.5438820000000  0.5344610000000  0.5409040000000 1.0
C      1  0.5152790000000  0.5300080000000  0.4496350000000 1.0
C      1  0.4747090000000  0.5623620000000  0.5435160000000 1.0
C      1  0.5575430000000  0.5568410000000  0.4986920000000 1.0
C      1  0.4711320000000  0.5503470000000  0.4569700000000 1.0
END
