TITL C-8703-8361-191 -3.6890896273424e-05 125000 -361.925438192433 0 0 60 (C1) n - 1
REM
REM in /home/bkarasulu/CARBON/AIRSS/Generating-Clusters/EDIP-Nigel-Params/Higher-Symm/Box-15A/Only-C60/SD-CG/HFTN-CG
REM
REM
REM
REM
REM
REM ./C.cell (414f73aa93bd7a1190c7fd0f31ff2f98)
REM
REM compiler GCC version 9.2.1 20190827 (Red Hat 9.2.1-1)
REM options -cpp -mtune=generic -march=x86-64 -g -O0 -fpre-include=/usr/include/finclude/math-vector-fortran.h
REM seed 1307574633 -1913383437 1050007596 1078220255 1529148328 -255832821 -18544158 -1492283438 -899292420 1449594964 448877835 -1165379684 621142283 -46061442 1381362280 872926120 -1644287990 1285084391 -614505922 -1869424856 1692628829 -535658781 -1967679850 -2047710146 -420510733 -756183906 -653912050 1794370187 751398624 -1172958066 -1182134246 1375435076 -1234871857
REM
CELL 1.54180   50.00000   50.00000   50.00000   90.00000   90.00000   90.00000
LATT -1
SFAC C  
C      1  0.5331990000000  0.5419150000000  0.4728710000000 1.0
C      1  0.5483080000000  0.5172760000000  0.4688690000000 1.0
C      1  0.5501940000000  0.4582600000000  0.4608130000000 1.0
C      1  0.5255200000000  0.4494370000000  0.4717690000000 1.0
C      1  0.5028030000000  0.4613490000000  0.4578640000000 1.0
C      1  0.4813970000000  0.4737400000000  0.4727700000000 1.0
C      1  0.4628030000000  0.4905570000000  0.4588460000000 1.0
C      1  0.4441270000000  0.5076890000000  0.4744140000000 1.0
C      1  0.4587280000000  0.5388160000000  0.4559190000000 1.0
C      1  0.4823170000000  0.5519750000000  0.4684870000000 1.0
C      1  0.5085810000000  0.5441230000000  0.4573050000000 1.0
C      1  0.5149980000000  0.5594080000000  0.5482360000000 1.0
C      1  0.5402120000000  0.5452060000000  0.5464620000000 1.0
C      1  0.5564410000000  0.5104470000000  0.5444150000000 1.0
C      1  0.5549650000000  0.4819240000000  0.5441520000000 1.0
C      1  0.5321250000000  0.4511420000000  0.5477510000000 1.0
C      1  0.5079550000000  0.4354310000000  0.5530380000000 1.0
C      1  0.4819590000000  0.4483930000000  0.5489930000000 1.0
C      1  0.4515200000000  0.4718070000000  0.5489970000000 1.0
C      1  0.4414780000000  0.4986710000000  0.5484420000000 1.0
C      1  0.4566330000000  0.5331770000000  0.5456300000000 1.0
C      1  0.4774870000000  0.5527850000000  0.5464220000000 1.0
C      1  0.5223430000000  0.5802880000000  0.5020280000000 1.0
C      1  0.5331780000000  0.5548830000000  0.4984810000000 1.0
C      1  0.5611150000000  0.5054780000000  0.4921270000000 1.0
C      1  0.5711520000000  0.4793020000000  0.4939560000000 1.0
C      1  0.5215460000000  0.4418700000000  0.5001020000000 1.0
C      1  0.5029750000000  0.4206510000000  0.5084990000000 1.0
C      1  0.4753570000000  0.4234240000000  0.5040470000000 1.0
C      1  0.4344530000000  0.4648260000000  0.5031610000000 1.0
C      1  0.4339980000000  0.4926710000000  0.4991390000000 1.0
C      1  0.4501210000000  0.5389290000000  0.4959970000000 1.0
C      1  0.4765020000000  0.5505690000000  0.4971290000000 1.0
C      1  0.4861390000000  0.5381340000000  0.4161800000000 1.0
C      1  0.5102560000000  0.5368610000000  0.4297430000000 1.0
C      1  0.5313690000000  0.5198200000000  0.4232720000000 1.0
C      1  0.5438310000000  0.5042630000000  0.4431000000000 1.0
C      1  0.5467330000000  0.4754280000000  0.4383400000000 1.0
C      1  0.5302360000000  0.4648920000000  0.4177150000000 1.0
C      1  0.5044930000000  0.4648040000000  0.4292270000000 1.0
C      1  0.4820990000000  0.4760700000000  0.4171740000000 1.0
C      1  0.4615540000000  0.4897450000000  0.4300890000000 1.0
C      1  0.4479810000000  0.5107870000000  0.4174070000000 1.0
C      1  0.4606190000000  0.5340680000000  0.4268880000000 1.0
C      1  0.4659170000000  0.4356190000000  0.5279070000000 1.0
C      1  0.4435650000000  0.4539490000000  0.5274980000000 1.0
C      1  0.4278960000000  0.5075350000000  0.5238030000000 1.0
C      1  0.4384710000000  0.5345140000000  0.5225400000000 1.0
C      1  0.4808380000000  0.5670530000000  0.5212420000000 1.0
C      1  0.5074790000000  0.5782430000000  0.5260750000000 1.0
C      1  0.5508770000000  0.5463240000000  0.5192850000000 1.0
C      1  0.5617690000000  0.5199820000000  0.5172740000000 1.0
C      1  0.5593210000000  0.4696190000000  0.5181240000000 1.0
C      1  0.5420880000000  0.4467590000000  0.5203780000000 1.0
C      1  0.5086010000000  0.4132860000000  0.5352270000000 1.0
C      1  0.5030040000000  0.5021560000000  0.5721660000000 1.0
C      1  0.4858130000000  0.4793880000000  0.4995070000000 1.0
C      1  0.5066160000000  0.5063800000000  0.5971320000000 1.0
C      1  0.5009780000000  0.4994570000000  0.5458630000000 1.0
C      1  0.4946010000000  0.4925540000000  0.5210040000000 1.0
END
