TITL C-8704-7456-247 2.07890553282801e-06 125000 -364.022525735369 0 0 60 (C1) n - 1
REM
REM in /home/bkarasulu/CARBON/AIRSS/Generating-Clusters/EDIP-Nigel-Params/Higher-Symm/Box-15A/Only-C60/SD-CG/HFTN-CG
REM
REM
REM
REM
REM
REM ./C.cell (414f73aa93bd7a1190c7fd0f31ff2f98)
REM
REM compiler GCC version 9.2.1 20190827 (Red Hat 9.2.1-1)
REM options -cpp -mtune=generic -march=x86-64 -g -O0 -fpre-include=/usr/include/finclude/math-vector-fortran.h
REM seed -1250606440 -1472229900 1467402938 -1632351966 2052294579 132771029 1444805190 -1021194796 819903892 186613185 -271100962 1608221911 1858666251 1846500854 -676272625 517809702 -211626291 -862570482 -1869756847 243658305 -358381457 -1630999123 -878008957 -121989452 -1142098433 -1172048352 -1191863241 107341850 -955137609 1313333098 560548155 -374103107 -2129098310
REM
CELL 1.54180   50.00000   50.00000   50.00000   90.00000   90.00000   90.00000
LATT -1
SFAC C  
C      1  0.5119810000000  0.5092510000000  0.4940250000000 1.0
C      1  0.5139530000000  0.4812410000000  0.4869810000000 1.0
C      1  0.4432240000000  0.4526270000000  0.5167970000000 1.0
C      1  0.4498960000000  0.5034560000000  0.4565190000000 1.0
C      1  0.5520540000000  0.5677230000000  0.5131210000000 1.0
C      1  0.4401130000000  0.5167350000000  0.5431800000000 1.0
C      1  0.4928580000000  0.4305950000000  0.5083160000000 1.0
C      1  0.4613170000000  0.4564940000000  0.4447160000000 1.0
C      1  0.5657900000000  0.4668320000000  0.4919350000000 1.0
C      1  0.4481400000000  0.4738110000000  0.4654400000000 1.0
C      1  0.4373010000000  0.5022610000000  0.4982150000000 1.0
C      1  0.5317070000000  0.5245080000000  0.4762040000000 1.0
C      1  0.5510050000000  0.4445860000000  0.4838120000000 1.0
C      1  0.4791360000000  0.5319950000000  0.5309000000000 1.0
C      1  0.4238150000000  0.4712200000000  0.5270750000000 1.0
C      1  0.5596640000000  0.5174020000000  0.5173840000000 1.0
C      1  0.5266570000000  0.5417140000000  0.5460410000000 1.0
C      1  0.4635390000000  0.5037650000000  0.5610180000000 1.0
C      1  0.4846110000000  0.4485580000000  0.4866560000000 1.0
C      1  0.4882090000000  0.5177110000000  0.5658160000000 1.0
C      1  0.5570540000000  0.5622850000000  0.4836890000000 1.0
C      1  0.5505190000000  0.5423310000000  0.5294220000000 1.0
C      1  0.4233540000000  0.4994560000000  0.5239790000000 1.0
C      1  0.5265230000000  0.4560520000000  0.4740610000000 1.0
C      1  0.5325430000000  0.4631230000000  0.4452470000000 1.0
C      1  0.5096250000000  0.5678060000000  0.4923450000000 1.0
C      1  0.4868400000000  0.4458360000000  0.4569050000000 1.0
C      1  0.4839940000000  0.5761170000000  0.4846830000000 1.0
C      1  0.4660000000000  0.4935850000000  0.5063760000000 1.0
C      1  0.5760530000000  0.5412540000000  0.4786330000000 1.0
C      1  0.4583890000000  0.5694570000000  0.4889510000000 1.0
C      1  0.4364690000000  0.5273250000000  0.4838310000000 1.0
C      1  0.5171780000000  0.4164340000000  0.5083980000000 1.0
C      1  0.5146880000000  0.4661920000000  0.5516590000000 1.0
C      1  0.5138640000000  0.5161580000000  0.5529050000000 1.0
C      1  0.5490300000000  0.4890200000000  0.4477760000000 1.0
C      1  0.5654520000000  0.4711180000000  0.5196130000000 1.0
C      1  0.5524940000000  0.4927700000000  0.5312350000000 1.0
C      1  0.5027830000000  0.4687750000000  0.4385240000000 1.0
C      1  0.5292490000000  0.5551880000000  0.4743410000000 1.0
C      1  0.5240150000000  0.5791040000000  0.5158920000000 1.0
C      1  0.5282090000000  0.4912820000000  0.5477460000000 1.0
C      1  0.4634440000000  0.4858970000000  0.5362160000000 1.0
C      1  0.5283630000000  0.5109680000000  0.4493680000000 1.0
C      1  0.4497990000000  0.5434580000000  0.5293090000000 1.0
C      1  0.4601600000000  0.4646220000000  0.4925780000000 1.0
C      1  0.5020960000000  0.4961680000000  0.4531510000000 1.0
C      1  0.4774940000000  0.5119260000000  0.4447740000000 1.0
C      1  0.4651200000000  0.4995560000000  0.4213390000000 1.0
C      1  0.5291170000000  0.4227770000000  0.5321630000000 1.0
C      1  0.4425520000000  0.5497200000000  0.5005420000000 1.0
C      1  0.5234640000000  0.4394100000000  0.5535100000000 1.0
C      1  0.4857100000000  0.5170570000000  0.5044910000000 1.0
C      1  0.5604400000000  0.5180890000000  0.4869630000000 1.0
C      1  0.4629000000000  0.4548150000000  0.5398020000000 1.0
C      1  0.4691600000000  0.4715120000000  0.4206820000000 1.0
C      1  0.4892460000000  0.4418100000000  0.5353230000000 1.0
C      1  0.4840490000000  0.5610240000000  0.5348720000000 1.0
C      1  0.5659920000000  0.4909150000000  0.4737140000000 1.0
C      1  0.5115980000000  0.5671230000000  0.5408410000000 1.0
END
