TITL C-8706-7473-171 -3.26386212077962e-06 125000 -361.646459232534 0 0 60 (C1) n - 1
REM
REM in /home/bkarasulu/CARBON/AIRSS/Generating-Clusters/EDIP-Nigel-Params/Higher-Symm/Box-15A/Only-C60/SD-CG/HFTN-CG
REM
REM
REM
REM
REM
REM ./C.cell (414f73aa93bd7a1190c7fd0f31ff2f98)
REM
REM compiler GCC version 9.2.1 20190827 (Red Hat 9.2.1-1)
REM options -cpp -mtune=generic -march=x86-64 -g -O0 -fpre-include=/usr/include/finclude/math-vector-fortran.h
REM seed 997945355 1847436874 -970940085 -370045935 -2118579199 -807097982 -958381585 -1007486750 -1235600300 -1150328506 426255549 -421880495 -1041931214 1188184474 -1033152663 1896513560 -664214359 2012691345 2006938676 -1389210673 -1404386798 1435593126 -316369584 1971732841 1779102930 -2064014299 2015586509 -1738360276 1451022861 170932411 1869244137 1478124028 -641138142
REM
CELL 1.54180   50.00000   50.00000   50.00000   90.00000   90.00000   90.00000
LATT -1
SFAC C  
C      1  0.5518590000000  0.4954340000000  0.4682730000000 1.0
C      1  0.4797600000000  0.5715800000000  0.4877530000000 1.0
C      1  0.4493990000000  0.4527560000000  0.5266360000000 1.0
C      1  0.4985920000000  0.5258440000000  0.5499040000000 1.0
C      1  0.5295220000000  0.5671740000000  0.4916140000000 1.0
C      1  0.5600960000000  0.5014230000000  0.4969600000000 1.0
C      1  0.5633330000000  0.4778070000000  0.5155780000000 1.0
C      1  0.4979340000000  0.4234240000000  0.4912020000000 1.0
C      1  0.4817900000000  0.5109550000000  0.4192690000000 1.0
C      1  0.4457640000000  0.4836810000000  0.4421450000000 1.0
C      1  0.5564980000000  0.5579960000000  0.4819420000000 1.0
C      1  0.4959010000000  0.4295100000000  0.5192630000000 1.0
C      1  0.5366280000000  0.5166870000000  0.5111630000000 1.0
C      1  0.5034200000000  0.5659710000000  0.4712710000000 1.0
C      1  0.5037840000000  0.5524700000000  0.5338760000000 1.0
C      1  0.5551840000000  0.5424650000000  0.4590610000000 1.0
C      1  0.5707710000000  0.5443900000000  0.5044950000000 1.0
C      1  0.4147390000000  0.4901320000000  0.4833910000000 1.0
C      1  0.5497040000000  0.5404960000000  0.5257560000000 1.0
C      1  0.4894120000000  0.4685320000000  0.5801220000000 1.0
C      1  0.5645950000000  0.4520240000000  0.5054200000000 1.0
C      1  0.4362530000000  0.4954990000000  0.4650620000000 1.0
C      1  0.4414880000000  0.4581580000000  0.4984500000000 1.0
C      1  0.4631030000000  0.4924380000000  0.4237760000000 1.0
C      1  0.5008840000000  0.5276860000000  0.4303150000000 1.0
C      1  0.4493530000000  0.5042910000000  0.5406510000000 1.0
C      1  0.5266890000000  0.4619470000000  0.5477270000000 1.0
C      1  0.5189730000000  0.5297840000000  0.4903620000000 1.0
C      1  0.5178520000000  0.5060650000000  0.5634810000000 1.0
C      1  0.4570130000000  0.5533100000000  0.4858120000000 1.0
C      1  0.5446610000000  0.5062650000000  0.5534420000000 1.0
C      1  0.4701160000000  0.5195590000000  0.5525780000000 1.0
C      1  0.5374440000000  0.4439220000000  0.4676520000000 1.0
C      1  0.5450490000000  0.4822080000000  0.5379560000000 1.0
C      1  0.4647870000000  0.4688120000000  0.5694520000000 1.0
C      1  0.4746780000000  0.5076370000000  0.4823180000000 1.0
C      1  0.5093080000000  0.4832410000000  0.4954450000000 1.0
C      1  0.4140320000000  0.5082210000000  0.5045070000000 1.0
C      1  0.4796750000000  0.5163410000000  0.5118500000000 1.0
C      1  0.5266720000000  0.5172960000000  0.4309410000000 1.0
C      1  0.5054450000000  0.5058610000000  0.4754650000000 1.0
C      1  0.5422250000000  0.5185920000000  0.4539960000000 1.0
C      1  0.4942180000000  0.5428510000000  0.5072020000000 1.0
C      1  0.5095780000000  0.4367950000000  0.4687690000000 1.0
C      1  0.5179800000000  0.4401760000000  0.5327290000000 1.0
C      1  0.5829350000000  0.5196440000000  0.4973890000000 1.0
C      1  0.5534040000000  0.4345040000000  0.4884570000000 1.0
C      1  0.5430510000000  0.4702170000000  0.4603400000000 1.0
C      1  0.5074080000000  0.4994900000000  0.5223160000000 1.0
C      1  0.4143280000000  0.4638400000000  0.4928250000000 1.0
C      1  0.4622070000000  0.4713050000000  0.4810100000000 1.0
C      1  0.5301040000000  0.5626230000000  0.5237500000000 1.0
C      1  0.5072060000000  0.4786970000000  0.5610480000000 1.0
C      1  0.4653530000000  0.5322230000000  0.4667740000000 1.0
C      1  0.4701150000000  0.4337840000000  0.5292100000000 1.0
C      1  0.4932030000000  0.5391710000000  0.4571030000000 1.0
C      1  0.4509080000000  0.4752800000000  0.5461840000000 1.0
C      1  0.4361660000000  0.5178000000000  0.5184110000000 1.0
C      1  0.4474680000000  0.5421940000000  0.5103260000000 1.0
C      1  0.4899830000000  0.4615220000000  0.4898280000000 1.0
END
