TITL C-8706-7473-203 -5.48468793399929e-06 125000 -367.977782265272 0 0 60 (C5) n - 1
REM
REM in /home/bkarasulu/CARBON/AIRSS/Generating-Clusters/EDIP-Nigel-Params/Higher-Symm/Box-15A/Only-C60/SD-CG/HFTN-CG
REM
REM
REM
REM
REM
REM ./C.cell (414f73aa93bd7a1190c7fd0f31ff2f98)
REM
REM compiler GCC version 9.2.1 20190827 (Red Hat 9.2.1-1)
REM options -cpp -mtune=generic -march=x86-64 -g -O0 -fpre-include=/usr/include/finclude/math-vector-fortran.h
REM seed -382289973 1490158 216390142 -1725727239 -489527138 -208473022 -1978305412 -1826832832 2047676721 -1272900731 58160705 1442740519 -1630875787 1018318065 979092786 1382310338 -656261312 905533013 -875264043 1828038053 1200891585 -539715970 -1194917594 1667602567 -1057559262 596361841 -874372642 -2022253209 -1705975953 1117352188 -498567415 -1965780614 -1330283044
REM
CELL 1.54180   50.00000   50.00000   50.00000   90.00000   90.00000   90.00000
LATT -1
SFAC C  
C      1  0.4462950000000  0.4822650000000  0.4955730000000 1.0
C      1  0.4665380000000  0.5455960000000  0.4955650000000 1.0
C      1  0.5330240000000  0.5459140000000  0.4955690000000 1.0
C      1  0.5538730000000  0.4827800000000  0.4955790000000 1.0
C      1  0.5002710000000  0.4434420000000  0.4955810000000 1.0
C      1  0.4201250000000  0.5132100000000  0.5124890000000 1.0
C      1  0.4878790000000  0.5800480000000  0.5124840000000 1.0
C      1  0.5723830000000  0.5362640000000  0.5124950000000 1.0
C      1  0.5568550000000  0.4423670000000  0.5125070000000 1.0
C      1  0.4627550000000  0.4281190000000  0.5125030000000 1.0
C      1  0.5686890000000  0.5027520000000  0.4760620000000 1.0
C      1  0.5238470000000  0.4355220000000  0.4760690000000 1.0
C      1  0.4460510000000  0.4573940000000  0.4760610000000 1.0
C      1  0.4428120000000  0.5381420000000  0.4760500000000 1.0
C      1  0.5186070000000  0.5661740000000  0.4760510000000 1.0
C      1  0.4832450000000  0.5620940000000  0.5329970000000 1.0
C      1  0.5538720000000  0.5351240000000  0.5330050000000 1.0
C      1  0.5500470000000  0.4596200000000  0.5330150000000 1.0
C      1  0.4770560000000  0.4399260000000  0.5330130000000 1.0
C      1  0.4357700000000  0.5032580000000  0.5330030000000 1.0
C      1  0.4824620000000  0.5442360000000  0.4562510000000 1.0
C      1  0.5366590000000  0.5303470000000  0.4562560000000 1.0
C      1  0.5401970000000  0.4745120000000  0.4562640000000 1.0
C      1  0.4881880000000  0.4538920000000  0.4562640000000 1.0
C      1  0.4525060000000  0.4969840000000  0.4562560000000 1.0
C      1  0.5328380000000  0.5548250000000  0.5326640000000 1.0
C      1  0.5622830000000  0.4857120000000  0.5326750000000 1.0
C      1  0.5056530000000  0.4363510000000  0.5326780000000 1.0
C      1  0.4412080000000  0.4749570000000  0.5326690000000 1.0
C      1  0.4580090000000  0.5481770000000  0.5326600000000 1.0
C      1  0.5239590000000  0.4904550000000  0.4899090000000 1.0
C      1  0.4983280000000  0.4742640000000  0.4899090000000 1.0
C      1  0.4750090000000  0.4936370000000  0.4899050000000 1.0
C      1  0.4862280000000  0.5218020000000  0.4899020000000 1.0
C      1  0.5164800000000  0.5198350000000  0.4899040000000 1.0
C      1  0.4775030000000  0.5109180000000  0.5591760000000 1.0
C      1  0.5034220000000  0.5247720000000  0.5591760000000 1.0
C      1  0.5246070000000  0.5044030000000  0.5591800000000 1.0
C      1  0.5117810000000  0.4779600000000  0.5591830000000 1.0
C      1  0.4826700000000  0.4819870000000  0.5591800000000 1.0
C      1  0.4724240000000  0.5702080000000  0.4677610000000 1.0
C      1  0.5582550000000  0.5479210000000  0.4677690000000 1.0
C      1  0.5635820000000  0.4594030000000  0.4677810000000 1.0
C      1  0.4810430000000  0.4269830000000  0.4677810000000 1.0
C      1  0.4247040000000  0.4954640000000  0.4677680000000 1.0
C      1  0.5126080000000  0.5497440000000  0.4509630000000 1.0
C      1  0.5512140000000  0.5033790000000  0.4509720000000 1.0
C      1  0.5190470000000  0.4523350000000  0.4509770000000 1.0
C      1  0.4605620000000  0.4671540000000  0.4509720000000 1.0
C      1  0.4565820000000  0.5273560000000  0.4509630000000 1.0
C      1  0.4587150000000  0.4320270000000  0.4851510000000 1.0
C      1  0.4225990000000  0.5182590000000  0.4851370000000 1.0
C      1  0.4934500000000  0.5792550000000  0.4851330000000 1.0
C      1  0.5733540000000  0.5307200000000  0.4851440000000 1.0
C      1  0.5518870000000  0.4397280000000  0.4851550000000 1.0
C      1  0.4670490000000  0.4657780000000  0.5409710000000 1.0
C      1  0.4572640000000  0.5207650000000  0.5409630000000 1.0
C      1  0.5065360000000  0.5470630000000  0.5409620000000 1.0
C      1  0.5467720000000  0.5083290000000  0.5409700000000 1.0
C      1  0.5223680000000  0.4580920000000  0.5409750000000 1.0
END
