TITL C-8701-7969-96 5.34006064599453e-06 125000 -368.757422348261 0 0 60 (C1) n - 1
REM
REM in /home/bkarasulu/CARBON/AIRSS/Generating-Clusters/EDIP-Nigel-Params/Higher-Symm/Box-15A/Only-C60/SD-CG/HFTN-CG
REM
REM
REM
REM
REM
REM ./C.cell (414f73aa93bd7a1190c7fd0f31ff2f98)
REM
REM compiler GCC version 9.2.1 20190827 (Red Hat 9.2.1-1)
REM options -cpp -mtune=generic -march=x86-64 -g -O0 -fpre-include=/usr/include/finclude/math-vector-fortran.h
REM seed 223843198 -1434553277 1579297879 -967191753 -995009013 -533557469 1937561613 -1529018760 -1239467180 -2040881042 -1859800889 914659104 1816964615 -335519588 -1349278713 -2011730131 313419092 -1588056534 1424022650 -342747557 1204341055 -148048276 1278453774 1202140477 23138308 -1036156971 2128627858 -990505158 1339581443 163197283 1192218695 498486612 1169270567
REM
CELL 1.54180   50.00000   50.00000   50.00000   90.00000   90.00000   90.00000
LATT -1
SFAC C  
C      1  0.5061210000000  0.4864710000000  0.4335860000000 1.0
C      1  0.4438950000000  0.4540770000000  0.4877570000000 1.0
C      1  0.4761560000000  0.4935120000000  0.4919100000000 1.0
C      1  0.5278430000000  0.4396900000000  0.4963300000000 1.0
C      1  0.5061890000000  0.5486640000000  0.5533190000000 1.0
C      1  0.4578420000000  0.5144370000000  0.4503090000000 1.0
C      1  0.4525610000000  0.4546000000000  0.5310680000000 1.0
C      1  0.4682560000000  0.5007830000000  0.5414410000000 1.0
C      1  0.4999900000000  0.4418680000000  0.4553820000000 1.0
C      1  0.5224510000000  0.5119340000000  0.4753190000000 1.0
C      1  0.5671300000000  0.4731920000000  0.4996430000000 1.0
C      1  0.4456510000000  0.4815290000000  0.5392110000000 1.0
C      1  0.5743770000000  0.5002450000000  0.4978640000000 1.0
C      1  0.4944250000000  0.4597070000000  0.5539050000000 1.0
C      1  0.5016050000000  0.5261400000000  0.4588620000000 1.0
C      1  0.5702590000000  0.5124210000000  0.4700300000000 1.0
C      1  0.4575920000000  0.5284460000000  0.5461370000000 1.0
C      1  0.4406980000000  0.5374640000000  0.5220240000000 1.0
C      1  0.4202750000000  0.5159820000000  0.5125140000000 1.0
C      1  0.5364490000000  0.4755080000000  0.5404150000000 1.0
C      1  0.4223110000000  0.4908170000000  0.5263910000000 1.0
C      1  0.5181350000000  0.5322960000000  0.4337520000000 1.0
C      1  0.4743980000000  0.5626330000000  0.4870080000000 1.0
C      1  0.4272700000000  0.5057690000000  0.4849100000000 1.0
C      1  0.5431990000000  0.5567960000000  0.4697410000000 1.0
C      1  0.4912780000000  0.4252540000000  0.5202590000000 1.0
C      1  0.5462240000000  0.5651590000000  0.5327630000000 1.0
C      1  0.4821200000000  0.5021810000000  0.4588550000000 1.0
C      1  0.4358090000000  0.4419390000000  0.5119280000000 1.0
C      1  0.5233140000000  0.4500230000000  0.5481160000000 1.0
C      1  0.5175480000000  0.5668880000000  0.5332780000000 1.0
C      1  0.4445310000000  0.5253680000000  0.4726810000000 1.0
C      1  0.4845050000000  0.4204380000000  0.4910420000000 1.0
C      1  0.4975010000000  0.5741910000000  0.5009530000000 1.0
C      1  0.5061900000000  0.5351390000000  0.5117220000000 1.0
C      1  0.5165730000000  0.4632130000000  0.4467540000000 1.0
C      1  0.4461420000000  0.4836210000000  0.4962180000000 1.0
C      1  0.4785770000000  0.5450110000000  0.5539700000000 1.0
C      1  0.5261640000000  0.5139380000000  0.5038650000000 1.0
C      1  0.5258220000000  0.5269130000000  0.5500980000000 1.0
C      1  0.4787350000000  0.5194950000000  0.5086210000000 1.0
C      1  0.4683230000000  0.4416460000000  0.4774880000000 1.0
C      1  0.5438310000000  0.5001300000000  0.4582080000000 1.0
C      1  0.4878390000000  0.5508900000000  0.4652670000000 1.0
C      1  0.5413580000000  0.4701450000000  0.4606490000000 1.0
C      1  0.5490270000000  0.4572460000000  0.4854850000000 1.0
C      1  0.5196500000000  0.4978510000000  0.5541700000000 1.0
C      1  0.4585360000000  0.5384220000000  0.4969360000000 1.0
C      1  0.5501730000000  0.5373090000000  0.5364410000000 1.0
C      1  0.4911880000000  0.4893650000000  0.5586390000000 1.0
C      1  0.5193250000000  0.4871730000000  0.5165430000000 1.0
C      1  0.5213800000000  0.4300640000000  0.5241330000000 1.0
C      1  0.5099230000000  0.4260450000000  0.4772220000000 1.0
C      1  0.5221810000000  0.5627390000000  0.4897660000000 1.0
C      1  0.4820040000000  0.4534410000000  0.5273240000000 1.0
C      1  0.5369800000000  0.5514120000000  0.4424710000000 1.0
C      1  0.5649810000000  0.5404160000000  0.4812140000000 1.0
C      1  0.5290820000000  0.5052390000000  0.4306540000000 1.0
C      1  0.5544960000000  0.5223860000000  0.5101170000000 1.0
C      1  0.4936160000000  0.4743290000000  0.5073220000000 1.0
END
