TITL C-8705-8172-66 -8.14678358171099e-07 125000 -368.606660767971 0 0 60 (C1) n - 1
REM
REM in /home/bkarasulu/CARBON/AIRSS/Generating-Clusters/EDIP-Nigel-Params/Higher-Symm/Box-15A/Only-C60/SD-CG/HFTN-CG
REM
REM
REM
REM
REM
REM ./C.cell (414f73aa93bd7a1190c7fd0f31ff2f98)
REM
REM compiler GCC version 9.2.1 20190827 (Red Hat 9.2.1-1)
REM options -cpp -mtune=generic -march=x86-64 -g -O0 -fpre-include=/usr/include/finclude/math-vector-fortran.h
REM seed 184454819 638849801 208735901 329403772 790008201 -1433796373 -218178857 2061174771 175175388 1181345099 1032760955 41906040 -10764241 -484413094 -453143106 -243731189 -381290285 -495197501 1678672938 1404028201 281385837 517142606 -1142819993 -1258473661 -1471336380 1575066596 -1534102797 -997585588 -248590730 1224343209 422814796 1790003576 1105041781
REM
CELL 1.54180   50.00000   50.00000   50.00000   90.00000   90.00000   90.00000
LATT -1
SFAC C  
C      1  0.4768970000000  0.4401030000000  0.4849040000000 1.0
C      1  0.4740230000000  0.4843680000000  0.5649940000000 1.0
C      1  0.4720420000000  0.5634960000000  0.5145320000000 1.0
C      1  0.4738440000000  0.5151820000000  0.4351010000000 1.0
C      1  0.5000620000000  0.4750510000000  0.5567000000000 1.0
C      1  0.4978000000000  0.5507160000000  0.5201430000000 1.0
C      1  0.5014020000000  0.5241040000000  0.4381960000000 1.0
C      1  0.5036070000000  0.4488690000000  0.4775500000000 1.0
C      1  0.4406460000000  0.4860520000000  0.4833110000000 1.0
C      1  0.4412970000000  0.4827700000000  0.5140970000000 1.0
C      1  0.4400250000000  0.5136680000000  0.5175680000000 1.0
C      1  0.4393930000000  0.5168440000000  0.4863100000000 1.0
C      1  0.5223520000000  0.5018500000000  0.4480930000000 1.0
C      1  0.5212100000000  0.4478260000000  0.5018360000000 1.0
C      1  0.5212010000000  0.4971770000000  0.5574040000000 1.0
C      1  0.5145520000000  0.5521640000000  0.4957100000000 1.0
C      1  0.5051720000000  0.5523930000000  0.4469730000000 1.0
C      1  0.5135390000000  0.4589530000000  0.4517920000000 1.0
C      1  0.5074740000000  0.4465950000000  0.5521860000000 1.0
C      1  0.5100690000000  0.5481030000000  0.5475250000000 1.0
C      1  0.5243410000000  0.5069070000000  0.5291970000000 1.0
C      1  0.5362770000000  0.5328120000000  0.4869230000000 1.0
C      1  0.5237660000000  0.5042120000000  0.4811760000000 1.0
C      1  0.5242990000000  0.4864040000000  0.5070770000000 1.0
C      1  0.4437860000000  0.5338170000000  0.5385410000000 1.0
C      1  0.4411340000000  0.5377000000000  0.4658420000000 1.0
C      1  0.4430990000000  0.4661070000000  0.4621240000000 1.0
C      1  0.4440710000000  0.4616390000000  0.5339850000000 1.0
C      1  0.5020670000000  0.4373080000000  0.5243420000000 1.0
C      1  0.5022780000000  0.5231600000000  0.5639370000000 1.0
C      1  0.4949110000000  0.5559650000000  0.4749030000000 1.0
C      1  0.4983560000000  0.4750630000000  0.4340980000000 1.0
C      1  0.4509020000000  0.4699250000000  0.5596010000000 1.0
C      1  0.4492420000000  0.5597940000000  0.5301690000000 1.0
C      1  0.4513720000000  0.5305360000000  0.4409450000000 1.0
C      1  0.4538760000000  0.4416700000000  0.4694980000000 1.0
C      1  0.5758330000000  0.5078850000000  0.4993450000000 1.0
C      1  0.5693390000000  0.4965910000000  0.4702460000000 1.0
C      1  0.5734160000000  0.4599480000000  0.5137370000000 1.0
C      1  0.5788000000000  0.4875470000000  0.5235350000000 1.0
C      1  0.5535950000000  0.5141290000000  0.4502420000000 1.0
C      1  0.5518800000000  0.4544310000000  0.4945800000000 1.0
C      1  0.5588010000000  0.4886110000000  0.5489780000000 1.0
C      1  0.5585310000000  0.5311700000000  0.5064580000000 1.0
C      1  0.4749630000000  0.4371860000000  0.5133040000000 1.0
C      1  0.4743060000000  0.5130130000000  0.5633500000000 1.0
C      1  0.4693800000000  0.5656100000000  0.4857880000000 1.0
C      1  0.4725500000000  0.4870020000000  0.4363450000000 1.0
C      1  0.5462460000000  0.5272310000000  0.5323930000000 1.0
C      1  0.5494420000000  0.5412930000000  0.4610860000000 1.0
C      1  0.5489630000000  0.4748420000000  0.4730020000000 1.0
C      1  0.5425700000000  0.4669630000000  0.5355180000000 1.0
C      1  0.5329260000000  0.5575790000000  0.4456030000000 1.0
C      1  0.5410850000000  0.4624730000000  0.4483240000000 1.0
C      1  0.5356830000000  0.4453700000000  0.5539150000000 1.0
C      1  0.5384270000000  0.5507560000000  0.5459610000000 1.0
C      1  0.4504120000000  0.5274220000000  0.5650050000000 1.0
C      1  0.4441380000000  0.5644790000000  0.4735400000000 1.0
C      1  0.4478070000000  0.4738570000000  0.4356270000000 1.0
C      1  0.4505250000000  0.4353050000000  0.5268350000000 1.0
END
