TITL C-8705-8172-224 -4.65702125388684e-06 125000 -349.643556526718 0 0 60 (C1) n - 1
REM
REM in /home/bkarasulu/CARBON/AIRSS/Generating-Clusters/EDIP-Nigel-Params/Higher-Symm/Box-15A/Only-C60/SD-CG/HFTN-CG
REM
REM
REM
REM
REM
REM ./C.cell (414f73aa93bd7a1190c7fd0f31ff2f98)
REM
REM compiler GCC version 9.2.1 20190827 (Red Hat 9.2.1-1)
REM options -cpp -mtune=generic -march=x86-64 -g -O0 -fpre-include=/usr/include/finclude/math-vector-fortran.h
REM seed -705512820 996446833 1725634688 -687733976 1512067403 191063822 1928815216 1998086485 -295361913 66113543 -719381036 20821190 1649128707 -338364316 -1281460959 -1266909039 -151402295 -50477478 -2031465304 892354732 -1278561636 -1460877821 2082447661 468092369 -736124273 63517171 -1940481350 -545579003 740214024 -1050861682 1628798832 -1323938256 -54750720
REM
CELL 1.54180   50.00000   50.00000   50.00000   90.00000   90.00000   90.00000
LATT -1
SFAC C  
C      1  0.5448620000000  0.4739900000000  0.5296190000000 1.0
C      1  0.4441030000000  0.4592950000000  0.4642310000000 1.0
C      1  0.5482750000000  0.5478070000000  0.4672600000000 1.0
C      1  0.4519480000000  0.5295410000000  0.5341150000000 1.0
C      1  0.5276570000000  0.4576770000000  0.5456650000000 1.0
C      1  0.4660840000000  0.4554820000000  0.4454330000000 1.0
C      1  0.4693290000000  0.5461870000000  0.5506050000000 1.0
C      1  0.5322600000000  0.5294070000000  0.4514320000000 1.0
C      1  0.5099890000000  0.4823470000000  0.4322200000000 1.0
C      1  0.4914990000000  0.4912330000000  0.5651850000000 1.0
C      1  0.5101090000000  0.5158420000000  0.5656750000000 1.0
C      1  0.4911160000000  0.5069950000000  0.4295870000000 1.0
C      1  0.4324100000000  0.4834190000000  0.5096630000000 1.0
C      1  0.5662910000000  0.4931900000000  0.4900030000000 1.0
C      1  0.5658120000000  0.5184560000000  0.5074330000000 1.0
C      1  0.4321380000000  0.5087370000000  0.4918600000000 1.0
C      1  0.5568500000000  0.5163150000000  0.5355130000000 1.0
C      1  0.4463790000000  0.5069030000000  0.4657570000000 1.0
C      1  0.5569550000000  0.4920070000000  0.4627230000000 1.0
C      1  0.4445950000000  0.4865460000000  0.5367880000000 1.0
C      1  0.5376300000000  0.5143920000000  0.5552820000000 1.0
C      1  0.4654140000000  0.5051590000000  0.4448060000000 1.0
C      1  0.4641550000000  0.4931110000000  0.5555940000000 1.0
C      1  0.5367970000000  0.4865430000000  0.4444650000000 1.0
C      1  0.4749970000000  0.4265140000000  0.5405280000000 1.0
C      1  0.5264200000000  0.4216650000000  0.4621280000000 1.0
C      1  0.4851600000000  0.5700750000000  0.4630830000000 1.0
C      1  0.5328630000000  0.5770690000000  0.5510190000000 1.0
C      1  0.5428900000000  0.4263200000000  0.4827870000000 1.0
C      1  0.4555810000000  0.4203020000000  0.5232680000000 1.0
C      1  0.4656170000000  0.5712260000000  0.4819420000000 1.0
C      1  0.5507640000000  0.5780620000000  0.5314520000000 1.0
C      1  0.4353290000000  0.5342350000000  0.5091920000000 1.0
C      1  0.5617830000000  0.5450230000000  0.4932760000000 1.0
C      1  0.4401200000000  0.4585730000000  0.4933740000000 1.0
C      1  0.5608700000000  0.4685670000000  0.5055640000000 1.0
C      1  0.5071410000000  0.5332320000000  0.4349080000000 1.0
C      1  0.4960100000000  0.5426470000000  0.5628620000000 1.0
C      1  0.4952200000000  0.4571970000000  0.4414980000000 1.0
C      1  0.5027000000000  0.4632510000000  0.5609760000000 1.0
C      1  0.5618390000000  0.5671610000000  0.5098790000000 1.0
C      1  0.4502330000000  0.5491190000000  0.4886460000000 1.0
C      1  0.5471450000000  0.4534670000000  0.4850260000000 1.0
C      1  0.4407210000000  0.4339430000000  0.5058860000000 1.0
C      1  0.5126690000000  0.5647570000000  0.5631620000000 1.0
C      1  0.4860450000000  0.5430980000000  0.4545140000000 1.0
C      1  0.4795310000000  0.4530720000000  0.5462360000000 1.0
C      1  0.5098730000000  0.4340820000000  0.4453320000000 1.0
C      1  0.5011070000000  0.4914920000000  0.4691810000000 1.0
C      1  0.4903740000000  0.4805750000000  0.5224480000000 1.0
C      1  0.5063500000000  0.5073400000000  0.5270930000000 1.0
C      1  0.4944900000000  0.5218810000000  0.4757840000000 1.0
C      1  0.4703390000000  0.4897430000000  0.5019300000000 1.0
C      1  0.5230660000000  0.4834070000000  0.4884930000000 1.0
C      1  0.5277200000000  0.5086990000000  0.5050350000000 1.0
C      1  0.4746770000000  0.5203570000000  0.4969270000000 1.0
C      1  0.5200750000000  0.5317150000000  0.4874700000000 1.0
C      1  0.5129680000000  0.4645370000000  0.5106360000000 1.0
C      1  0.4881000000000  0.5302950000000  0.5212410000000 1.0
C      1  0.4765550000000  0.4767250000000  0.4763040000000 1.0
END
