TITL C-8701-7969-104 -1.17099867140914e-05 125000 -367.400400806381 0 0 60 (C1) n - 1
REM
REM in /home/bkarasulu/CARBON/AIRSS/Generating-Clusters/EDIP-Nigel-Params/Higher-Symm/Box-15A/Only-C60/SD-CG/HFTN-CG
REM
REM
REM
REM
REM
REM ./C.cell (414f73aa93bd7a1190c7fd0f31ff2f98)
REM
REM compiler GCC version 9.2.1 20190827 (Red Hat 9.2.1-1)
REM options -cpp -mtune=generic -march=x86-64 -g -O0 -fpre-include=/usr/include/finclude/math-vector-fortran.h
REM seed 535705349 678218408 -291645834 -1495601220 1971371514 1934918893 -577803303 511289408 -194887745 -1039088321 -1903458754 1980558745 2040076173 638164650 -1429802891 -2014542804 909931575 535348090 -1984930073 1741559940 -1183449049 -2070987096 -1624168732 -669099802 -1373724043 1716719854 -92544458 -1697951298 -389336025 789728754 680616180 -251864237 -1877029867
REM
CELL 1.54180   50.00000   50.00000   50.00000   90.00000   90.00000   90.00000
LATT -1
SFAC C  
C      1  0.4815840000000  0.4854780000000  0.5179010000000 1.0
C      1  0.4767690000000  0.4823100000000  0.4869520000000 1.0
C      1  0.5039290000000  0.4847100000000  0.4718320000000 1.0
C      1  0.5255710000000  0.4779460000000  0.4947530000000 1.0
C      1  0.5119420000000  0.4803390000000  0.5229220000000 1.0
C      1  0.5186330000000  0.5116850000000  0.5207290000000 1.0
C      1  0.5238690000000  0.5167340000000  0.4896520000000 1.0
C      1  0.4968930000000  0.5158190000000  0.4736870000000 1.0
C      1  0.4747200000000  0.5211920000000  0.4964080000000 1.0
C      1  0.4894110000000  0.5218420000000  0.5246360000000 1.0
C      1  0.5291090000000  0.4878020000000  0.5558910000000 1.0
C      1  0.4571170000000  0.4905350000000  0.5478970000000 1.0
C      1  0.4414540000000  0.4890320000000  0.4731240000000 1.0
C      1  0.5040860000000  0.4864110000000  0.4303630000000 1.0
C      1  0.5560100000000  0.4869950000000  0.4908200000000 1.0
C      1  0.4740570000000  0.5137410000000  0.5507260000000 1.0
C      1  0.5439270000000  0.5113650000000  0.5508440000000 1.0
C      1  0.5589890000000  0.5105850000000  0.4739900000000 1.0
C      1  0.4960120000000  0.5124920000000  0.4317470000000 1.0
C      1  0.4443660000000  0.5116210000000  0.4912490000000 1.0
C      1  0.4925970000000  0.5656840000000  0.5241030000000 1.0
C      1  0.4745810000000  0.5650690000000  0.5015870000000 1.0
C      1  0.4896120000000  0.5684190000000  0.4768910000000 1.0
C      1  0.5184340000000  0.5689200000000  0.4844950000000 1.0
C      1  0.5200120000000  0.5678440000000  0.5140590000000 1.0
C      1  0.5069790000000  0.4362020000000  0.5231610000000 1.0
C      1  0.5253750000000  0.4343710000000  0.5010450000000 1.0
C      1  0.5099760000000  0.4310810000000  0.4763460000000 1.0
C      1  0.4812010000000  0.4313040000000  0.4842420000000 1.0
C      1  0.4798240000000  0.4331560000000  0.5136090000000 1.0
C      1  0.5557950000000  0.4550390000000  0.5300860000000 1.0
C      1  0.4890610000000  0.4559950000000  0.5621100000000 1.0
C      1  0.4370700000000  0.4550630000000  0.5075510000000 1.0
C      1  0.4725630000000  0.4521910000000  0.4415920000000 1.0
C      1  0.5468960000000  0.4542610000000  0.4565170000000 1.0
C      1  0.4436670000000  0.5461130000000  0.5311420000000 1.0
C      1  0.5106780000000  0.5456030000000  0.5628840000000 1.0
C      1  0.5624010000000  0.5448320000000  0.5080990000000 1.0
C      1  0.5269980000000  0.5470610000000  0.4422050000000 1.0
C      1  0.4528060000000  0.5447350000000  0.4574290000000 1.0
C      1  0.4993580000000  0.4594070000000  0.4365780000000 1.0
C      1  0.5625760000000  0.4600880000000  0.4796420000000 1.0
C      1  0.5380820000000  0.4604170000000  0.5518440000000 1.0
C      1  0.4638320000000  0.4624890000000  0.5506140000000 1.0
C      1  0.4395490000000  0.4605240000000  0.4798340000000 1.0
C      1  0.5002690000000  0.5395900000000  0.4373540000000 1.0
C      1  0.4377260000000  0.5388650000000  0.4809520000000 1.0
C      1  0.4612410000000  0.5404800000000  0.5529890000000 1.0
C      1  0.5355000000000  0.5387290000000  0.5508950000000 1.0
C      1  0.5601080000000  0.5391600000000  0.4804400000000 1.0
C      1  0.4581750000000  0.4486950000000  0.5250540000000 1.0
C      1  0.4622530000000  0.4457350000000  0.4669800000000 1.0
C      1  0.5195980000000  0.4473690000000  0.4543120000000 1.0
C      1  0.5528730000000  0.4443790000000  0.5037890000000 1.0
C      1  0.5124050000000  0.4454630000000  0.5499730000000 1.0
C      1  0.5403730000000  0.5503220000000  0.5246180000000 1.0
C      1  0.5367550000000  0.5529750000000  0.4678920000000 1.0
C      1  0.4800290000000  0.5519250000000  0.4549300000000 1.0
C      1  0.4473610000000  0.5552460000000  0.5044890000000 1.0
C      1  0.4869640000000  0.5565620000000  0.5515430000000 1.0
END
