TITL C-8703-8361-89 5.8373693427624e-07 125000 -350.966484720192 0 0 60 (C1) n - 1
REM
REM in /home/bkarasulu/CARBON/AIRSS/Generating-Clusters/EDIP-Nigel-Params/Higher-Symm/Box-15A/Only-C60/SD-CG/HFTN-CG
REM
REM
REM
REM
REM
REM ./C.cell (414f73aa93bd7a1190c7fd0f31ff2f98)
REM
REM compiler GCC version 9.2.1 20190827 (Red Hat 9.2.1-1)
REM options -cpp -mtune=generic -march=x86-64 -g -O0 -fpre-include=/usr/include/finclude/math-vector-fortran.h
REM seed 319230859 1881382132 -709457352 -35850751 -2129645393 -1993045582 -1572876620 -1445599118 626928475 1957304046 -1353499941 -1651202714 -1583197403 -112777467 831552282 743528751 -1338199946 1366149976 -668318578 -409620667 2002170670 1847681753 -2030992519 2050251686 -623693112 -1655816084 -143332055 -1491629489 -367498255 784361971 -1290944424 353204640 1451280368
REM
CELL 1.54180   50.00000   50.00000   50.00000   90.00000   90.00000   90.00000
LATT -1
SFAC C  
C      1  0.4573980000000  0.4486400000000  0.5152760000000 1.0
C      1  0.4449540000000  0.5458380000000  0.4826910000000 1.0
C      1  0.5453590000000  0.5488500000000  0.5208540000000 1.0
C      1  0.5531790000000  0.4559650000000  0.4829400000000 1.0
C      1  0.4742210000000  0.4980540000000  0.5025230000000 1.0
C      1  0.4803600000000  0.5208930000000  0.4843920000000 1.0
C      1  0.5310210000000  0.5071560000000  0.5172320000000 1.0
C      1  0.5120250000000  0.4701770000000  0.4850780000000 1.0
C      1  0.5455600000000  0.5020490000000  0.4645330000000 1.0
C      1  0.5027270000000  0.4592070000000  0.5369120000000 1.0
C      1  0.4461240000000  0.5017430000000  0.4636570000000 1.0
C      1  0.4985890000000  0.5415130000000  0.5358560000000 1.0
C      1  0.5422960000000  0.5279730000000  0.4217670000000 1.0
C      1  0.5236970000000  0.4619790000000  0.5820930000000 1.0
C      1  0.4431420000000  0.4755340000000  0.4198580000000 1.0
C      1  0.4769390000000  0.5353720000000  0.5797390000000 1.0
C      1  0.5819190000000  0.4930400000000  0.4942910000000 1.0
C      1  0.4963630000000  0.4213300000000  0.5078030000000 1.0
C      1  0.4213300000000  0.5069810000000  0.5039720000000 1.0
C      1  0.5080720000000  0.5742420000000  0.5030380000000 1.0
C      1  0.5599730000000  0.5360700000000  0.5006250000000 1.0
C      1  0.5400700000000  0.4420910000000  0.5035460000000 1.0
C      1  0.4415410000000  0.4634990000000  0.4975220000000 1.0
C      1  0.4641900000000  0.5594700000000  0.4983270000000 1.0
C      1  0.4549320000000  0.5349340000000  0.5630540000000 1.0
C      1  0.5429160000000  0.5480130000000  0.4409930000000 1.0
C      1  0.5470240000000  0.4600530000000  0.5672600000000 1.0
C      1  0.4552370000000  0.4582600000000  0.4376760000000 1.0
C      1  0.5111360000000  0.4471990000000  0.5624990000000 1.0
C      1  0.4323340000000  0.4885190000000  0.4417630000000 1.0
C      1  0.4898350000000  0.5516340000000  0.5619270000000 1.0
C      1  0.5569370000000  0.5125300000000  0.4394010000000 1.0
C      1  0.5634400000000  0.4815000000000  0.4771420000000 1.0
C      1  0.4833510000000  0.4408250000000  0.5226030000000 1.0
C      1  0.4308790000000  0.5211030000000  0.4798490000000 1.0
C      1  0.5192750000000  0.5589990000000  0.5234710000000 1.0
C      1  0.5314620000000  0.5105510000000  0.5573850000000 1.0
C      1  0.5177000000000  0.4617120000000  0.4474320000000 1.0
C      1  0.4626630000000  0.4862270000000  0.5473840000000 1.0
C      1  0.4928670000000  0.5285680000000  0.4370730000000 1.0
C      1  0.4985270000000  0.5450590000000  0.4600940000000 1.0
C      1  0.5514450000000  0.4995090000000  0.5393450000000 1.0
C      1  0.4962620000000  0.4514560000000  0.4650630000000 1.0
C      1  0.4530310000000  0.5017100000000  0.5247000000000 1.0
C      1  0.5384400000000  0.5250070000000  0.4836520000000 1.0
C      1  0.5286970000000  0.4645380000000  0.5201820000000 1.0
C      1  0.4593690000000  0.4812870000000  0.4816110000000 1.0
C      1  0.4741520000000  0.5395160000000  0.5177740000000 1.0
C      1  0.5275520000000  0.5473400000000  0.4658000000000 1.0
C      1  0.5515970000000  0.4703760000000  0.5402140000000 1.0
C      1  0.4725640000000  0.4663910000000  0.4591210000000 1.0
C      1  0.4518750000000  0.5301030000000  0.5344960000000 1.0
C      1  0.5803560000000  0.5175810000000  0.5054630000000 1.0
C      1  0.5216720000000  0.4217490000000  0.4985260000000 1.0
C      1  0.4203930000000  0.4792260000000  0.5066260000000 1.0
C      1  0.4849950000000  0.5754770000000  0.4887050000000 1.0
C      1  0.4895440000000  0.5071330000000  0.4565560000000 1.0
C      1  0.5085530000000  0.5117970000000  0.5386250000000 1.0
C      1  0.5173750000000  0.4901510000000  0.4599600000000 1.0
C      1  0.4905660000000  0.4863050000000  0.5420470000000 1.0
END
