TITL C-8701-7969-148 3.43478791473364e-06 125000 -365.293204422063 0 0 60 (C1) n - 1
REM
REM in /home/bkarasulu/CARBON/AIRSS/Generating-Clusters/EDIP-Nigel-Params/Higher-Symm/Box-15A/Only-C60/SD-CG/HFTN-CG
REM
REM
REM
REM
REM
REM ./C.cell (414f73aa93bd7a1190c7fd0f31ff2f98)
REM
REM compiler GCC version 9.2.1 20190827 (Red Hat 9.2.1-1)
REM options -cpp -mtune=generic -march=x86-64 -g -O0 -fpre-include=/usr/include/finclude/math-vector-fortran.h
REM seed -26345272 -202662316 -1605106617 -559485191 1746710842 1676479560 1153150362 -1746761149 -570309438 649253618 391433696 735191263 427522224 -2125990022 698420351 585715052 -1562895288 801942555 721534091 1251062646 -1797220189 435089042 -939347570 134983685 -387037463 841562001 1073479852 2123834899 1173562781 764845984 723266868 -320012437 -1843545272
REM
CELL 1.54180   50.00000   50.00000   50.00000   90.00000   90.00000   90.00000
LATT -1
SFAC C  
C      1  0.4315380000000  0.4721260000000  0.4661610000000 1.0
C      1  0.5026330000000  0.5440390000000  0.4970950000000 1.0
C      1  0.5497020000000  0.5314420000000  0.5110810000000 1.0
C      1  0.5018480000000  0.4363660000000  0.4698260000000 1.0
C      1  0.5800630000000  0.5174100000000  0.4625650000000 1.0
C      1  0.4587300000000  0.5558250000000  0.4975100000000 1.0
C      1  0.4330000000000  0.5163630000000  0.4631380000000 1.0
C      1  0.5760390000000  0.4906770000000  0.5315300000000 1.0
C      1  0.5486810000000  0.4830900000000  0.4758940000000 1.0
C      1  0.4419990000000  0.5276070000000  0.5392190000000 1.0
C      1  0.4946820000000  0.5306520000000  0.5658950000000 1.0
C      1  0.4818850000000  0.4730620000000  0.5489680000000 1.0
C      1  0.4833060000000  0.5196210000000  0.4923790000000 1.0
C      1  0.5156280000000  0.5332960000000  0.4409030000000 1.0
C      1  0.5220440000000  0.4397310000000  0.4917730000000 1.0
C      1  0.4362980000000  0.5094660000000  0.5176060000000 1.0
C      1  0.5238720000000  0.4465200000000  0.5404830000000 1.0
C      1  0.5211190000000  0.4775470000000  0.5754500000000 1.0
C      1  0.5636890000000  0.5351740000000  0.4511480000000 1.0
C      1  0.4604960000000  0.5482520000000  0.5280930000000 1.0
C      1  0.5198650000000  0.4896360000000  0.5176270000000 1.0
C      1  0.4850180000000  0.5692090000000  0.4585820000000 1.0
C      1  0.5108440000000  0.4396510000000  0.4433120000000 1.0
C      1  0.4543130000000  0.5136340000000  0.5602210000000 1.0
C      1  0.4483290000000  0.4799360000000  0.4430570000000 1.0
C      1  0.4477030000000  0.4556080000000  0.4853360000000 1.0
C      1  0.5089180000000  0.5515120000000  0.5253680000000 1.0
C      1  0.4740280000000  0.4766940000000  0.5189880000000 1.0
C      1  0.5025700000000  0.5067540000000  0.4471460000000 1.0
C      1  0.4991900000000  0.4985230000000  0.4771310000000 1.0
C      1  0.4847470000000  0.5666850000000  0.4863050000000 1.0
C      1  0.5484510000000  0.4554030000000  0.4883680000000 1.0
C      1  0.4743710000000  0.5073980000000  0.5185740000000 1.0
C      1  0.4433290000000  0.5074870000000  0.4383260000000 1.0
C      1  0.5267400000000  0.5002210000000  0.4890860000000 1.0
C      1  0.5019580000000  0.5091700000000  0.5345800000000 1.0
C      1  0.4925380000000  0.4718920000000  0.4945530000000 1.0
C      1  0.5254950000000  0.5256970000000  0.5614070000000 1.0
C      1  0.5394610000000  0.4710640000000  0.5328340000000 1.0
C      1  0.4970980000000  0.5543980000000  0.4397970000000 1.0
C      1  0.5375100000000  0.4988410000000  0.5671970000000 1.0
C      1  0.5141770000000  0.4325070000000  0.5181680000000 1.0
C      1  0.5338280000000  0.5395490000000  0.5353500000000 1.0
C      1  0.4775160000000  0.4545360000000  0.4749700000000 1.0
C      1  0.4466020000000  0.4665350000000  0.5129300000000 1.0
C      1  0.5606100000000  0.4600410000000  0.5144960000000 1.0
C      1  0.5306060000000  0.5310510000000  0.4877740000000 1.0
C      1  0.4760550000000  0.4967890000000  0.5652780000000 1.0
C      1  0.5061580000000  0.4854750000000  0.4281260000000 1.0
C      1  0.4184780000000  0.4957130000000  0.4763910000000 1.0
C      1  0.4254140000000  0.4838970000000  0.5200990000000 1.0
C      1  0.5717130000000  0.5106060000000  0.5099330000000 1.0
C      1  0.5059410000000  0.4594530000000  0.5598480000000 1.0
C      1  0.4497990000000  0.5337600000000  0.4792790000000 1.0
C      1  0.4864300000000  0.5496280000000  0.5435020000000 1.0
C      1  0.4763270000000  0.4718410000000  0.4501350000000 1.0
C      1  0.5744280000000  0.4981610000000  0.4821670000000 1.0
C      1  0.5377290000000  0.5400830000000  0.4598950000000 1.0
C      1  0.5632120000000  0.4936840000000  0.5568630000000 1.0
C      1  0.4952480000000  0.4590130000000  0.4302840000000 1.0
END
