TITL C-8703-8361-197 7.50546217156306e-08 125000 -359.161206747857 0 0 60 (C1) n - 1
REM
REM in /home/bkarasulu/CARBON/AIRSS/Generating-Clusters/EDIP-Nigel-Params/Higher-Symm/Box-15A/Only-C60/SD-CG/HFTN-CG
REM
REM
REM
REM
REM
REM ./C.cell (414f73aa93bd7a1190c7fd0f31ff2f98)
REM
REM compiler GCC version 9.2.1 20190827 (Red Hat 9.2.1-1)
REM options -cpp -mtune=generic -march=x86-64 -g -O0 -fpre-include=/usr/include/finclude/math-vector-fortran.h
REM seed -2104129490 2120660482 -590290035 71350488 1906028819 -1385316249 607477010 -360837816 398005935 -879657238 1042772196 -305796047 2143972460 681095481 -1732390645 424148709 100617286 -1122248191 1714128599 -229374613 -1463953454 -1710568773 -1387693075 786555088 -565297353 1383331318 -171782873 1077391768 -1124353805 1396382575 489454009 -1151390577 1720198285
REM
CELL 1.54180   50.00000   50.00000   50.00000   90.00000   90.00000   90.00000
LATT -1
SFAC C  
C      1  0.5052590000000  0.4678220000000  0.4381430000000 1.0
C      1  0.5303710000000  0.4844300000000  0.4385660000000 1.0
C      1  0.5237340000000  0.5082170000000  0.4242460000000 1.0
C      1  0.5078510000000  0.5282180000000  0.4363230000000 1.0
C      1  0.4805290000000  0.5273740000000  0.4297720000000 1.0
C      1  0.4652620000000  0.5039380000000  0.4335440000000 1.0
C      1  0.4821300000000  0.4814540000000  0.4277180000000 1.0
C      1  0.5150990000000  0.5285270000000  0.4656760000000 1.0
C      1  0.4673730000000  0.5355950000000  0.4711970000000 1.0
C      1  0.4578030000000  0.5058980000000  0.4636750000000 1.0
C      1  0.4676740000000  0.4501710000000  0.4648900000000 1.0
C      1  0.4971540000000  0.4505870000000  0.4616320000000 1.0
C      1  0.5433090000000  0.4921590000000  0.4650610000000 1.0
C      1  0.5452500000000  0.5218520000000  0.4664370000000 1.0
C      1  0.5624510000000  0.5346610000000  0.4887060000000 1.0
C      1  0.5060720000000  0.5549450000000  0.4796210000000 1.0
C      1  0.4461820000000  0.5549090000000  0.4840730000000 1.0
C      1  0.4337600000000  0.4944160000000  0.4817490000000 1.0
C      1  0.4574740000000  0.4350360000000  0.4869270000000 1.0
C      1  0.5160080000000  0.4361800000000  0.4821120000000 1.0
C      1  0.5648580000000  0.4809680000000  0.4826990000000 1.0
C      1  0.4784000000000  0.4614330000000  0.5493210000000 1.0
C      1  0.5096680000000  0.4663610000000  0.5469310000000 1.0
C      1  0.5367780000000  0.4940900000000  0.5496370000000 1.0
C      1  0.5307670000000  0.5247310000000  0.5483680000000 1.0
C      1  0.5029330000000  0.5364630000000  0.5474280000000 1.0
C      1  0.4762950000000  0.5213570000000  0.5465050000000 1.0
C      1  0.4624050000000  0.4864480000000  0.5456400000000 1.0
C      1  0.4780520000000  0.4355550000000  0.5072880000000 1.0
C      1  0.5300420000000  0.4537950000000  0.5015710000000 1.0
C      1  0.5644860000000  0.5000170000000  0.5063520000000 1.0
C      1  0.5436390000000  0.5466470000000  0.5070010000000 1.0
C      1  0.4854240000000  0.5517500000000  0.5020370000000 1.0
C      1  0.4474240000000  0.5300000000000  0.5041500000000 1.0
C      1  0.4439780000000  0.4748960000000  0.5019390000000 1.0
C      1  0.5013410000000  0.4197940000000  0.5023940000000 1.0
C      1  0.5586970000000  0.4566760000000  0.4989000000000 1.0
C      1  0.5839560000000  0.5227260000000  0.5091140000000 1.0
C      1  0.5261930000000  0.5674220000000  0.4977080000000 1.0
C      1  0.4617330000000  0.5720220000000  0.5034580000000 1.0
C      1  0.4229240000000  0.5140170000000  0.5015200000000 1.0
C      1  0.4356110000000  0.4473090000000  0.5023890000000 1.0
C      1  0.5145890000000  0.5790670000000  0.5203030000000 1.0
C      1  0.4553060000000  0.5674140000000  0.5310100000000 1.0
C      1  0.4178230000000  0.5032590000000  0.5271780000000 1.0
C      1  0.4377930000000  0.4385350000000  0.5298200000000 1.0
C      1  0.5148330000000  0.4185880000000  0.5274540000000 1.0
C      1  0.5669120000000  0.4589190000000  0.5263530000000 1.0
C      1  0.5789960000000  0.5332740000000  0.5349830000000 1.0
C      1  0.4552580000000  0.5387140000000  0.5319700000000 1.0
C      1  0.4374560000000  0.4828800000000  0.5295160000000 1.0
C      1  0.4663900000000  0.4376590000000  0.5341900000000 1.0
C      1  0.5248410000000  0.4452730000000  0.5297780000000 1.0
C      1  0.5605290000000  0.4858190000000  0.5325760000000 1.0
C      1  0.5517520000000  0.5424310000000  0.5351110000000 1.0
C      1  0.4989370000000  0.5627300000000  0.5363670000000 1.0
C      1  0.5019200000000  0.4950280000000  0.5332550000000 1.0
C      1  0.5071330000000  0.4975860000000  0.5060290000000 1.0
C      1  0.4808800000000  0.4859430000000  0.4698090000000 1.0
C      1  0.5027870000000  0.5033700000000  0.4798310000000 1.0
END
