TITL C-8703-8361-135 1.29012923792054e-06 125000 -356.622733428221 0 0 60 (C1) n - 1
REM
REM in /home/bkarasulu/CARBON/AIRSS/Generating-Clusters/EDIP-Nigel-Params/Higher-Symm/Box-15A/Only-C60/SD-CG/HFTN-CG
REM
REM
REM
REM
REM
REM ./C.cell (414f73aa93bd7a1190c7fd0f31ff2f98)
REM
REM compiler GCC version 9.2.1 20190827 (Red Hat 9.2.1-1)
REM options -cpp -mtune=generic -march=x86-64 -g -O0 -fpre-include=/usr/include/finclude/math-vector-fortran.h
REM seed 77084816 571900110 675965249 -510753013 -230766297 74712553 -359978373 791274773 82324245 -1736524349 1122601842 1066969815 -1508141349 380225141 -691311788 -1165545988 1216475989 2062694312 -1919129899 -409555716 582678164 -1774076712 650859931 -958169090 -1488899109 316146632 793731872 1710652460 -1310755718 -255889275 -1779060510 -1826716954 -642754152
REM
CELL 1.54180   50.00000   50.00000   50.00000   90.00000   90.00000   90.00000
LATT -1
SFAC C  
C      1  0.4494650000000  0.5088600000000  0.5575960000000 1.0
C      1  0.5202890000000  0.4445810000000  0.5490610000000 1.0
C      1  0.5377950000000  0.5414810000000  0.5662660000000 1.0
C      1  0.5112130000000  0.5342520000000  0.4991520000000 1.0
C      1  0.4705270000000  0.4995160000000  0.5053140000000 1.0
C      1  0.5274030000000  0.4788630000000  0.4969270000000 1.0
C      1  0.4992450000000  0.5594010000000  0.4503360000000 1.0
C      1  0.4437010000000  0.4680210000000  0.4505940000000 1.0
C      1  0.5507670000000  0.4798690000000  0.4592610000000 1.0
C      1  0.4930050000000  0.5362790000000  0.5439140000000 1.0
C      1  0.4753710000000  0.4668090000000  0.5454580000000 1.0
C      1  0.5355300000000  0.4927580000000  0.5477730000000 1.0
C      1  0.4363760000000  0.5010810000000  0.4874250000000 1.0
C      1  0.5441010000000  0.4427820000000  0.4831090000000 1.0
C      1  0.5261740000000  0.5575970000000  0.4923260000000 1.0
C      1  0.4534220000000  0.5449540000000  0.5118920000000 1.0
C      1  0.4738470000000  0.4267570000000  0.5121590000000 1.0
C      1  0.5658820000000  0.5218490000000  0.5183710000000 1.0
C      1  0.4377170000000  0.4571540000000  0.5130520000000 1.0
C      1  0.5684570000000  0.4762490000000  0.5132660000000 1.0
C      1  0.4888610000000  0.5759210000000  0.5080310000000 1.0
C      1  0.5616740000000  0.4973530000000  0.5328160000000 1.0
C      1  0.4757150000000  0.5557490000000  0.5265250000000 1.0
C      1  0.4604780000000  0.4462250000000  0.5283490000000 1.0
C      1  0.5783010000000  0.4762160000000  0.4653550000000 1.0
C      1  0.4857440000000  0.5828450000000  0.4584280000000 1.0
C      1  0.4243890000000  0.4530400000000  0.4644370000000 1.0
C      1  0.5350640000000  0.4546680000000  0.4587580000000 1.0
C      1  0.5288970000000  0.5530140000000  0.4622230000000 1.0
C      1  0.4453060000000  0.4976620000000  0.4589020000000 1.0
C      1  0.5328070000000  0.4663070000000  0.5609900000000 1.0
C      1  0.5110880000000  0.5485410000000  0.5639090000000 1.0
C      1  0.4576640000000  0.4828060000000  0.5632040000000 1.0
C      1  0.5220160000000  0.5219660000000  0.4550100000000 1.0
C      1  0.4753540000000  0.5041460000000  0.4545630000000 1.0
C      1  0.5048880000000  0.4568390000000  0.4578030000000 1.0
C      1  0.4735710000000  0.5754140000000  0.4828290000000 1.0
C      1  0.4382370000000  0.4436800000000  0.4872310000000 1.0
C      1  0.5806220000000  0.4900440000000  0.4900250000000 1.0
C      1  0.4620920000000  0.4270530000000  0.4861540000000 1.0
C      1  0.5719010000000  0.5183760000000  0.4904320000000 1.0
C      1  0.4542510000000  0.5533790000000  0.4845000000000 1.0
C      1  0.4534220000000  0.5360020000000  0.4596360000000 1.0
C      1  0.4765020000000  0.4308030000000  0.4611490000000 1.0
C      1  0.5594130000000  0.5294480000000  0.4637020000000 1.0
C      1  0.4684050000000  0.4532650000000  0.4450240000000 1.0
C      1  0.5466770000000  0.5062300000000  0.4468000000000 1.0
C      1  0.4808760000000  0.5357790000000  0.4459760000000 1.0
C      1  0.4885270000000  0.4966780000000  0.4807000000000 1.0
C      1  0.5012550000000  0.4701040000000  0.4829560000000 1.0
C      1  0.5140130000000  0.5123500000000  0.4816600000000 1.0
C      1  0.5519760000000  0.4521360000000  0.5085290000000 1.0
C      1  0.5168500000000  0.5809980000000  0.5050740000000 1.0
C      1  0.4351410000000  0.4858570000000  0.5115900000000 1.0
C      1  0.4763020000000  0.5158300000000  0.5589760000000 1.0
C      1  0.4972310000000  0.4541280000000  0.5612330000000 1.0
C      1  0.5291730000000  0.5151400000000  0.5671770000000 1.0
C      1  0.5123210000000  0.5236750000000  0.5247620000000 1.0
C      1  0.4870300000000  0.4870680000000  0.5270640000000 1.0
C      1  0.5156780000000  0.4941500000000  0.5242660000000 1.0
END
