TITL C-9258-7861-193 1.64742483088481e-06 125000 -363.659147167455 0 0 60 (C2) n - 1
REM
REM in /home/bkarasulu/CARBON/AIRSS/Generating-Clusters/EDIP-Nigel-Params/Higher-Symm/Box-15A/Only-C60/SD-CG/HFTN-CG
REM
REM
REM
REM
REM
REM ./C.cell (414f73aa93bd7a1190c7fd0f31ff2f98)
REM
REM compiler GCC version 9.2.1 20190827 (Red Hat 9.2.1-1)
REM options -cpp -mtune=generic -march=x86-64 -g -O0 -fpre-include=/usr/include/finclude/math-vector-fortran.h
REM seed 289254022 50684235 539424103 -883295418 -911461554 268185384 177306559 1889154942 2084228801 1530399137 689442378 879639522 -684777609 341138296 -1453531470 1032106214 1442029250 685061440 360683647 474032389 -1054051142 1017231062 2053312109 355258509 784525337 737507013 -952762705 406447182 668045669 -1756114365 -159438913 -324051826 256669158
REM
CELL 1.54180   50.00000   50.00000   50.00000   90.00000   90.00000   90.00000
LATT -1
SFAC C  
C      1  0.5349990000000  0.5607100000000  0.5195040000000 1.0
C      1  0.5343630000000  0.4795730000000  0.5616110000000 1.0
C      1  0.5350110000000  0.4392920000000  0.4805120000000 1.0
C      1  0.5343880000000  0.5204290000000  0.4384050000000 1.0
C      1  0.5331390000000  0.5564080000000  0.4720440000000 1.0
C      1  0.5287060000000  0.4732720000000  0.4457190000000 1.0
C      1  0.5331300000000  0.4435940000000  0.5279710000000 1.0
C      1  0.5286810000000  0.5267290000000  0.5542940000000 1.0
C      1  0.4853200000000  0.5263460000000  0.4367620000000 1.0
C      1  0.4861220000000  0.5638000000000  0.5256700000000 1.0
C      1  0.4852940000000  0.4736530000000  0.5632330000000 1.0
C      1  0.4861360000000  0.4362000000000  0.4743250000000 1.0
C      1  0.4813120000000  0.5205940000000  0.5665490000000 1.0
C      1  0.4820210000000  0.5652750000000  0.4783480000000 1.0
C      1  0.4813420000000  0.4794050000000  0.4334430000000 1.0
C      1  0.4820150000000  0.4347240000000  0.5216450000000 1.0
C      1  0.5417220000000  0.5340150000000  0.5107380000000 1.0
C      1  0.5417560000000  0.4884400000000  0.5349130000000 1.0
C      1  0.5417280000000  0.4659870000000  0.4892810000000 1.0
C      1  0.5417710000000  0.5115620000000  0.4651060000000 1.0
C      1  0.5495220000000  0.5332710000000  0.4829350000000 1.0
C      1  0.5480990000000  0.4834180000000  0.4667420000000 1.0
C      1  0.5495160000000  0.4667310000000  0.5170870000000 1.0
C      1  0.5480840000000  0.5165840000000  0.5332800000000 1.0
C      1  0.4982600000000  0.4636050000000  0.4829110000000 1.0
C      1  0.4981980000000  0.5165890000000  0.4634590000000 1.0
C      1  0.4982510000000  0.5363950000000  0.5170890000000 1.0
C      1  0.4981830000000  0.4834110000000  0.5365410000000 1.0
C      1  0.5002610000000  0.4592890000000  0.5154770000000 1.0
C      1  0.5003930000000  0.5161100000000  0.5422930000000 1.0
C      1  0.5002650000000  0.5407110000000  0.4845240000000 1.0
C      1  0.5004120000000  0.4838900000000  0.4577080000000 1.0
C      1  0.4477830000000  0.5117580000000  0.5349440000000 1.0
C      1  0.4478790000000  0.4650030000000  0.5113770000000 1.0
C      1  0.4477990000000  0.4882390000000  0.4650340000000 1.0
C      1  0.4478820000000  0.5349950000000  0.4886010000000 1.0
C      1  0.4544670000000  0.5165010000000  0.4671620000000 1.0
C      1  0.4547670000000  0.4666170000000  0.4831690000000 1.0
C      1  0.4544530000000  0.4834970000000  0.5328190000000 1.0
C      1  0.4547580000000  0.5333810000000  0.5168120000000 1.0
C      1  0.4536390000000  0.5198620000000  0.5612120000000 1.0
C      1  0.4541310000000  0.4390220000000  0.5201850000000 1.0
C      1  0.4536670000000  0.4801360000000  0.4387690000000 1.0
C      1  0.4541360000000  0.5609760000000  0.4797960000000 1.0
C      1  0.4568440000000  0.5292710000000  0.4419300000000 1.0
C      1  0.4576460000000  0.4412470000000  0.4707290000000 1.0
C      1  0.4568200000000  0.4707270000000  0.5580520000000 1.0
C      1  0.4576310000000  0.5587510000000  0.5292540000000 1.0
C      1  0.4932990000000  0.5808660000000  0.5012160000000 1.0
C      1  0.4933040000000  0.4191340000000  0.4987820000000 1.0
C      1  0.4922510000000  0.5030800000000  0.4184580000000 1.0
C      1  0.4922160000000  0.4969200000000  0.5815390000000 1.0
C      1  0.5232900000000  0.4235840000000  0.5029990000000 1.0
C      1  0.5217180000000  0.4998460000000  0.4212260000000 1.0
C      1  0.5232880000000  0.5764180000000  0.4970120000000 1.0
C      1  0.5216840000000  0.5001550000000  0.5787840000000 1.0
C      1  0.5188160000000  0.5445910000000  0.4455040000000 1.0
C      1  0.5193340000000  0.5562090000000  0.5439360000000 1.0
C      1  0.5187950000000  0.4554100000000  0.5545050000000 1.0
C      1  0.5193560000000  0.4437920000000  0.4560730000000 1.0
END
