TITL C-9255-4564-32 -2.81822368525989e-06 125000 -360.174560274119 0 0 60 (C1) n - 1
REM
REM in /home/bkarasulu/CARBON/AIRSS/Generating-Clusters/EDIP-Nigel-Params/Higher-Symm/Box-15A/Only-C60/SD-CG/HFTN-CG
REM
REM
REM
REM
REM
REM ./C.cell (414f73aa93bd7a1190c7fd0f31ff2f98)
REM
REM compiler GCC version 9.2.1 20190827 (Red Hat 9.2.1-1)
REM options -cpp -mtune=generic -march=x86-64 -g -O0 -fpre-include=/usr/include/finclude/math-vector-fortran.h
REM seed -1786615559 1856767600 -264623630 -12344083 -1755398102 -1048476659 -181223875 44564109 963957925 -585113422 -1476202747 -421798371 1818520505 -1009518356 1651695943 1816973594 -1893754935 -1750825218 -4107733 -1741108877 -775131276 560435310 1881244715 -1163242664 -825429084 1881410578 -706415239 178892585 178115469 1148629072 1743063522 -1493119486 -1755888717
REM
CELL 1.54180   50.00000   50.00000   50.00000   90.00000   90.00000   90.00000
LATT -1
SFAC C  
C      1  0.5572450000000  0.4640870000000  0.4518200000000 1.0
C      1  0.4425460000000  0.5329550000000  0.4525770000000 1.0
C      1  0.5596160000000  0.5386890000000  0.4536210000000 1.0
C      1  0.4416110000000  0.4594780000000  0.4586490000000 1.0
C      1  0.4727240000000  0.5431830000000  0.5557050000000 1.0
C      1  0.5255850000000  0.4521670000000  0.5589300000000 1.0
C      1  0.4777060000000  0.4566300000000  0.5580740000000 1.0
C      1  0.5202560000000  0.5393670000000  0.5575450000000 1.0
C      1  0.5261550000000  0.5630190000000  0.5083610000000 1.0
C      1  0.4769500000000  0.4347840000000  0.5078640000000 1.0
C      1  0.5241300000000  0.4319000000000  0.5062980000000 1.0
C      1  0.4791990000000  0.5676710000000  0.5017510000000 1.0
C      1  0.5408060000000  0.5134900000000  0.5083690000000 1.0
C      1  0.4557420000000  0.4789560000000  0.5062790000000 1.0
C      1  0.5574330000000  0.4668460000000  0.5040330000000 1.0
C      1  0.4471320000000  0.5259840000000  0.5076430000000 1.0
C      1  0.5768740000000  0.5183950000000  0.4613010000000 1.0
C      1  0.4220370000000  0.4789530000000  0.4621560000000 1.0
C      1  0.5687600000000  0.4895280000000  0.4535470000000 1.0
C      1  0.4307750000000  0.5079660000000  0.4568470000000 1.0
C      1  0.4882010000000  0.5396500000000  0.4397920000000 1.0
C      1  0.5123060000000  0.4520540000000  0.4483910000000 1.0
C      1  0.4872250000000  0.4642220000000  0.4449290000000 1.0
C      1  0.5135850000000  0.5489860000000  0.4470040000000 1.0
C      1  0.5435010000000  0.4730420000000  0.5553650000000 1.0
C      1  0.4515430000000  0.5251970000000  0.5592850000000 1.0
C      1  0.5427010000000  0.5225790000000  0.5579900000000 1.0
C      1  0.4557110000000  0.4738490000000  0.5574240000000 1.0
C      1  0.5284750000000  0.5396430000000  0.4915660000000 1.0
C      1  0.4770380000000  0.4596510000000  0.4932060000000 1.0
C      1  0.5316770000000  0.4556300000000  0.4917500000000 1.0
C      1  0.4746740000000  0.5432090000000  0.4872490000000 1.0
C      1  0.4680550000000  0.4531930000000  0.4646260000000 1.0
C      1  0.5356270000000  0.5473860000000  0.4636790000000 1.0
C      1  0.4662700000000  0.5463310000000  0.4585440000000 1.0
C      1  0.5358260000000  0.4504510000000  0.4627340000000 1.0
C      1  0.4327080000000  0.5249060000000  0.5363760000000 1.0
C      1  0.5639630000000  0.4723800000000  0.5338710000000 1.0
C      1  0.4396130000000  0.4733540000000  0.5325420000000 1.0
C      1  0.5576560000000  0.5215180000000  0.5324560000000 1.0
C      1  0.4565070000000  0.4993440000000  0.5689870000000 1.0
C      1  0.5419870000000  0.4970150000000  0.5698890000000 1.0
C      1  0.4976290000000  0.5502800000000  0.5454840000000 1.0
C      1  0.5011610000000  0.4462640000000  0.5475410000000 1.0
C      1  0.4193470000000  0.4967030000000  0.5315190000000 1.0
C      1  0.5772620000000  0.4991760000000  0.5323070000000 1.0
C      1  0.5926810000000  0.4944220000000  0.4705660000000 1.0
C      1  0.4041280000000  0.5031080000000  0.4684080000000 1.0
C      1  0.5005290000000  0.5615220000000  0.5187740000000 1.0
C      1  0.5009410000000  0.4348400000000  0.5213330000000 1.0
C      1  0.5014510000000  0.5253000000000  0.4879230000000 1.0
C      1  0.5079640000000  0.4763990000000  0.4936960000000 1.0
C      1  0.5643360000000  0.4955650000000  0.4969480000000 1.0
C      1  0.4260500000000  0.5007740000000  0.5002970000000 1.0
C      1  0.4689030000000  0.5053430000000  0.5088830000000 1.0
C      1  0.5164490000000  0.4952340000000  0.5159940000000 1.0
C      1  0.5056290000000  0.4985200000000  0.4730210000000 1.0
C      1  0.4866660000000  0.5130100000000  0.4302700000000 1.0
C      1  0.4935260000000  0.5105130000000  0.5225720000000 1.0
C      1  0.4885110000000  0.4933800000000  0.4504950000000 1.0
END
