TITL C-9267-1554-96 2.28270449480307e-05 125000 -365.655848553011 0 0 60 (C2) n - 1
REM
REM in /home/bkarasulu/CARBON/AIRSS/Generating-Clusters/EDIP-Nigel-Params/Higher-Symm/Box-15A/Only-C60/SD-CG/HFTN-CG
REM
REM
REM
REM
REM
REM ./C.cell (414f73aa93bd7a1190c7fd0f31ff2f98)
REM
REM compiler GCC version 9.2.1 20190827 (Red Hat 9.2.1-1)
REM options -cpp -mtune=generic -march=x86-64 -g -O0 -fpre-include=/usr/include/finclude/math-vector-fortran.h
REM seed -338963938 -691970041 1809252532 132961180 1036358379 -911967380 -1464587948 -873840117 1792430510 -1240504131 -525149853 454790950 1531104778 92311625 -430070012 2046598156 -1495569166 648171926 2108228269 -1308065665 1608305739 1372823716 -1405817193 -765745446 108430215 -1254192386 -1554807497 1174323301 1199119125 2034603781 -445586406 75366005 -313232873
REM
CELL 1.54180   50.00000   50.00000   50.00000   90.00000   90.00000   90.00000
LATT -1
SFAC C  
C      1  0.5593880000000  0.5318050000000  0.5201720000000 1.0
C      1  0.4384890000000  0.5275490000000  0.4799290000000 1.0
C      1  0.5319250000000  0.5227130000000  0.4456940000000 1.0
C      1  0.4665410000000  0.5201890000000  0.5543790000000 1.0
C      1  0.5351210000000  0.4444430000000  0.5379220000000 1.0
C      1  0.4689330000000  0.4422050000000  0.4618860000000 1.0
C      1  0.5073080000000  0.5034570000000  0.5200640000000 1.0
C      1  0.4924610000000  0.5029950000000  0.4799470000000 1.0
C      1  0.5236060000000  0.5226370000000  0.4958990000000 1.0
C      1  0.4748380000000  0.5208790000000  0.5041750000000 1.0
C      1  0.5251220000000  0.5661270000000  0.4917010000000 1.0
C      1  0.4702190000000  0.5641350000000  0.5085200000000 1.0
C      1  0.4382800000000  0.5335970000000  0.5075020000000 1.0
C      1  0.5591610000000  0.5379460000000  0.4926200000000 1.0
C      1  0.5188320000000  0.5597170000000  0.5199010000000 1.0
C      1  0.4769480000000  0.5582860000000  0.4802990000000 1.0
C      1  0.4641350000000  0.5295930000000  0.4403950000000 1.0
C      1  0.5336660000000  0.5318770000000  0.5597100000000 1.0
C      1  0.5082790000000  0.4749790000000  0.5119340000000 1.0
C      1  0.4935290000000  0.4744920000000  0.4879800000000 1.0
C      1  0.4453260000000  0.4854790000000  0.5260450000000 1.0
C      1  0.5555680000000  0.4895110000000  0.4739120000000 1.0
C      1  0.4664570000000  0.4767260000000  0.4338900000000 1.0
C      1  0.5351280000000  0.4789570000000  0.5660350000000 1.0
C      1  0.4934300000000  0.4558680000000  0.5542110000000 1.0
C      1  0.5097000000000  0.4566340000000  0.4456400000000 1.0
C      1  0.4962120000000  0.4278170000000  0.5132680000000 1.0
C      1  0.5089330000000  0.4283180000000  0.4864870000000 1.0
C      1  0.5054230000000  0.5518690000000  0.4743930000000 1.0
C      1  0.4908890000000  0.5512620000000  0.5257820000000 1.0
C      1  0.5011920000000  0.5042870000000  0.5512950000000 1.0
C      1  0.4984980000000  0.5043650000000  0.4487200000000 1.0
C      1  0.5524110000000  0.5636480000000  0.4847330000000 1.0
C      1  0.4431780000000  0.5596890000000  0.5154770000000 1.0
C      1  0.5082030000000  0.4506110000000  0.5296510000000 1.0
C      1  0.4953430000000  0.4502520000000  0.4701810000000 1.0
C      1  0.4683130000000  0.4278360000000  0.5118650000000 1.0
C      1  0.5367600000000  0.4303250000000  0.4878940000000 1.0
C      1  0.4350480000000  0.4676630000000  0.5076610000000 1.0
C      1  0.5670950000000  0.4724120000000  0.4922370000000 1.0
C      1  0.5350760000000  0.5082050000000  0.4708090000000 1.0
C      1  0.4644310000000  0.5055790000000  0.5292150000000 1.0
C      1  0.5579270000000  0.4463390000000  0.4915240000000 1.0
C      1  0.4460560000000  0.4423100000000  0.5082860000000 1.0
C      1  0.4560210000000  0.5447760000000  0.4643440000000 1.0
C      1  0.5406730000000  0.5476820000000  0.5358130000000 1.0
C      1  0.5453570000000  0.5044680000000  0.5549590000000 1.0
C      1  0.4544330000000  0.5014030000000  0.4450510000000 1.0
C      1  0.5727820000000  0.4840110000000  0.5168060000000 1.0
C      1  0.4285450000000  0.4789100000000  0.4831310000000 1.0
C      1  0.5634350000000  0.5054880000000  0.5320150000000 1.0
C      1  0.4363320000000  0.5010510000000  0.4679960000000 1.0
C      1  0.5483780000000  0.4549410000000  0.5590240000000 1.0
C      1  0.4549580000000  0.4518000000000  0.4408180000000 1.0
C      1  0.4959440000000  0.4784290000000  0.4339950000000 1.0
C      1  0.5055950000000  0.4785500000000  0.5659320000000 1.0
C      1  0.5071020000000  0.5369170000000  0.5707870000000 1.0
C      1  0.4902700000000  0.5365550000000  0.4293380000000 1.0
C      1  0.5130050000000  0.5453320000000  0.4457500000000 1.0
C      1  0.4837960000000  0.5441030000000  0.5544020000000 1.0
END
