TITL C-9263-351-260 -3.76929981629927e-06 125000 -369.329839533508 0 0 60 (S10) n - 1
REM
REM in /home/bkarasulu/CARBON/AIRSS/Generating-Clusters/EDIP-Nigel-Params/Higher-Symm/Box-15A/Only-C60/SD-CG/HFTN-CG
REM
REM
REM
REM
REM
REM ./C.cell (414f73aa93bd7a1190c7fd0f31ff2f98)
REM
REM compiler GCC version 9.2.1 20190827 (Red Hat 9.2.1-1)
REM options -cpp -mtune=generic -march=x86-64 -g -O0 -fpre-include=/usr/include/finclude/math-vector-fortran.h
REM seed -1393811958 1710235619 -563964965 -969259421 -683577895 -1245078656 558085109 1355466554 -632118929 -1824859262 -1974629515 -1488882485 593098016 1518495348 1432079050 1485910714 -749822509 1093682190 -38328948 1459994600 1028031820 -2072576281 1299686294 1768609633 -1267839803 1164699638 -2021672763 -1471006644 463954447 -1156969166 308599767 -252041301 1819858018
REM
CELL 1.54180   50.00000   50.00000   50.00000   90.00000   90.00000   90.00000
LATT -1
SFAC C  
C      1  0.4399060000000  0.4981430000000  0.5244140000000 1.0
C      1  0.5600970000000  0.5128480000000  0.5208350000000 1.0
C      1  0.4399040000000  0.5226400000000  0.5093120000000 1.0
C      1  0.5600950000000  0.5237900000000  0.4942180000000 1.0
C      1  0.4399020000000  0.5158470000000  0.4813470000000 1.0
C      1  0.5600940000000  0.5018570000000  0.4755860000000 1.0
C      1  0.4399030000000  0.4871520000000  0.4791650000000 1.0
C      1  0.5600960000000  0.4773600000000  0.4906880000000 1.0
C      1  0.4399050000000  0.4762100000000  0.5057820000000 1.0
C      1  0.5600980000000  0.4841530000000  0.5186530000000 1.0
C      1  0.5156680000000  0.4432190000000  0.5173370000000 1.0
C      1  0.4843380000000  0.4642530000000  0.5474030000000 1.0
C      1  0.5156700000000  0.4989430000000  0.5593600000000 1.0
C      1  0.4843360000000  0.5340360000000  0.5486460000000 1.0
C      1  0.5156650000000  0.5561290000000  0.5193480000000 1.0
C      1  0.4843320000000  0.5567810000000  0.4826630000000 1.0
C      1  0.5156620000000  0.5357470000000  0.4525970000000 1.0
C      1  0.4843300000000  0.5010570000000  0.4406400000000 1.0
C      1  0.5156640000000  0.4659640000000  0.4513540000000 1.0
C      1  0.4843350000000  0.4438710000000  0.4806520000000 1.0
C      1  0.4810850000000  0.5146110000000  0.5227260000000 1.0
C      1  0.5189160000000  0.5251790000000  0.5097950000000 1.0
C      1  0.4810830000000  0.5261270000000  0.4931270000000 1.0
C      1  0.5189140000000  0.5170980000000  0.4790800000000 1.0
C      1  0.4810820000000  0.5015360000000  0.4730280000000 1.0
C      1  0.5189150000000  0.4853890000000  0.4772740000000 1.0
C      1  0.4810840000000  0.4748210000000  0.4902050000000 1.0
C      1  0.5189170000000  0.4738730000000  0.5068730000000 1.0
C      1  0.4810860000000  0.4829020000000  0.5209200000000 1.0
C      1  0.5189180000000  0.4984640000000  0.5269720000000 1.0
C      1  0.5557890000000  0.5262410000000  0.5447050000000 1.0
C      1  0.4442130000000  0.5475060000000  0.5207510000000 1.0
C      1  0.5557850000000  0.5506310000000  0.4888570000000 1.0
C      1  0.4442100000000  0.5344110000000  0.4612330000000 1.0
C      1  0.5557840000000  0.5050530000000  0.4484030000000 1.0
C      1  0.4442110000000  0.4737590000000  0.4552950000000 1.0
C      1  0.5557870000000  0.4524940000000  0.4792490000000 1.0
C      1  0.4442150000000  0.4493690000000  0.5111430000000 1.0
C      1  0.5557900000000  0.4655890000000  0.5387670000000 1.0
C      1  0.4442160000000  0.4949470000000  0.5515970000000 1.0
C      1  0.5124880000000  0.4677070000000  0.5586830000000 1.0
C      1  0.4875200000000  0.5083670000000  0.5664590000000 1.0
C      1  0.5124850000000  0.5458330000000  0.5488470000000 1.0
C      1  0.4875150000000  0.5657910000000  0.5125800000000 1.0
C      1  0.5124800000000  0.5606200000000  0.4715050000000 1.0
C      1  0.4875120000000  0.5322930000000  0.4413170000000 1.0
C      1  0.5124800000000  0.4916330000000  0.4335410000000 1.0
C      1  0.4875150000000  0.4541670000000  0.4511530000000 1.0
C      1  0.5124850000000  0.4342090000000  0.4874200000000 1.0
C      1  0.4875200000000  0.4393800000000  0.5284950000000 1.0
C      1  0.4680190000000  0.4738070000000  0.4408420000000 1.0
C      1  0.5319780000000  0.4440380000000  0.4675320000000 1.0
C      1  0.4680240000000  0.4356410000000  0.5066310000000 1.0
C      1  0.5319820000000  0.4518300000000  0.5431890000000 1.0
C      1  0.4680260000000  0.4864160000000  0.5632590000000 1.0
C      1  0.5319810000000  0.5261930000000  0.5591580000000 1.0
C      1  0.4680220000000  0.5559620000000  0.5324680000000 1.0
C      1  0.5319760000000  0.5643590000000  0.4933690000000 1.0
C      1  0.4680180000000  0.5481700000000  0.4568110000000 1.0
C      1  0.5319740000000  0.5135840000000  0.4367410000000 1.0
END
