TITL C-9264-7143-209 -1.22785856770786e-06 125000 -356.407757542351 0 0 60 (C5) n - 1
REM
REM in /home/bkarasulu/CARBON/AIRSS/Generating-Clusters/EDIP-Nigel-Params/Higher-Symm/Box-15A/Only-C60/SD-CG/HFTN-CG
REM
REM
REM
REM
REM
REM ./C.cell (414f73aa93bd7a1190c7fd0f31ff2f98)
REM
REM compiler GCC version 9.2.1 20190827 (Red Hat 9.2.1-1)
REM options -cpp -mtune=generic -march=x86-64 -g -O0 -fpre-include=/usr/include/finclude/math-vector-fortran.h
REM seed -1229849720 -701430490 -138242157 1903572257 1421386958 -1115229276 -90590806 1258875466 1678969764 133812864 -1529973602 121714191 1099948158 772725980 1217988060 -916294599 1123414862 -85457129 1551636014 1696138713 630871830 888853967 1319978742 1484546351 46511776 463828487 -1701294218 1687069459 -1681305298 1259221635 -66166041 409868375 1374483416
REM
CELL 1.54180   50.00000   50.00000   50.00000   90.00000   90.00000   90.00000
LATT -1
SFAC C  
C      1  0.4916190000000  0.5222890000000  0.5761890000000 1.0
C      1  0.5194570000000  0.5149610000000  0.5759570000000 1.0
C      1  0.5210890000000  0.4862210000000  0.5757440000000 1.0
C      1  0.4942590000000  0.4757870000000  0.5758460000000 1.0
C      1  0.4760460000000  0.4980780000000  0.5761210000000 1.0
C      1  0.5070690000000  0.5248850000000  0.4776260000000 1.0
C      1  0.5256000000000  0.5009380000000  0.4773380000000 1.0
C      1  0.5085500000000  0.4759120000000  0.4772730000000 1.0
C      1  0.4794820000000  0.4843930000000  0.4775220000000 1.0
C      1  0.4785660000000  0.5146600000000  0.4777400000000 1.0
C      1  0.5492480000000  0.5502660000000  0.4457440000000 1.0
C      1  0.5624160000000  0.4686250000000  0.4450860000000 1.0
C      1  0.4888400000000  0.4308690000000  0.4453000000000 1.0
C      1  0.4301980000000  0.4891760000000  0.4460900000000 1.0
C      1  0.4675320000000  0.5629670000000  0.4463640000000 1.0
C      1  0.4645580000000  0.5243790000000  0.4524570000000 1.0
C      1  0.5117000000000  0.5411770000000  0.4522680000000 1.0
C      1  0.5422420000000  0.5015340000000  0.4517910000000 1.0
C      1  0.5139760000000  0.4602350000000  0.4516860000000 1.0
C      1  0.4659640000000  0.4743540000000  0.4520970000000 1.0
C      1  0.4738110000000  0.5579920000000  0.5469350000000 1.0
C      1  0.5475800000000  0.5428930000000  0.5463490000000 1.0
C      1  0.5560120000000  0.4680680000000  0.5457700000000 1.0
C      1  0.4874550000000  0.4369230000000  0.5459970000000 1.0
C      1  0.4366510000000  0.4924990000000  0.5467180000000 1.0
C      1  0.5539220000000  0.5493120000000  0.4984150000000 1.0
C      1  0.5635410000000  0.4639560000000  0.4977540000000 1.0
C      1  0.4853350000000  0.4284270000000  0.4980140000000 1.0
C      1  0.4273810000000  0.4918250000000  0.4988350000000 1.0
C      1  0.4697700000000  0.5665360000000  0.4990830000000 1.0
C      1  0.4553100000000  0.5627150000000  0.4725260000000 1.0
C      1  0.5455230000000  0.5618470000000  0.4719330000000 1.0
C      1  0.5725710000000  0.4757820000000  0.4711540000000 1.0
C      1  0.4990750000000  0.4234590000000  0.4712650000000 1.0
C      1  0.4266040000000  0.4771860000000  0.4721130000000 1.0
C      1  0.5346180000000  0.5267720000000  0.4370070000000 1.0
C      1  0.5354550000000  0.4752660000000  0.4366400000000 1.0
C      1  0.4867280000000  0.4585510000000  0.4368400000000 1.0
C      1  0.4557770000000  0.4997270000000  0.4373300000000 1.0
C      1  0.4853740000000  0.5418900000000  0.4374330000000 1.0
C      1  0.4916090000000  0.4018430000000  0.4888160000000 1.0
C      1  0.4039370000000  0.4776300000000  0.4899180000000 1.0
C      1  0.4489260000000  0.5844330000000  0.4903740000000 1.0
C      1  0.5644030000000  0.5746550000000  0.4895540000000 1.0
C      1  0.5907820000000  0.4618080000000  0.4885920000000 1.0
C      1  0.4816760000000  0.5473880000000  0.5701480000000 1.0
C      1  0.5401850000000  0.5321660000000  0.5696600000000 1.0
C      1  0.5437860000000  0.4718170000000  0.5692140000000 1.0
C      1  0.4875030000000  0.4497400000000  0.5694250000000 1.0
C      1  0.4491170000000  0.4964460000000  0.5700020000000 1.0
C      1  0.5170460000000  0.5214920000000  0.5150810000000 1.0
C      1  0.5258750000000  0.4904510000000  0.5148060000000 1.0
C      1  0.4990810000000  0.4724600000000  0.5148540000000 1.0
C      1  0.4736920000000  0.4923830000000  0.5151590000000 1.0
C      1  0.4847950000000  0.5226860000000  0.5152990000000 1.0
C      1  0.5366010000000  0.5434190000000  0.5210170000000 1.0
C      1  0.5528360000000  0.4786380000000  0.5204580000000 1.0
C      1  0.4962420000000  0.4431760000000  0.5205770000000 1.0
C      1  0.4450300000000  0.4860400000000  0.5212110000000 1.0
C      1  0.4699720000000  0.5479930000000  0.5214830000000 1.0
END
