TITL C-9262-5533-195 4.06887259549995e-06 125000 -359.94781952702 0 0 60 (C1) n - 1
REM
REM in /home/bkarasulu/CARBON/AIRSS/Generating-Clusters/EDIP-Nigel-Params/Higher-Symm/Box-15A/Only-C60/SD-CG/HFTN-CG
REM
REM
REM
REM
REM
REM ./C.cell (414f73aa93bd7a1190c7fd0f31ff2f98)
REM
REM compiler GCC version 9.2.1 20190827 (Red Hat 9.2.1-1)
REM options -cpp -mtune=generic -march=x86-64 -g -O0 -fpre-include=/usr/include/finclude/math-vector-fortran.h
REM seed -1094050038 -763126855 -1528411993 206851280 373431192 -481362058 1973549123 -50832855 187858775 1023854357 -1251645340 81714149 -1163631583 719983645 -3099631 842050622 1514387610 -2141715587 -1004761568 783783345 -1557312978 -1287375593 446520442 613357057 -1285475052 108543533 1632434050 1939982452 437233709 607941875 343911093 1203778081 -1543757598
REM
CELL 1.54180   50.00000   50.00000   50.00000   90.00000   90.00000   90.00000
LATT -1
SFAC C  
C      1  0.4918110000000  0.5673960000000  0.4721490000000 1.0
C      1  0.5280390000000  0.5670530000000  0.5066060000000 1.0
C      1  0.4802040000000  0.5669400000000  0.5208000000000 1.0
C      1  0.4381700000000  0.4735460000000  0.4810560000000 1.0
C      1  0.5470640000000  0.4738960000000  0.4563330000000 1.0
C      1  0.5143420000000  0.4737310000000  0.5626850000000 1.0
C      1  0.4710130000000  0.5712810000000  0.4928610000000 1.0
C      1  0.5206140000000  0.5711190000000  0.4782820000000 1.0
C      1  0.5084180000000  0.5711170000000  0.5285100000000 1.0
C      1  0.4434500000000  0.5136090000000  0.5316020000000 1.0
C      1  0.5009500000000  0.5135050000000  0.4352000000000 1.0
C      1  0.5555570000000  0.5136270000000  0.5332050000000 1.0
C      1  0.4329880000000  0.5220980000000  0.4695720000000 1.0
C      1  0.5600300000000  0.5221080000000  0.4571340000000 1.0
C      1  0.5072070000000  0.5220980000000  0.5733620000000 1.0
C      1  0.4863710000000  0.4640330000000  0.5660230000000 1.0
C      1  0.4494570000000  0.4640580000000  0.4551500000000 1.0
C      1  0.5640340000000  0.4641310000000  0.4787680000000 1.0
C      1  0.4989300000000  0.4990870000000  0.5299940000000 1.0
C      1  0.4744480000000  0.4984400000000  0.4843370000000 1.0
C      1  0.5264280000000  0.4992200000000  0.4860510000000 1.0
C      1  0.5229990000000  0.4583350000000  0.4515720000000 1.0
C      1  0.5304470000000  0.4582020000000  0.5441520000000 1.0
C      1  0.4465110000000  0.4582040000000  0.5043320000000 1.0
C      1  0.4761020000000  0.5301660000000  0.4448340000000 1.0
C      1  0.5597440000000  0.5301800000000  0.5068640000000 1.0
C      1  0.4642270000000  0.5301410000000  0.5483560000000 1.0
C      1  0.5001770000000  0.4844830000000  0.4688580000000 1.0
C      1  0.5269480000000  0.4843340000000  0.5157200000000 1.0
C      1  0.4729800000000  0.4841850000000  0.5156850000000 1.0
C      1  0.4709970000000  0.4426950000000  0.5028660000000 1.0
C      1  0.5119320000000  0.4428950000000  0.4734680000000 1.0
C      1  0.5169920000000  0.4427560000000  0.5236200000000 1.0
C      1  0.5559770000000  0.4412960000000  0.4933430000000 1.0
C      1  0.4777450000000  0.4411550000000  0.5518260000000 1.0
C      1  0.4662360000000  0.4413070000000  0.4548200000000 1.0
C      1  0.4912870000000  0.4856910000000  0.4380720000000 1.0
C      1  0.5579200000000  0.4857370000000  0.5235530000000 1.0
C      1  0.4506280000000  0.4857140000000  0.5384440000000 1.0
C      1  0.4835840000000  0.5100390000000  0.5577830000000 1.0
C      1  0.4584020000000  0.5101030000000  0.4571900000000 1.0
C      1  0.5581720000000  0.5100870000000  0.4853710000000 1.0
C      1  0.5534430000000  0.4982480000000  0.4427820000000 1.0
C      1  0.5228870000000  0.4981860000000  0.5748120000000 1.0
C      1  0.4237180000000  0.4982050000000  0.4823280000000 1.0
C      1  0.4882640000000  0.4445620000000  0.5261190000000 1.0
C      1  0.4832100000000  0.4448840000000  0.4767770000000 1.0
C      1  0.5284650000000  0.4447870000000  0.4970800000000 1.0
C      1  0.4900410000000  0.5390060000000  0.4692950000000 1.0
C      1  0.5313370000000  0.5386300000000  0.5063850000000 1.0
C      1  0.4788560000000  0.5384840000000  0.5239430000000 1.0
C      1  0.5728990000000  0.4859030000000  0.4964320000000 1.0
C      1  0.4666520000000  0.4858250000000  0.5649540000000 1.0
C      1  0.4603150000000  0.4859830000000  0.4388090000000 1.0
C      1  0.4445570000000  0.5442840000000  0.4874120000000 1.0
C      1  0.5389100000000  0.5443700000000  0.4580540000000 1.0
C      1  0.5168180000000  0.5443560000000  0.5544660000000 1.0
C      1  0.5244520000000  0.5248690000000  0.5327070000000 1.0
C      1  0.4594570000000  0.5246690000000  0.5049140000000 1.0
C      1  0.5161870000000  0.5249520000000  0.4623200000000 1.0
END
