TITL C-9255-4564-51 -7.16509570670404e-07 125000 -370.445718878229 0 0 60 (C1) n - 1
REM
REM in /home/bkarasulu/CARBON/AIRSS/Generating-Clusters/EDIP-Nigel-Params/Higher-Symm/Box-15A/Only-C60/SD-CG/HFTN-CG
REM
REM
REM
REM
REM
REM ./C.cell (414f73aa93bd7a1190c7fd0f31ff2f98)
REM
REM compiler GCC version 9.2.1 20190827 (Red Hat 9.2.1-1)
REM options -cpp -mtune=generic -march=x86-64 -g -O0 -fpre-include=/usr/include/finclude/math-vector-fortran.h
REM seed -1963040137 -1930795467 -1922472957 -908631288 -1038602658 -771617719 1552975679 1270161377 -757036135 1733198710 -571738373 -405621545 943037095 1506120135 804766086 612487380 -916329644 1944006647 1034294808 1156789000 -1700104224 -513376008 -1390701537 -1792055414 1579656153 2116649391 -845777791 -1589668916 44968002 1080209512 -996623182 -1393956847 90805626
REM
CELL 1.54180   50.00000   50.00000   50.00000   90.00000   90.00000   90.00000
LATT -1
SFAC C  
C      1  0.5339290000000  0.4458880000000  0.4707550000000 1.0
C      1  0.4950600000000  0.4315500000000  0.5348590000000 1.0
C      1  0.4477210000000  0.5049580000000  0.5453210000000 1.0
C      1  0.4836350000000  0.5049420000000  0.5713490000000 1.0
C      1  0.5197620000000  0.5261110000000  0.5476220000000 1.0
C      1  0.4358880000000  0.4879400000000  0.5238660000000 1.0
C      1  0.5015780000000  0.5702250000000  0.4358020000000 1.0
C      1  0.5149310000000  0.5578640000000  0.4803110000000 1.0
C      1  0.5340820000000  0.4721890000000  0.4861070000000 1.0
C      1  0.4912960000000  0.4796880000000  0.4591850000000 1.0
C      1  0.4758130000000  0.5474960000000  0.5443410000000 1.0
C      1  0.5176870000000  0.5722580000000  0.5290210000000 1.0
C      1  0.4620640000000  0.4609820000000  0.4936440000000 1.0
C      1  0.4456370000000  0.4658210000000  0.4685890000000 1.0
C      1  0.5114030000000  0.4413340000000  0.4553830000000 1.0
C      1  0.4843290000000  0.4370000000000  0.4598680000000 1.0
C      1  0.4983240000000  0.5399410000000  0.4994140000000 1.0
C      1  0.5357120000000  0.5499530000000  0.5407960000000 1.0
C      1  0.5609250000000  0.4966810000000  0.5173850000000 1.0
C      1  0.4679860000000  0.5517670000000  0.4643720000000 1.0
C      1  0.5455380000000  0.4839440000000  0.5388160000000 1.0
C      1  0.4385570000000  0.5040020000000  0.4984980000000 1.0
C      1  0.5282420000000  0.4995470000000  0.5559560000000 1.0
C      1  0.5025250000000  0.4962170000000  0.4369450000000 1.0
C      1  0.4804570000000  0.4380890000000  0.4890720000000 1.0
C      1  0.4488230000000  0.4614990000000  0.5211930000000 1.0
C      1  0.5620070000000  0.4731960000000  0.4988390000000 1.0
C      1  0.5151250000000  0.5149120000000  0.5050680000000 1.0
C      1  0.5471760000000  0.5205420000000  0.5043050000000 1.0
C      1  0.5335370000000  0.5709440000000  0.5020040000000 1.0
C      1  0.4390380000000  0.4944340000000  0.4701820000000 1.0
C      1  0.4669250000000  0.5314980000000  0.4428530000000 1.0
C      1  0.4488160000000  0.5110120000000  0.4494600000000 1.0
C      1  0.5172940000000  0.4650890000000  0.5106980000000 1.0
C      1  0.5529460000000  0.5036070000000  0.4418070000000 1.0
C      1  0.5569030000000  0.4450510000000  0.5131270000000 1.0
C      1  0.5520450000000  0.5485750000000  0.5150280000000 1.0
C      1  0.4950590000000  0.5236220000000  0.4413820000000 1.0
C      1  0.4800650000000  0.4949800000000  0.4865230000000 1.0
C      1  0.4726740000000  0.5301030000000  0.4866580000000 1.0
C      1  0.5047060000000  0.4587960000000  0.5749260000000 1.0
C      1  0.4912140000000  0.5600070000000  0.5218000000000 1.0
C      1  0.5442480000000  0.5175190000000  0.4657850000000 1.0
C      1  0.5436230000000  0.4554850000000  0.5369430000000 1.0
C      1  0.5329510000000  0.5443200000000  0.4591790000000 1.0
C      1  0.5149040000000  0.5447070000000  0.4356000000000 1.0
C      1  0.4920030000000  0.5707310000000  0.4628560000000 1.0
C      1  0.5298510000000  0.4929660000000  0.4322430000000 1.0
C      1  0.4526800000000  0.5314420000000  0.5340070000000 1.0
C      1  0.4483540000000  0.5310690000000  0.5046390000000 1.0
C      1  0.5055450000000  0.4859840000000  0.5682130000000 1.0
C      1  0.4862890000000  0.4474650000000  0.5571290000000 1.0
C      1  0.5377060000000  0.4288150000000  0.4954990000000 1.0
C      1  0.4761050000000  0.4657660000000  0.5343460000000 1.0
C      1  0.4680320000000  0.4602620000000  0.4493220000000 1.0
C      1  0.5048980000000  0.4371750000000  0.5074010000000 1.0
C      1  0.4940150000000  0.5304450000000  0.5605550000000 1.0
C      1  0.5215050000000  0.4988800000000  0.4767130000000 1.0
C      1  0.4558870000000  0.4988980000000  0.5717300000000 1.0
C      1  0.4939680000000  0.4838190000000  0.5147140000000 1.0
END
