TITL C-9266-5713-103 -4.29456349762366e-07 125000 -348.237159109301 0 0 60 (D2) n - 1
REM
REM in /home/bkarasulu/CARBON/AIRSS/Generating-Clusters/EDIP-Nigel-Params/Higher-Symm/Box-15A/Only-C60/SD-CG/HFTN-CG
REM
REM
REM
REM
REM
REM ./C.cell (414f73aa93bd7a1190c7fd0f31ff2f98)
REM
REM compiler GCC version 9.2.1 20190827 (Red Hat 9.2.1-1)
REM options -cpp -mtune=generic -march=x86-64 -g -O0 -fpre-include=/usr/include/finclude/math-vector-fortran.h
REM seed -1799150764 2007145570 -435781743 1317834638 2060146004 -1149127039 1608333989 1178026893 -1925858949 825177468 -1980527497 392663692 -1857852665 -1074445380 -1359751093 2023568153 -1701777387 -232836599 1183990559 -1942482989 -506225947 1145956055 1207206471 2055061385 76322121 798958481 829830711 502965703 -1710818570 -1089359583 333239160 1154347822 -1547053455
REM
CELL 1.54180   50.00000   50.00000   50.00000   90.00000   90.00000   90.00000
LATT -1
SFAC C  
C      1  0.5212310000000  0.5407910000000  0.4477390000000 1.0
C      1  0.4720690000000  0.5387940000000  0.4424610000000 1.0
C      1  0.4498590000000  0.4967620000000  0.4487930000000 1.0
C      1  0.4831370000000  0.4617510000000  0.4443360000000 1.0
C      1  0.5325610000000  0.4639000000000  0.4431450000000 1.0
C      1  0.5541060000000  0.5055460000000  0.4532190000000 1.0
C      1  0.4763770000000  0.5370420000000  0.5539970000000 1.0
C      1  0.5255760000000  0.5378340000000  0.5592480000000 1.0
C      1  0.5503150000000  0.4975680000000  0.5510800000000 1.0
C      1  0.5192550000000  0.4604170000000  0.5539280000000 1.0
C      1  0.4697940000000  0.4594720000000  0.5551450000000 1.0
C      1  0.4457190000000  0.5001250000000  0.5469070000000 1.0
C      1  0.5014970000000  0.5496800000000  0.5508230000000 1.0
C      1  0.4510510000000  0.5276330000000  0.5451130000000 1.0
C      1  0.4455830000000  0.4721380000000  0.5480520000000 1.0
C      1  0.4944970000000  0.4479890000000  0.5481450000000 1.0
C      1  0.5451980000000  0.4701850000000  0.5475700000000 1.0
C      1  0.5503050000000  0.5254690000000  0.5535470000000 1.0
C      1  0.4953860000000  0.5517090000000  0.4514390000000 1.0
C      1  0.5470990000000  0.5325670000000  0.4562300000000 1.0
C      1  0.5559590000000  0.4776990000000  0.4508290000000 1.0
C      1  0.5086190000000  0.4506220000000  0.4495940000000 1.0
C      1  0.4566520000000  0.4696150000000  0.4510870000000 1.0
C      1  0.4481530000000  0.5246940000000  0.4475720000000 1.0
C      1  0.5108180000000  0.4704270000000  0.4892290000000 1.0
C      1  0.5558750000000  0.4895840000000  0.4932280000000 1.0
C      1  0.5333610000000  0.5291630000000  0.4980100000000 1.0
C      1  0.4900310000000  0.5300670000000  0.4897920000000 1.0
C      1  0.4448350000000  0.5108290000000  0.4892340000000 1.0
C      1  0.4669640000000  0.4710260000000  0.4939540000000 1.0
C      1  0.4910330000000  0.4693680000000  0.5094280000000 1.0
C      1  0.4448790000000  0.4858830000000  0.5062250000000 1.0
C      1  0.4649140000000  0.5269430000000  0.5032410000000 1.0
C      1  0.5081180000000  0.5301370000000  0.5115510000000 1.0
C      1  0.5544110000000  0.5137040000000  0.5113130000000 1.0
C      1  0.5347600000000  0.4728680000000  0.5047950000000 1.0
C      1  0.5039970000000  0.5586510000000  0.5222580000000 1.0
C      1  0.4353880000000  0.5438190000000  0.5244370000000 1.0
C      1  0.4270470000000  0.4593360000000  0.5293910000000 1.0
C      1  0.4943300000000  0.4403760000000  0.5190810000000 1.0
C      1  0.5625110000000  0.4549580000000  0.5274890000000 1.0
C      1  0.5702630000000  0.5390990000000  0.5370660000000 1.0
C      1  0.4923800000000  0.5592280000000  0.4803710000000 1.0
C      1  0.5617670000000  0.5487480000000  0.4776280000000 1.0
C      1  0.5752710000000  0.4652400000000  0.4689260000000 1.0
C      1  0.5092930000000  0.4417450000000  0.4782890000000 1.0
C      1  0.4403340000000  0.4524750000000  0.4704460000000 1.0
C      1  0.4274190000000  0.5363250000000  0.4646160000000 1.0
C      1  0.4596070000000  0.4413970000000  0.4916030000000 1.0
C      1  0.5211470000000  0.4276820000000  0.5128340000000 1.0
C      1  0.5797490000000  0.4716300000000  0.4972770000000 1.0
C      1  0.5408280000000  0.5588560000000  0.4976560000000 1.0
C      1  0.4777480000000  0.5716750000000  0.5144680000000 1.0
C      1  0.4206780000000  0.5286180000000  0.4921810000000 1.0
C      1  0.5439260000000  0.4436710000000  0.5058340000000 1.0
C      1  0.4833140000000  0.4271640000000  0.4839280000000 1.0
C      1  0.4221470000000  0.4666950000000  0.5013470000000 1.0
C      1  0.4556400000000  0.5560760000000  0.5049080000000 1.0
C      1  0.5177910000000  0.5734790000000  0.4887700000000 1.0
C      1  0.5774270000000  0.5330560000000  0.5091940000000 1.0
END
