TITL C-9259-5960-162 -3.38395252100563e-05 125000 -369.118103127413 0 0 60 (C1) n - 1
REM
REM in /home/bkarasulu/CARBON/AIRSS/Generating-Clusters/EDIP-Nigel-Params/Higher-Symm/Box-15A/Only-C60/SD-CG/HFTN-CG
REM
REM
REM
REM
REM
REM ./C.cell (414f73aa93bd7a1190c7fd0f31ff2f98)
REM
REM compiler GCC version 9.2.1 20190827 (Red Hat 9.2.1-1)
REM options -cpp -mtune=generic -march=x86-64 -g -O0 -fpre-include=/usr/include/finclude/math-vector-fortran.h
REM seed 1794184556 -2012444356 718549293 1031951674 1904386382 -2082213673 -1800437537 848020687 -1631186986 -392183950 -1804529549 -818170462 182982064 -962122708 710281955 1417279691 -1222540737 250660388 -590536861 -1381604154 -456799908 -984688614 -54695912 -1260826035 -968537974 -2110259685 -816110939 239826995 -243158171 2025342674 -345061098 338625441 -1341516486
REM
CELL 1.54180   50.00000   50.00000   50.00000   90.00000   90.00000   90.00000
LATT -1
SFAC C  
C      1  0.5351740000000  0.4381950000000  0.5363900000000 1.0
C      1  0.5292330000000  0.4575190000000  0.4929460000000 1.0
C      1  0.5522030000000  0.4954050000000  0.5557450000000 1.0
C      1  0.5318300000000  0.5364230000000  0.5539870000000 1.0
C      1  0.5464870000000  0.4857250000000  0.5285940000000 1.0
C      1  0.5111270000000  0.4251730000000  0.5295160000000 1.0
C      1  0.5191740000000  0.4999760000000  0.4603650000000 1.0
C      1  0.5338430000000  0.5231650000000  0.4697320000000 1.0
C      1  0.5300010000000  0.4293490000000  0.4850570000000 1.0
C      1  0.4582350000000  0.5330600000000  0.5032470000000 1.0
C      1  0.5305160000000  0.4938290000000  0.5747170000000 1.0
C      1  0.5035380000000  0.5134250000000  0.5105970000000 1.0
C      1  0.5592970000000  0.5522180000000  0.5105790000000 1.0
C      1  0.5313460000000  0.5236370000000  0.4997570000000 1.0
C      1  0.4834880000000  0.4467990000000  0.4761410000000 1.0
C      1  0.5032740000000  0.5501160000000  0.4858590000000 1.0
C      1  0.4568940000000  0.4749780000000  0.4546030000000 1.0
C      1  0.4986100000000  0.5076310000000  0.4426500000000 1.0
C      1  0.5640580000000  0.4933600000000  0.4809650000000 1.0
C      1  0.4796850000000  0.4559970000000  0.5530800000000 1.0
C      1  0.5155190000000  0.5169800000000  0.5679520000000 1.0
C      1  0.5592080000000  0.5247800000000  0.5502450000000 1.0
C      1  0.4505170000000  0.5729990000000  0.4742220000000 1.0
C      1  0.4867670000000  0.5214230000000  0.5689660000000 1.0
C      1  0.5446650000000  0.4601520000000  0.4469420000000 1.0
C      1  0.4503860000000  0.4570820000000  0.5035000000000 1.0
C      1  0.5203890000000  0.4491890000000  0.4413670000000 1.0
C      1  0.4208820000000  0.5038560000000  0.4965470000000 1.0
C      1  0.4996400000000  0.4629500000000  0.4971900000000 1.0
C      1  0.4932750000000  0.4481810000000  0.4476830000000 1.0
C      1  0.4439100000000  0.5537460000000  0.4917450000000 1.0
C      1  0.5228560000000  0.5824390000000  0.4920870000000 1.0
C      1  0.5614380000000  0.5167590000000  0.4645090000000 1.0
C      1  0.4450110000000  0.5080890000000  0.5098170000000 1.0
C      1  0.4210150000000  0.5023360000000  0.4696250000000 1.0
C      1  0.4401260000000  0.4979560000000  0.4499450000000 1.0
C      1  0.5345400000000  0.5652840000000  0.5127700000000 1.0
C      1  0.5427150000000  0.4590130000000  0.5194400000000 1.0
C      1  0.4887900000000  0.4896410000000  0.5027250000000 1.0
C      1  0.4650910000000  0.4321270000000  0.5131380000000 1.0
C      1  0.5399130000000  0.4770690000000  0.4701350000000 1.0
C      1  0.5550250000000  0.5052240000000  0.5082840000000 1.0
C      1  0.4751220000000  0.4654430000000  0.4351600000000 1.0
C      1  0.4877930000000  0.4436720000000  0.5286700000000 1.0
C      1  0.4952450000000  0.5877330000000  0.4849690000000 1.0
C      1  0.4665970000000  0.4793040000000  0.5456790000000 1.0
C      1  0.4870320000000  0.5383850000000  0.5099060000000 1.0
C      1  0.4874770000000  0.5535770000000  0.4510540000000 1.0
C      1  0.4764800000000  0.5772090000000  0.4646000000000 1.0
C      1  0.4908950000000  0.5559520000000  0.5346650000000 1.0
C      1  0.4793720000000  0.5459910000000  0.5581860000000 1.0
C      1  0.4471160000000  0.4560930000000  0.4741680000000 1.0
C      1  0.4795550000000  0.5279570000000  0.4406270000000 1.0
C      1  0.5105930000000  0.4152930000000  0.5010060000000 1.0
C      1  0.4529020000000  0.5201890000000  0.4393080000000 1.0
C      1  0.5694270000000  0.5280860000000  0.5218890000000 1.0
C      1  0.4698450000000  0.5002500000000  0.5634500000000 1.0
C      1  0.5201570000000  0.5580060000000  0.5370400000000 1.0
C      1  0.4824460000000  0.4196150000000  0.4904390000000 1.0
C      1  0.4622550000000  0.4839870000000  0.5158240000000 1.0
END
