TITL C-9269-7444-146 2.16674105236177e-07 125000 -374.979197989419 0 0 60 (C1) n - 1
REM
REM in /home/bkarasulu/CARBON/AIRSS/Generating-Clusters/EDIP-Nigel-Params/Higher-Symm/Box-15A/Only-C60/SD-CG/HFTN-CG
REM
REM
REM
REM
REM
REM ./C.cell (414f73aa93bd7a1190c7fd0f31ff2f98)
REM
REM compiler GCC version 9.2.1 20190827 (Red Hat 9.2.1-1)
REM options -cpp -mtune=generic -march=x86-64 -g -O0 -fpre-include=/usr/include/finclude/math-vector-fortran.h
REM seed 1574325714 -1729985703 -1261102326 -2037485222 -404766394 1301696436 -208955068 1981902589 -500429303 1680977427 956360926 -891980380 -2029967310 -1683054542 1290485653 1905905763 -1868236238 -1120157781 -1557971297 841581846 -632165077 -2138438917 2123990778 -2092647392 2140432852 1030015048 1074352838 -299601986 -596960436 -1729577303 1700660084 2036335999 2048404103
REM
CELL 1.54180   50.00000   50.00000   50.00000   90.00000   90.00000   90.00000
LATT -1
SFAC C  
C      1  0.4890100000000  0.4507760000000  0.4707310000000 1.0
C      1  0.4689700000000  0.4913170000000  0.4505860000000 1.0
C      1  0.4533170000000  0.4769590000000  0.4968670000000 1.0
C      1  0.5131650000000  0.4476770000000  0.5340030000000 1.0
C      1  0.4985200000000  0.5427150000000  0.5205140000000 1.0
C      1  0.5109750000000  0.5507540000000  0.4699190000000 1.0
C      1  0.5229300000000  0.4971760000000  0.5441540000000 1.0
C      1  0.4723010000000  0.5080440000000  0.5463360000000 1.0
C      1  0.5297190000000  0.5096310000000  0.4499250000000 1.0
C      1  0.5509200000000  0.4700540000000  0.5113050000000 1.0
C      1  0.4479600000000  0.5317650000000  0.5118820000000 1.0
C      1  0.5439770000000  0.5215590000000  0.4974090000000 1.0
C      1  0.4749120000000  0.4560340000000  0.4958300000000 1.0
C      1  0.4477690000000  0.4898640000000  0.4701960000000 1.0
C      1  0.4899600000000  0.4712520000000  0.4507910000000 1.0
C      1  0.5289990000000  0.4514540000000  0.5099320000000 1.0
C      1  0.5218270000000  0.5438240000000  0.4973600000000 1.0
C      1  0.4708190000000  0.5499370000000  0.5101870000000 1.0
C      1  0.5446420000000  0.4975170000000  0.5217200000000 1.0
C      1  0.5503960000000  0.5107330000000  0.4699490000000 1.0
C      1  0.4533290000000  0.5053260000000  0.5241350000000 1.0
C      1  0.5125530000000  0.4697090000000  0.5529730000000 1.0
C      1  0.5090560000000  0.5299190000000  0.4502190000000 1.0
C      1  0.4992980000000  0.5199640000000  0.5418890000000 1.0
C      1  0.4879720000000  0.4319960000000  0.5377890000000 1.0
C      1  0.5343720000000  0.4862570000000  0.4324370000000 1.0
C      1  0.4324500000000  0.5364390000000  0.4868840000000 1.0
C      1  0.5132770000000  0.4344600000000  0.4657120000000 1.0
C      1  0.4861780000000  0.5659750000000  0.4648230000000 1.0
C      1  0.5130770000000  0.5662460000000  0.5347080000000 1.0
C      1  0.4658330000000  0.4854420000000  0.5633800000000 1.0
C      1  0.5353560000000  0.5137290000000  0.5671500000000 1.0
C      1  0.4641660000000  0.5147620000000  0.4333500000000 1.0
C      1  0.5675170000000  0.5346170000000  0.5126040000000 1.0
C      1  0.4315780000000  0.4653170000000  0.5144550000000 1.0
C      1  0.5650750000000  0.4647600000000  0.4860190000000 1.0
C      1  0.5339000000000  0.4332530000000  0.4873360000000 1.0
C      1  0.4318710000000  0.4867160000000  0.5345700000000 1.0
C      1  0.4858660000000  0.5353540000000  0.4327380000000 1.0
C      1  0.4678410000000  0.4358180000000  0.5159340000000 1.0
C      1  0.4655250000000  0.5659120000000  0.4860790000000 1.0
C      1  0.5347920000000  0.5673180000000  0.5132080000000 1.0
C      1  0.5646840000000  0.4855400000000  0.4647900000000 1.0
C      1  0.5679490000000  0.5135030000000  0.5340790000000 1.0
C      1  0.4335230000000  0.5154310000000  0.4654590000000 1.0
C      1  0.5130020000000  0.5344620000000  0.5661450000000 1.0
C      1  0.5131890000000  0.4652010000000  0.4335590000000 1.0
C      1  0.4868610000000  0.4650170000000  0.5672870000000 1.0
C      1  0.5604030000000  0.4378610000000  0.4772070000000 1.0
C      1  0.4382860000000  0.5630080000000  0.4774030000000 1.0
C      1  0.4381230000000  0.5254110000000  0.4389030000000 1.0
C      1  0.4411210000000  0.4405920000000  0.5249260000000 1.0
C      1  0.5234620000000  0.4390200000000  0.4392920000000 1.0
C      1  0.5610350000000  0.5229020000000  0.5598170000000 1.0
C      1  0.4388630000000  0.4768060000000  0.5604210000000 1.0
C      1  0.5606510000000  0.4760420000000  0.4379620000000 1.0
C      1  0.5607930000000  0.5604690000000  0.5217710000000 1.0
C      1  0.4777860000000  0.4378640000000  0.5641150000000 1.0
C      1  0.5218800000000  0.5606020000000  0.5607860000000 1.0
C      1  0.4764160000000  0.5619390000000  0.4380900000000 1.0
END
