TITL C-9264-7143-258 -1.05763215262772e-05 125000 -356.012505494454 0 0 60 (C1) n - 1
REM
REM in /home/bkarasulu/CARBON/AIRSS/Generating-Clusters/EDIP-Nigel-Params/Higher-Symm/Box-15A/Only-C60/SD-CG/HFTN-CG
REM
REM
REM
REM
REM
REM ./C.cell (414f73aa93bd7a1190c7fd0f31ff2f98)
REM
REM compiler GCC version 9.2.1 20190827 (Red Hat 9.2.1-1)
REM options -cpp -mtune=generic -march=x86-64 -g -O0 -fpre-include=/usr/include/finclude/math-vector-fortran.h
REM seed 574848168 1433603067 504329746 1784202875 -1502744918 -1824586401 -50216155 -1347361558 1084300978 -728753576 -656195766 675667666 -632543531 109468710 735134309 694740655 48924188 -285403940 -57633046 -2078920475 -2022000822 1165242766 929513505 -1116082684 -1206955102 -1151429086 1940305360 -1587704077 905437658 -1019192268 2040043849 -1870091677 405389094
REM
CELL 1.54180   50.00000   50.00000   50.00000   90.00000   90.00000   90.00000
LATT -1
SFAC C  
C      1  0.5205260000000  0.4949220000000  0.4287200000000 1.0
C      1  0.5231980000000  0.4280620000000  0.4479750000000 1.0
C      1  0.5113300000000  0.4292230000000  0.5149990000000 1.0
C      1  0.5133380000000  0.4672640000000  0.5753270000000 1.0
C      1  0.5258040000000  0.5359260000000  0.5653760000000 1.0
C      1  0.5213890000000  0.5806590000000  0.5147350000000 1.0
C      1  0.5236470000000  0.5716090000000  0.4462500000000 1.0
C      1  0.5061790000000  0.5194140000000  0.4685200000000 1.0
C      1  0.5077780000000  0.4898750000000  0.4758580000000 1.0
C      1  0.5317860000000  0.4819540000000  0.4941940000000 1.0
C      1  0.5013130000000  0.4793450000000  0.5184920000000 1.0
C      1  0.4943680000000  0.5034480000000  0.5370690000000 1.0
C      1  0.5006280000000  0.5319760000000  0.5243100000000 1.0
C      1  0.4987840000000  0.5391220000000  0.4922730000000 1.0
C      1  0.5409210000000  0.5612940000000  0.5243520000000 1.0
C      1  0.5377170000000  0.5554350000000  0.4643880000000 1.0
C      1  0.5412480000000  0.5130210000000  0.4355340000000 1.0
C      1  0.5328110000000  0.4535560000000  0.4554310000000 1.0
C      1  0.5332630000000  0.4337530000000  0.4987360000000 1.0
C      1  0.5268540000000  0.4559560000000  0.5520530000000 1.0
C      1  0.5409370000000  0.5115630000000  0.5622620000000 1.0
C      1  0.4599200000000  0.5177930000000  0.4485260000000 1.0
C      1  0.4611090000000  0.4637610000000  0.4520130000000 1.0
C      1  0.4484490000000  0.4332540000000  0.4931180000000 1.0
C      1  0.4547460000000  0.4580790000000  0.5407490000000 1.0
C      1  0.4563420000000  0.5069690000000  0.5588710000000 1.0
C      1  0.4566230000000  0.5528660000000  0.5347180000000 1.0
C      1  0.4593060000000  0.5567440000000  0.4833870000000 1.0
C      1  0.4881710000000  0.4574370000000  0.4426440000000 1.0
C      1  0.4667870000000  0.4129210000000  0.4963870000000 1.0
C      1  0.4804280000000  0.4483990000000  0.5509980000000 1.0
C      1  0.4809190000000  0.5088710000000  0.5732660000000 1.0
C      1  0.4858140000000  0.5552290000000  0.5374920000000 1.0
C      1  0.4828990000000  0.5717800000000  0.4786660000000 1.0
C      1  0.4883140000000  0.5215720000000  0.4433860000000 1.0
C      1  0.4485210000000  0.5580030000000  0.5086710000000 1.0
C      1  0.4507780000000  0.5370420000000  0.4661840000000 1.0
C      1  0.4531090000000  0.4907960000000  0.4535350000000 1.0
C      1  0.4477920000000  0.4449320000000  0.4678620000000 1.0
C      1  0.4460270000000  0.4495370000000  0.5155270000000 1.0
C      1  0.4460910000000  0.4819590000000  0.5523520000000 1.0
C      1  0.4469170000000  0.5296860000000  0.5464370000000 1.0
C      1  0.4870490000000  0.4572480000000  0.5770170000000 1.0
C      1  0.4999020000000  0.5292590000000  0.5742070000000 1.0
C      1  0.4972470000000  0.5797090000000  0.5290940000000 1.0
C      1  0.4988860000000  0.5752620000000  0.4564040000000 1.0
C      1  0.4976370000000  0.5084180000000  0.4200880000000 1.0
C      1  0.4966400000000  0.4307320000000  0.4426160000000 1.0
C      1  0.4915590000000  0.4122580000000  0.5061920000000 1.0
C      1  0.5180450000000  0.4930070000000  0.5570230000000 1.0
C      1  0.5292420000000  0.5360830000000  0.5344650000000 1.0
C      1  0.5223940000000  0.5595070000000  0.4907280000000 1.0
C      1  0.5339350000000  0.5262460000000  0.4594810000000 1.0
C      1  0.5120850000000  0.4744780000000  0.4496040000000 1.0
C      1  0.5413390000000  0.4557200000000  0.4835500000000 1.0
C      1  0.5044000000000  0.4520230000000  0.5331120000000 1.0
C      1  0.5740790000000  0.5124490000000  0.5053640000000 1.0
C      1  0.4626310000000  0.4956670000000  0.4945310000000 1.0
C      1  0.4849630000000  0.4810330000000  0.4934340000000 1.0
C      1  0.5519610000000  0.5011440000000  0.4989440000000 1.0
END
