TITL C-9256-7861-273 -9.08276160295244e-07 125000 -354.882965929383 0 0 60 (Ci) n - 1
REM
REM in /home/bkarasulu/CARBON/AIRSS/Generating-Clusters/EDIP-Nigel-Params/Higher-Symm/Box-15A/Only-C60/SD-CG/HFTN-CG
REM
REM
REM
REM
REM
REM ./C.cell (414f73aa93bd7a1190c7fd0f31ff2f98)
REM
REM compiler GCC version 9.2.1 20190827 (Red Hat 9.2.1-1)
REM options -cpp -mtune=generic -march=x86-64 -g -O0 -fpre-include=/usr/include/finclude/math-vector-fortran.h
REM seed 1366278222 -372957418 -1490808140 25789233 -997489916 -1830780289 -1796519302 -1118592753 548586460 -1803666295 -2030874116 -2090757940 -1903012844 -2098105811 298100727 -1639110899 -494843952 -1481756461 1145615165 -1037887973 -406745788 2084990711 82674118 1245855601 -84231103 -917505455 1783562333 1735922730 -1435377448 -983895171 2067422565 -12359177 -48386480
REM
CELL 1.54180   50.00000   50.00000   50.00000   90.00000   90.00000   90.00000
LATT -1
SFAC C  
C      1  0.5319280000000  0.4895330000000  0.4253600000000 1.0
C      1  0.4691430000000  0.4476920000000  0.4454560000000 1.0
C      1  0.5263760000000  0.4252640000000  0.4877890000000 1.0
C      1  0.4659470000000  0.4324550000000  0.5355360000000 1.0
C      1  0.5317820000000  0.4655460000000  0.5667980000000 1.0
C      1  0.4680720000000  0.5104670000000  0.5746400000000 1.0
C      1  0.5308570000000  0.5523080000000  0.5545440000000 1.0
C      1  0.4736240000000  0.5747360000000  0.5122110000000 1.0
C      1  0.5340530000000  0.5675450000000  0.4644640000000 1.0
C      1  0.4682180000000  0.5344540000000  0.4332020000000 1.0
C      1  0.4796110000000  0.5598410000000  0.4366970000000 1.0
C      1  0.5205100000000  0.5116860000000  0.4123400000000 1.0
C      1  0.4789670000000  0.4582790000000  0.4212420000000 1.0
C      1  0.5219170000000  0.4212010000000  0.4599550000000 1.0
C      1  0.4845460000000  0.4153920000000  0.5218030000000 1.0
C      1  0.5203890000000  0.4401590000000  0.5633030000000 1.0
C      1  0.4794900000000  0.4883140000000  0.5876600000000 1.0
C      1  0.5210330000000  0.5417210000000  0.5787580000000 1.0
C      1  0.4780830000000  0.5787990000000  0.5400450000000 1.0
C      1  0.5154540000000  0.5846080000000  0.4781970000000 1.0
C      1  0.4940010000000  0.4869310000000  0.5408820000000 1.0
C      1  0.5050930000000  0.5132720000000  0.5425720000000 1.0
C      1  0.4933520000000  0.5344300000000  0.5269090000000 1.0
C      1  0.5049760000000  0.5418940000000  0.5011030000000 1.0
C      1  0.4939490000000  0.5329690000000  0.4758450000000 1.0
C      1  0.5059990000000  0.5130690000000  0.4591180000000 1.0
C      1  0.4949070000000  0.4867280000000  0.4574280000000 1.0
C      1  0.5066480000000  0.4655700000000  0.4730910000000 1.0
C      1  0.4950240000000  0.4581060000000  0.4988970000000 1.0
C      1  0.5060510000000  0.4670310000000  0.5241550000000 1.0
C      1  0.5481860000000  0.4926010000000  0.4481340000000 1.0
C      1  0.4524130000000  0.4629710000000  0.4623320000000 1.0
C      1  0.5429850000000  0.4485810000000  0.4922180000000 1.0
C      1  0.4507020000000  0.4524540000000  0.5234280000000 1.0
C      1  0.5483180000000  0.4763580000000  0.5468280000000 1.0
C      1  0.4518140000000  0.5073990000000  0.5518660000000 1.0
C      1  0.5475870000000  0.5370290000000  0.5376680000000 1.0
C      1  0.4570150000000  0.5514190000000  0.5077820000000 1.0
C      1  0.5492980000000  0.5475460000000  0.4765720000000 1.0
C      1  0.4516820000000  0.5236420000000  0.4531720000000 1.0
C      1  0.4471140000000  0.5034700000000  0.5243570000000 1.0
C      1  0.5536620000000  0.5178900000000  0.5178840000000 1.0
C      1  0.4479700000000  0.5245710000000  0.5038780000000 1.0
C      1  0.5538230000000  0.5226550000000  0.4889770000000 1.0
C      1  0.4472300000000  0.5110340000000  0.4778980000000 1.0
C      1  0.5528860000000  0.4965300000000  0.4756430000000 1.0
C      1  0.4463380000000  0.4821100000000  0.4821160000000 1.0
C      1  0.5520300000000  0.4754290000000  0.4961220000000 1.0
C      1  0.4461770000000  0.4773450000000  0.5110230000000 1.0
C      1  0.5527700000000  0.4889660000000  0.5221020000000 1.0
C      1  0.4970480000000  0.4774940000000  0.5682560000000 1.0
C      1  0.5037110000000  0.5210820000000  0.5705820000000 1.0
C      1  0.4953630000000  0.5566940000000  0.5460460000000 1.0
C      1  0.5019970000000  0.5714800000000  0.5008460000000 1.0
C      1  0.4973660000000  0.5566160000000  0.4590760000000 1.0
C      1  0.5029520000000  0.5225060000000  0.4317440000000 1.0
C      1  0.4962890000000  0.4789180000000  0.4294180000000 1.0
C      1  0.5046370000000  0.4433060000000  0.4539540000000 1.0
C      1  0.4980030000000  0.4285200000000  0.4991540000000 1.0
C      1  0.5026340000000  0.4433840000000  0.5409240000000 1.0
END
