TITL C-9266-5713-248 4.77469882633243e-05 125000 -352.910725188984 0 0 60 (C1) n - 1
REM
REM in /home/bkarasulu/CARBON/AIRSS/Generating-Clusters/EDIP-Nigel-Params/Higher-Symm/Box-15A/Only-C60/SD-CG/HFTN-CG
REM
REM
REM
REM
REM
REM ./C.cell (414f73aa93bd7a1190c7fd0f31ff2f98)
REM
REM compiler GCC version 9.2.1 20190827 (Red Hat 9.2.1-1)
REM options -cpp -mtune=generic -march=x86-64 -g -O0 -fpre-include=/usr/include/finclude/math-vector-fortran.h
REM seed -473304365 -1438796436 -742619425 -337726157 -1097845918 488001191 1337263690 634885585 -884766070 1804108467 413728588 120578591 1284582573 -1897909610 930199927 -1515259931 -251740899 -154528104 260569615 992741340 -2139246109 2034597776 -1007860953 1152630220 -704363571 869630177 1365453839 -1465932098 -345426984 1524178105 -488878728 -1236331483 528836861
REM
CELL 1.54180   50.00000   50.00000   50.00000   90.00000   90.00000   90.00000
LATT -1
SFAC C  
C      1  0.5017460000000  0.4805530000000  0.5361870000000 1.0
C      1  0.4883350000000  0.5071970000000  0.5501340000000 1.0
C      1  0.5004180000000  0.5349570000000  0.5444730000000 1.0
C      1  0.4972820000000  0.5532840000000  0.5212770000000 1.0
C      1  0.5060550000000  0.5548420000000  0.4898430000000 1.0
C      1  0.4986450000000  0.5504240000000  0.4620130000000 1.0
C      1  0.5011880000000  0.5187820000000  0.4409130000000 1.0
C      1  0.5018350000000  0.4902200000000  0.4353950000000 1.0
C      1  0.5016140000000  0.4706580000000  0.4575310000000 1.0
C      1  0.4953280000000  0.4590120000000  0.4889420000000 1.0
C      1  0.4899170000000  0.4583950000000  0.5193690000000 1.0
C      1  0.4254690000000  0.4474200000000  0.4896250000000 1.0
C      1  0.4435030000000  0.4440760000000  0.5088660000000 1.0
C      1  0.4607540000000  0.4567160000000  0.5261990000000 1.0
C      1  0.4511430000000  0.4785150000000  0.5404210000000 1.0
C      1  0.4586250000000  0.5036750000000  0.5493220000000 1.0
C      1  0.4422190000000  0.5249690000000  0.5434110000000 1.0
C      1  0.4267790000000  0.5354050000000  0.5244350000000 1.0
C      1  0.4219610000000  0.5305700000000  0.4986820000000 1.0
C      1  0.4317460000000  0.5147300000000  0.4783460000000 1.0
C      1  0.4168630000000  0.4927680000000  0.4708920000000 1.0
C      1  0.4145980000000  0.4665170000000  0.4747060000000 1.0
C      1  0.5065190000000  0.4691590000000  0.5642580000000 1.0
C      1  0.5024460000000  0.4962350000000  0.5775720000000 1.0
C      1  0.5170830000000  0.5452170000000  0.5649710000000 1.0
C      1  0.5166750000000  0.5770730000000  0.5263370000000 1.0
C      1  0.5240470000000  0.5786530000000  0.4969940000000 1.0
C      1  0.5195300000000  0.5590170000000  0.4434720000000 1.0
C      1  0.5210950000000  0.5351700000000  0.4268290000000 1.0
C      1  0.5175710000000  0.4830270000000  0.4129830000000 1.0
C      1  0.5141850000000  0.4434090000000  0.4521580000000 1.0
C      1  0.5093090000000  0.4335410000000  0.4800110000000 1.0
C      1  0.5060880000000  0.4365750000000  0.5295010000000 1.0
C      1  0.5607210000000  0.5159330000000  0.4518270000000 1.0
C      1  0.5538150000000  0.4872250000000  0.4480170000000 1.0
C      1  0.5592990000000  0.4607690000000  0.4592570000000 1.0
C      1  0.5610950000000  0.4547410000000  0.4883290000000 1.0
C      1  0.5542220000000  0.4560200000000  0.5271440000000 1.0
C      1  0.5498010000000  0.4696280000000  0.5538360000000 1.0
C      1  0.5451610000000  0.4985340000000  0.5549920000000 1.0
C      1  0.5590340000000  0.5245490000000  0.5487030000000 1.0
C      1  0.5523870000000  0.5437050000000  0.5270750000000 1.0
C      1  0.5628010000000  0.5476930000000  0.4988880000000 1.0
C      1  0.5545390000000  0.5375990000000  0.4715190000000 1.0
C      1  0.5451150000000  0.5599230000000  0.4560630000000 1.0
C      1  0.5485520000000  0.5262440000000  0.4276560000000 1.0
C      1  0.5434970000000  0.4839420000000  0.4218770000000 1.0
C      1  0.5421730000000  0.4422570000000  0.4464250000000 1.0
C      1  0.5342450000000  0.4277410000000  0.4935760000000 1.0
C      1  0.5333130000000  0.4337570000000  0.5215370000000 1.0
C      1  0.5313170000000  0.4563210000000  0.5702600000000 1.0
C      1  0.5303060000000  0.5059160000000  0.5793550000000 1.0
C      1  0.5444030000000  0.5396210000000  0.5708270000000 1.0
C      1  0.5414200000000  0.5680600000000  0.5375550000000 1.0
C      1  0.5526190000000  0.5748190000000  0.4955390000000 1.0
C      1  0.5561680000000  0.4781570000000  0.5055780000000 1.0
C      1  0.5078830000000  0.5008120000000  0.4972120000000 1.0
C      1  0.4827990000000  0.5052260000000  0.4883140000000 1.0
C      1  0.5336730000000  0.4938190000000  0.5008370000000 1.0
C      1  0.4590940000000  0.5117110000000  0.4777940000000 1.0
END
