TITL C-9264-7143-194 4.38834977418193e-05 125000 -363.140700305152 0 0 60 (C1) n - 1
REM
REM in /home/bkarasulu/CARBON/AIRSS/Generating-Clusters/EDIP-Nigel-Params/Higher-Symm/Box-15A/Only-C60/SD-CG/HFTN-CG
REM
REM
REM
REM
REM
REM ./C.cell (414f73aa93bd7a1190c7fd0f31ff2f98)
REM
REM compiler GCC version 9.2.1 20190827 (Red Hat 9.2.1-1)
REM options -cpp -mtune=generic -march=x86-64 -g -O0 -fpre-include=/usr/include/finclude/math-vector-fortran.h
REM seed 123166627 -7298873 -69133671 -1070708641 -1323518646 -1815508616 -2135889411 1629043042 -1031776979 1634861020 -714413319 -956674989 1456848948 -1207032597 1657114199 -471766005 -1074198801 310914067 545888051 -1563923246 -1729280896 -479528682 -1717373051 1998567621 -1775270608 -1933518270 -970655742 16846479 1431866319 91639819 -277381922 1227896358 -220537292
REM
CELL 1.54180   50.00000   50.00000   50.00000   90.00000   90.00000   90.00000
LATT -1
SFAC C  
C      1  0.5542370000000  0.5022420000000  0.4546500000000 1.0
C      1  0.4750290000000  0.4531380000000  0.4548750000000 1.0
C      1  0.4711880000000  0.5445060000000  0.4550340000000 1.0
C      1  0.5749320000000  0.4541900000000  0.4992690000000 1.0
C      1  0.4233030000000  0.4573250000000  0.5010350000000 1.0
C      1  0.5000790000000  0.5859320000000  0.4986010000000 1.0
C      1  0.5730400000000  0.4802640000000  0.5105890000000 1.0
C      1  0.4482970000000  0.4481470000000  0.5113620000000 1.0
C      1  0.4792310000000  0.5694390000000  0.5092630000000 1.0
C      1  0.5559670000000  0.5328680000000  0.5004940000000 1.0
C      1  0.5000180000000  0.4357290000000  0.5004320000000 1.0
C      1  0.4440880000000  0.5307820000000  0.5004940000000 1.0
C      1  0.5515400000000  0.4412640000000  0.5092400000000 1.0
C      1  0.4226770000000  0.4843510000000  0.5102010000000 1.0
C      1  0.5234780000000  0.5734460000000  0.5089650000000 1.0
C      1  0.4788740000000  0.4799960000000  0.5451290000000 1.0
C      1  0.4913920000000  0.5276340000000  0.5464360000000 1.0
C      1  0.5293400000000  0.4938640000000  0.5502050000000 1.0
C      1  0.4551320000000  0.4983430000000  0.4532160000000 1.0
C      1  0.5214870000000  0.5389600000000  0.4535560000000 1.0
C      1  0.5238940000000  0.4628240000000  0.4548350000000 1.0
C      1  0.5099540000000  0.5194340000000  0.4734690000000 1.0
C      1  0.5139990000000  0.4813540000000  0.4765240000000 1.0
C      1  0.4787430000000  0.4966570000000  0.4720780000000 1.0
C      1  0.5351220000000  0.5425960000000  0.5472450000000 1.0
C      1  0.5173840000000  0.4478070000000  0.5449620000000 1.0
C      1  0.4434150000000  0.5115310000000  0.5474410000000 1.0
C      1  0.5267440000000  0.5073860000000  0.5210030000000 1.0
C      1  0.4867260000000  0.4884120000000  0.5185940000000 1.0
C      1  0.4981180000000  0.5148910000000  0.5195300000000 1.0
C      1  0.4594970000000  0.5235250000000  0.4399230000000 1.0
C      1  0.5408800000000  0.5225890000000  0.4400440000000 1.0
C      1  0.4996970000000  0.4557820000000  0.4411260000000 1.0
C      1  0.5184370000000  0.5223140000000  0.5612430000000 1.0
C      1  0.5071820000000  0.4729830000000  0.5550470000000 1.0
C      1  0.4707560000000  0.5070660000000  0.5571370000000 1.0
C      1  0.4326590000000  0.4845960000000  0.5383310000000 1.0
C      1  0.5174900000000  0.5642850000000  0.5362600000000 1.0
C      1  0.5457670000000  0.4510700000000  0.5362640000000 1.0
C      1  0.5555450000000  0.5316480000000  0.5292460000000 1.0
C      1  0.5001760000000  0.4330420000000  0.5282070000000 1.0
C      1  0.4416760000000  0.5320480000000  0.5281620000000 1.0
C      1  0.4744760000000  0.4791400000000  0.4947420000000 1.0
C      1  0.4941040000000  0.5305500000000  0.4950830000000 1.0
C      1  0.5332860000000  0.4907730000000  0.4970400000000 1.0
C      1  0.4577160000000  0.4717630000000  0.4420700000000 1.0
C      1  0.4965280000000  0.5491690000000  0.4431800000000 1.0
C      1  0.5454350000000  0.4779860000000  0.4432320000000 1.0
C      1  0.4288680000000  0.5003220000000  0.4649230000000 1.0
C      1  0.5367140000000  0.5610120000000  0.4644530000000 1.0
C      1  0.5344060000000  0.4376530000000  0.4644320000000 1.0
C      1  0.5385290000000  0.5550130000000  0.4913690000000 1.0
C      1  0.5281350000000  0.4380100000000  0.4914170000000 1.0
C      1  0.4336150000000  0.5048870000000  0.4916990000000 1.0
C      1  0.4746660000000  0.4497440000000  0.4877530000000 1.0
C      1  0.4687040000000  0.5450190000000  0.4877570000000 1.0
C      1  0.5583660000000  0.5037450000000  0.4869090000000 1.0
C      1  0.4877360000000  0.5590750000000  0.5375020000000 1.0
C      1  0.5584270000000  0.4781120000000  0.5377540000000 1.0
C      1  0.4531010000000  0.4617640000000  0.5389690000000 1.0
END
