TITL C-9269-7444-53 -1.57961670417194e-09 125000 -356.726479031548 0 0 60 (C1) n - 1
REM
REM in /home/bkarasulu/CARBON/AIRSS/Generating-Clusters/EDIP-Nigel-Params/Higher-Symm/Box-15A/Only-C60/SD-CG/HFTN-CG
REM
REM
REM
REM
REM
REM ./C.cell (414f73aa93bd7a1190c7fd0f31ff2f98)
REM
REM compiler GCC version 9.2.1 20190827 (Red Hat 9.2.1-1)
REM options -cpp -mtune=generic -march=x86-64 -g -O0 -fpre-include=/usr/include/finclude/math-vector-fortran.h
REM seed -1296624256 540383023 67996291 1352867114 -1534604981 1324051024 209201161 -847163245 -1580028522 -1597957285 308184493 735805586 -213416414 -153475762 42838380 1908265146 -409468598 -1648266310 -1195664224 342512742 -1693080319 1744836417 683243127 400626743 1731631343 129549936 -1020833364 451623691 481317587 -253378674 856607832 146433249 -1957117526
REM
CELL 1.54180   50.00000   50.00000   50.00000   90.00000   90.00000   90.00000
LATT -1
SFAC C  
C      1  0.4642620000000  0.4744150000000  0.5325700000000 1.0
C      1  0.4640170000000  0.5241430000000  0.5327810000000 1.0
C      1  0.5429540000000  0.4753660000000  0.4382590000000 1.0
C      1  0.5432410000000  0.5238480000000  0.4383590000000 1.0
C      1  0.5510350000000  0.4847340000000  0.4650860000000 1.0
C      1  0.5511530000000  0.5143210000000  0.4651760000000 1.0
C      1  0.4309140000000  0.4820290000000  0.4876960000000 1.0
C      1  0.4361770000000  0.5180490000000  0.4755840000000 1.0
C      1  0.4918950000000  0.5665710000000  0.5440970000000 1.0
C      1  0.4919690000000  0.4324230000000  0.5439570000000 1.0
C      1  0.5027510000000  0.5195010000000  0.4780830000000 1.0
C      1  0.5022500000000  0.4799580000000  0.4779090000000 1.0
C      1  0.5389670000000  0.4428230000000  0.4881940000000 1.0
C      1  0.5393550000000  0.5562380000000  0.4885720000000 1.0
C      1  0.4507600000000  0.5386600000000  0.4929340000000 1.0
C      1  0.4499820000000  0.4615340000000  0.4926000000000 1.0
C      1  0.5502420000000  0.5214740000000  0.5142420000000 1.0
C      1  0.5502650000000  0.4773730000000  0.5140160000000 1.0
C      1  0.4881910000000  0.4721830000000  0.5130340000000 1.0
C      1  0.4881630000000  0.5266470000000  0.5137070000000 1.0
C      1  0.4811070000000  0.5687040000000  0.4705290000000 1.0
C      1  0.4802590000000  0.4314940000000  0.4710510000000 1.0
C      1  0.5225480000000  0.4695440000000  0.5408050000000 1.0
C      1  0.5225080000000  0.5293410000000  0.5410260000000 1.0
C      1  0.4978900000000  0.5583060000000  0.5165310000000 1.0
C      1  0.4978510000000  0.4407550000000  0.5163680000000 1.0
C      1  0.4626080000000  0.4718800000000  0.4479740000000 1.0
C      1  0.4578190000000  0.5209730000000  0.4528380000000 1.0
C      1  0.5040740000000  0.5736220000000  0.4544630000000 1.0
C      1  0.5027660000000  0.4264580000000  0.4543680000000 1.0
C      1  0.5230990000000  0.5558280000000  0.4642850000000 1.0
C      1  0.5224060000000  0.4435710000000  0.4640990000000 1.0
C      1  0.4491360000000  0.4523330000000  0.5202000000000 1.0
C      1  0.4476020000000  0.5451060000000  0.5209670000000 1.0
C      1  0.5299810000000  0.4498100000000  0.4381110000000 1.0
C      1  0.5307080000000  0.5496460000000  0.4382680000000 1.0
C      1  0.4771050000000  0.4731920000000  0.5605550000000 1.0
C      1  0.4768150000000  0.5255160000000  0.5608020000000 1.0
C      1  0.5741790000000  0.5126590000000  0.5272440000000 1.0
C      1  0.5742900000000  0.4860740000000  0.5269180000000 1.0
C      1  0.4860030000000  0.5764290000000  0.4970720000000 1.0
C      1  0.4855890000000  0.4228380000000  0.4971170000000 1.0
C      1  0.4732630000000  0.4609470000000  0.4728200000000 1.0
C      1  0.4752920000000  0.5387860000000  0.4732210000000 1.0
C      1  0.5566880000000  0.5330440000000  0.4877670000000 1.0
C      1  0.5564960000000  0.4658620000000  0.4875050000000 1.0
C      1  0.5004270000000  0.5432600000000  0.5581130000000 1.0
C      1  0.5007030000000  0.4555760000000  0.5580110000000 1.0
C      1  0.5269350000000  0.4410080000000  0.5148110000000 1.0
C      1  0.5270300000000  0.5578920000000  0.5151210000000 1.0
C      1  0.5264780000000  0.4994250000000  0.5535250000000 1.0
C      1  0.5311140000000  0.4994960000000  0.5014550000000 1.0
C      1  0.4284050000000  0.4999770000000  0.5091960000000 1.0
C      1  0.5142330000000  0.4994030000000  0.5792270000000 1.0
C      1  0.4731820000000  0.4975660000000  0.4429700000000 1.0
C      1  0.4864630000000  0.4993410000000  0.5722870000000 1.0
C      1  0.5043110000000  0.4994500000000  0.5160090000000 1.0
C      1  0.4489320000000  0.4993300000000  0.5292150000000 1.0
C      1  0.5014010000000  0.4997930000000  0.4526780000000 1.0
C      1  0.5265160000000  0.4996920000000  0.4311350000000 1.0
END
