TITL C-9262-5533-199 3.85445509242329e-05 125000 -353.453299632362 0 0 60 (C2v) n - 1
REM
REM in /home/bkarasulu/CARBON/AIRSS/Generating-Clusters/EDIP-Nigel-Params/Higher-Symm/Box-15A/Only-C60/SD-CG/HFTN-CG
REM
REM
REM
REM
REM
REM ./C.cell (414f73aa93bd7a1190c7fd0f31ff2f98)
REM
REM compiler GCC version 9.2.1 20190827 (Red Hat 9.2.1-1)
REM options -cpp -mtune=generic -march=x86-64 -g -O0 -fpre-include=/usr/include/finclude/math-vector-fortran.h
REM seed 591700795 140755537 550210396 -1287714026 -1327302493 -2006024157 -2016250347 12838918 -1727280716 -672591053 55562925 -1430570818 -461949090 -678157200 1706882951 2007275841 568287960 -1899201836 -596957625 -2080691695 1202534018 683119038 1501089371 1792650818 182719103 2140373500 214300482 1390515228 1664717765 -1906990728 -45771661 617606806 1531787554
REM
CELL 1.54180   50.00000   50.00000   50.00000   90.00000   90.00000   90.00000
LATT -1
SFAC C  
C      1  0.5185700000000  0.4642030000000  0.5738060000000 1.0
C      1  0.4814000000000  0.4643190000000  0.4261450000000 1.0
C      1  0.5148830000000  0.5327090000000  0.4181870000000 1.0
C      1  0.4851450000000  0.5326100000000  0.5818580000000 1.0
C      1  0.5738150000000  0.4642170000000  0.5185620000000 1.0
C      1  0.4261550000000  0.4643050000000  0.4813890000000 1.0
C      1  0.4181780000000  0.5326840000000  0.5148890000000 1.0
C      1  0.5818500000000  0.5326350000000  0.4851550000000 1.0
C      1  0.4913820000000  0.5520090000000  0.4707470000000 1.0
C      1  0.5086620000000  0.5519620000000  0.5293240000000 1.0
C      1  0.4899570000000  0.4540170000000  0.5304510000000 1.0
C      1  0.5100040000000  0.4540500000000  0.4694860000000 1.0
C      1  0.4707340000000  0.5520040000000  0.4913940000000 1.0
C      1  0.5293110000000  0.5519670000000  0.5086760000000 1.0
C      1  0.5304630000000  0.4540270000000  0.4899460000000 1.0
C      1  0.4694980000000  0.4540400000000  0.5099910000000 1.0
C      1  0.5757920000000  0.5048460000000  0.4879890000000 1.0
C      1  0.4242120000000  0.5048940000000  0.5120180000000 1.0
C      1  0.5749320000000  0.4923150000000  0.5160590000000 1.0
C      1  0.4250610000000  0.4924000000000  0.4839300000000 1.0
C      1  0.4879860000000  0.5048230000000  0.5757930000000 1.0
C      1  0.5120180000000  0.5049160000000  0.4242130000000 1.0
C      1  0.5160600000000  0.4923000000000  0.5749310000000 1.0
C      1  0.4839340000000  0.4924150000000  0.4250590000000 1.0
C      1  0.4344860000000  0.5519070000000  0.5282240000000 1.0
C      1  0.5655580000000  0.5518900000000  0.4718470000000 1.0
C      1  0.4406040000000  0.4414550000000  0.4734230000000 1.0
C      1  0.5593470000000  0.4413680000000  0.5264970000000 1.0
C      1  0.5282120000000  0.5519310000000  0.4345000000000 1.0
C      1  0.4718320000000  0.5518660000000  0.5655710000000 1.0
C      1  0.4734390000000  0.4414630000000  0.4405880000000 1.0
C      1  0.5265110000000  0.4413600000000  0.5593320000000 1.0
C      1  0.5458920000000  0.5025230000000  0.4814610000000 1.0
C      1  0.4541100000000  0.5025370000000  0.5185430000000 1.0
C      1  0.5483170000000  0.5053040000000  0.5255690000000 1.0
C      1  0.4516880000000  0.5053790000000  0.4744380000000 1.0
C      1  0.4814590000000  0.5025060000000  0.5458930000000 1.0
C      1  0.5185430000000  0.5025530000000  0.4541110000000 1.0
C      1  0.5255670000000  0.5052980000000  0.5483190000000 1.0
C      1  0.4744380000000  0.5053850000000  0.4516890000000 1.0
C      1  0.4631590000000  0.4341720000000  0.4902640000000 1.0
C      1  0.5367850000000  0.4341270000000  0.5096460000000 1.0
C      1  0.4612370000000  0.5661820000000  0.5161670000000 1.0
C      1  0.5388190000000  0.5661710000000  0.4839230000000 1.0
C      1  0.4902820000000  0.4341790000000  0.4631420000000 1.0
C      1  0.5096620000000  0.4341200000000  0.5367690000000 1.0
C      1  0.5161510000000  0.5661960000000  0.4612550000000 1.0
C      1  0.4839060000000  0.5661570000000  0.5388360000000 1.0
C      1  0.5092190000000  0.5293460000000  0.5457740000000 1.0
C      1  0.4908060000000  0.5294170000000  0.4542660000000 1.0
C      1  0.5018440000000  0.4806190000000  0.4638520000000 1.0
C      1  0.4981390000000  0.4805710000000  0.5361220000000 1.0
C      1  0.5457660000000  0.5293560000000  0.5092280000000 1.0
C      1  0.4542590000000  0.5294070000000  0.4908120000000 1.0
C      1  0.4638570000000  0.4806090000000  0.5018390000000 1.0
C      1  0.5361270000000  0.4805810000000  0.4981350000000 1.0
C      1  0.4564720000000  0.5384510000000  0.5435690000000 1.0
C      1  0.5539320000000  0.4381750000000  0.5539170000000 1.0
C      1  0.5435600000000  0.5384740000000  0.4564830000000 1.0
C      1  0.4460160000000  0.4382940000000  0.4459990000000 1.0
END
