TITL C-9267-1554-246 0.324302483527676 125000 -350.485712227518 0 0 60 (C1) n - 1
REM
REM in /home/bkarasulu/CARBON/AIRSS/Generating-Clusters/EDIP-Nigel-Params/Higher-Symm/Box-15A/Only-C60/SD-CG/HFTN-CG
REM
REM
REM
REM
REM
REM ./C.cell (414f73aa93bd7a1190c7fd0f31ff2f98)
REM
REM compiler GCC version 9.2.1 20190827 (Red Hat 9.2.1-1)
REM options -cpp -mtune=generic -march=x86-64 -g -O0 -fpre-include=/usr/include/finclude/math-vector-fortran.h
REM seed 1041913828 1172390809 -1744683520 104387461 -173355456 1261525996 682894645 756512252 -669221670 571784797 -815101760 -738863689 1202156225 -1408403683 1054830888 -1343582082 574356102 1069816978 1893602082 -1303905203 -581548064 -677865457 -928285885 -1083749901 -1906122180 2142181021 -193249917 -44002258 -1134881131 -498430825 -100342516 100004197 -1455019583
REM
CELL 1.54180   50.00000   50.00000   50.00000   90.00000   90.00000   90.00000
LATT -1
SFAC C  
C      1  0.5069650000000  0.4791850000000  0.4818600000000 1.0
C      1  0.5046940000000  0.5256480000000  0.5123810000000 1.0
C      1  0.5074220000000  0.5457620000000  0.4438540000000 1.0
C      1  0.4995730000000  0.4579380000000  0.5520650000000 1.0
C      1  0.4270970000000  0.5312280000000  0.5269680000000 1.0
C      1  0.4291130000000  0.4643550000000  0.4768140000000 1.0
C      1  0.3964040000000  0.4928990000000  0.4862590000000 1.0
C      1  0.3949680000000  0.4965670000000  0.5146260000000 1.0
C      1  0.5336900000000  0.5263040000000  0.5524240000000 1.0
C      1  0.5268390000000  0.4767490000000  0.4594510000000 1.0
C      1  0.3899060000000  0.5332370000000  0.4523620000000 1.0
C      1  0.3933340000000  0.4547370000000  0.5471170000000 1.0
C      1  0.5537560000000  0.5090710000000  0.5394480000000 1.0
C      1  0.5530660000000  0.4904190000000  0.4663870000000 1.0
C      1  0.5047010000000  0.5660190000000  0.5533440000000 1.0
C      1  0.5052580000000  0.4369410000000  0.4447200000000 1.0
C      1  0.5288950000000  0.5546020000000  0.5453330000000 1.0
C      1  0.5292520000000  0.4473300000000  0.4543440000000 1.0
C      1  0.6012870000000  0.4966690000000  0.5339780000000 1.0
C      1  0.6021590000000  0.4936070000000  0.4603160000000 1.0
C      1  0.4542310000000  0.5262670000000  0.5294170000000 1.0
C      1  0.4550100000000  0.4739340000000  0.4742890000000 1.0
C      1  0.4920260000000  0.5045680000000  0.4820370000000 1.0
C      1  0.4957800000000  0.5002670000000  0.5244930000000 1.0
C      1  0.4628430000000  0.4986250000000  0.4883450000000 1.0
C      1  0.4656250000000  0.5014880000000  0.5178040000000 1.0
C      1  0.4024940000000  0.5211140000000  0.5247560000000 1.0
C      1  0.4024250000000  0.4676080000000  0.4762870000000 1.0
C      1  0.5231850000000  0.5758220000000  0.4798980000000 1.0
C      1  0.5164900000000  0.4284150000000  0.5175850000000 1.0
C      1  0.4673090000000  0.5354460000000  0.5539340000000 1.0
C      1  0.4680650000000  0.4705800000000  0.4481080000000 1.0
C      1  0.5787740000000  0.4786530000000  0.4614900000000 1.0
C      1  0.5813960000000  0.5157580000000  0.5365800000000 1.0
C      1  0.4859740000000  0.5171940000000  0.5632780000000 1.0
C      1  0.4853820000000  0.4915080000000  0.4407490000000 1.0
C      1  0.6063230000000  0.4862920000000  0.4866710000000 1.0
C      1  0.6042450000000  0.5048750000000  0.5078190000000 1.0
C      1  0.3957900000000  0.4744640000000  0.5309580000000 1.0
C      1  0.3934050000000  0.5144030000000  0.4693600000000 1.0
C      1  0.5176340000000  0.4823550000000  0.5528850000000 1.0
C      1  0.5245430000000  0.5208480000000  0.4436900000000 1.0
C      1  0.5136030000000  0.5305640000000  0.4852250000000 1.0
C      1  0.5113270000000  0.4747090000000  0.5105040000000 1.0
C      1  0.5052830000000  0.5559580000000  0.4716660000000 1.0
C      1  0.4997910000000  0.4499120000000  0.5237700000000 1.0
C      1  0.4781590000000  0.5612270000000  0.5547440000000 1.0
C      1  0.4798160000000  0.4457140000000  0.4426880000000 1.0
C      1  0.4851170000000  0.5447610000000  0.4292200000000 1.0
C      1  0.4761720000000  0.4590630000000  0.5645870000000 1.0
C      1  0.5520530000000  0.5365110000000  0.4848090000000 1.0
C      1  0.5486470000000  0.4654490000000  0.5154590000000 1.0
C      1  0.5387590000000  0.4400740000000  0.5050220000000 1.0
C      1  0.5429500000000  0.5622730000000  0.4947160000000 1.0
C      1  0.5132460000000  0.4937970000000  0.4382770000000 1.0
C      1  0.5124360000000  0.5092550000000  0.5639550000000 1.0
C      1  0.5401570000000  0.4357530000000  0.4773460000000 1.0
C      1  0.5420130000000  0.5647330000000  0.5226860000000 1.0
C      1  0.5443260000000  0.4814300000000  0.5391890000000 1.0
C      1  0.5488180000000  0.5190610000000  0.4616530000000 1.0
END
