TITL C-9264-7143-276 4.03280150462107e-07 125000 -362.470944544875 0 0 60 (C4) n - 1
REM
REM in /home/bkarasulu/CARBON/AIRSS/Generating-Clusters/EDIP-Nigel-Params/Higher-Symm/Box-15A/Only-C60/SD-CG/HFTN-CG
REM
REM
REM
REM
REM
REM ./C.cell (414f73aa93bd7a1190c7fd0f31ff2f98)
REM
REM compiler GCC version 9.2.1 20190827 (Red Hat 9.2.1-1)
REM options -cpp -mtune=generic -march=x86-64 -g -O0 -fpre-include=/usr/include/finclude/math-vector-fortran.h
REM seed -145299743 1592733599 -1938710995 267348131 1045898726 1519305656 2136839939 1860329948 -1696908803 1602213469 445381053 -585703252 -578724732 -793856978 659096441 1461239566 902274327 1109028578 1677033350 -1724052746 -1425204262 1073236911 -483994776 2061135421 -148835130 -6155427 -1237438195 -2076086280 -1215469983 2101239977 110819439 1515228175 835797149
REM
CELL 1.54180   50.00000   50.00000   50.00000   90.00000   90.00000   90.00000
LATT -1
SFAC C  
C      1  0.5381650000000  0.5173300000000  0.4710400000000 1.0
C      1  0.5173310000000  0.4618230000000  0.4710570000000 1.0
C      1  0.4618240000000  0.4826570000000  0.4710620000000 1.0
C      1  0.4826580000000  0.5381640000000  0.4710460000000 1.0
C      1  0.5609550000000  0.5295460000000  0.5129730000000 1.0
C      1  0.5295450000000  0.4390510000000  0.5129990000000 1.0
C      1  0.4390500000000  0.4704600000000  0.5130090000000 1.0
C      1  0.4704600000000  0.5609550000000  0.5129830000000 1.0
C      1  0.5365600000000  0.4826170000000  0.5170420000000 1.0
C      1  0.4826160000000  0.4634470000000  0.5170570000000 1.0
C      1  0.4634460000000  0.5173910000000  0.5170480000000 1.0
C      1  0.5173900000000  0.5365610000000  0.5170340000000 1.0
C      1  0.4507630000000  0.4889810000000  0.5566290000000 1.0
C      1  0.4889790000000  0.5492610000000  0.5566080000000 1.0
C      1  0.5492590000000  0.5110440000000  0.5566050000000 1.0
C      1  0.5110420000000  0.4507640000000  0.5566260000000 1.0
C      1  0.4455560000000  0.5442430000000  0.5121700000000 1.0
C      1  0.5442430000000  0.5544490000000  0.5121500000000 1.0
C      1  0.5544480000000  0.4557620000000  0.5121700000000 1.0
C      1  0.4557620000000  0.4455570000000  0.5121900000000 1.0
C      1  0.4873510000000  0.4651240000000  0.5473950000000 1.0
C      1  0.4651230000000  0.5126680000000  0.5473890000000 1.0
C      1  0.5126660000000  0.5348970000000  0.5473750000000 1.0
C      1  0.5348950000000  0.4873530000000  0.5473810000000 1.0
C      1  0.5117730000000  0.4605630000000  0.5011940000000 1.0
C      1  0.4605630000000  0.4882280000000  0.5011970000000 1.0
C      1  0.4882280000000  0.5394370000000  0.5011810000000 1.0
C      1  0.5394370000000  0.5117730000000  0.5011770000000 1.0
C      1  0.5589370000000  0.4755380000000  0.4461520000000 1.0
C      1  0.4755400000000  0.4410410000000  0.4461760000000 1.0
C      1  0.4410430000000  0.5244380000000  0.4461640000000 1.0
C      1  0.5244390000000  0.5589350000000  0.4461400000000 1.0
C      1  0.4544100000000  0.5434000000000  0.4641130000000 1.0
C      1  0.5434010000000  0.5455750000000  0.4640960000000 1.0
C      1  0.5455770000000  0.4565840000000  0.4641160000000 1.0
C      1  0.4565850000000  0.4544090000000  0.4641330000000 1.0
C      1  0.5239910000000  0.5866980000000  0.4520460000000 1.0
C      1  0.5866990000000  0.4759890000000  0.4520590000000 1.0
C      1  0.4759910000000  0.4132810000000  0.4520940000000 1.0
C      1  0.4132830000000  0.5239890000000  0.4520810000000 1.0
C      1  0.4672470000000  0.4092720000000  0.4778420000000 1.0
C      1  0.4092730000000  0.5327430000000  0.4778250000000 1.0
C      1  0.5327440000000  0.5907180000000  0.4777890000000 1.0
C      1  0.5907190000000  0.4672470000000  0.4778060000000 1.0
C      1  0.4548260000000  0.5008240000000  0.4512110000000 1.0
C      1  0.5008250000000  0.5451540000000  0.4511930000000 1.0
C      1  0.5451560000000  0.4991550000000  0.4511950000000 1.0
C      1  0.4991560000000  0.4548240000000  0.4512130000000 1.0
C      1  0.5327070000000  0.5309310000000  0.5667140000000 1.0
C      1  0.5309290000000  0.4673210000000  0.5667280000000 1.0
C      1  0.4673180000000  0.4690980000000  0.5667400000000 1.0
C      1  0.4690960000000  0.5327090000000  0.5667250000000 1.0
C      1  0.5447150000000  0.5659920000000  0.4853140000000 1.0
C      1  0.5659920000000  0.4552790000000  0.4853350000000 1.0
C      1  0.4552790000000  0.4340020000000  0.4853600000000 1.0
C      1  0.4340020000000  0.5447150000000  0.4853400000000 1.0
C      1  0.5205900000000  0.4321740000000  0.5381400000000 1.0
C      1  0.4321720000000  0.4794250000000  0.5381460000000 1.0
C      1  0.4794240000000  0.5678430000000  0.5381170000000 1.0
C      1  0.5678420000000  0.5205920000000  0.5381110000000 1.0
END
