TITL C-9265-7156-97 0.000104243384456663 125000 -361.767163403782 0 0 60 (C1) n - 1
REM
REM in /home/bkarasulu/CARBON/AIRSS/Generating-Clusters/EDIP-Nigel-Params/Higher-Symm/Box-15A/Only-C60/SD-CG/HFTN-CG
REM
REM
REM
REM
REM
REM ./C.cell (414f73aa93bd7a1190c7fd0f31ff2f98)
REM
REM compiler GCC version 9.2.1 20190827 (Red Hat 9.2.1-1)
REM options -cpp -mtune=generic -march=x86-64 -g -O0 -fpre-include=/usr/include/finclude/math-vector-fortran.h
REM seed 917573890 -898813948 -870535988 1968875256 205976841 1699676958 -843234658 86340610 596594592 1114764913 -2075195856 1058193471 310885446 58098586 1384243013 28720305 -538071694 -415657468 -1345799708 -1549529387 1807338481 680601101 -1281754660 -799508914 -2081275529 1707204384 417416969 1897053457 1997822794 198546798 -1040004678 -1262313959 -1392104317
REM
CELL 1.54180   50.00000   50.00000   50.00000   90.00000   90.00000   90.00000
LATT -1
SFAC C  
C      1  0.5219270000000  0.4720390000000  0.4709090000000 1.0
C      1  0.5210550000000  0.4640540000000  0.5212550000000 1.0
C      1  0.5154990000000  0.4873640000000  0.5415240000000 1.0
C      1  0.5167770000000  0.5195130000000  0.5355500000000 1.0
C      1  0.5149890000000  0.5363080000000  0.5070610000000 1.0
C      1  0.5156280000000  0.5278410000000  0.4747490000000 1.0
C      1  0.5162630000000  0.4997390000000  0.4583560000000 1.0
C      1  0.5567980000000  0.5581800000000  0.5111070000000 1.0
C      1  0.5533930000000  0.5429540000000  0.4604700000000 1.0
C      1  0.5549470000000  0.4941720000000  0.4397160000000 1.0
C      1  0.5551550000000  0.4479310000000  0.4669350000000 1.0
C      1  0.5541980000000  0.4391740000000  0.5178900000000 1.0
C      1  0.5531510000000  0.4744470000000  0.5584280000000 1.0
C      1  0.5548370000000  0.5268860000000  0.5543120000000 1.0
C      1  0.5603420000000  0.5134250000000  0.5303000000000 1.0
C      1  0.5588530000000  0.5303640000000  0.5065850000000 1.0
C      1  0.5595740000000  0.5223900000000  0.4786860000000 1.0
C      1  0.5593670000000  0.4955650000000  0.4677050000000 1.0
C      1  0.5640480000000  0.4703390000000  0.4820240000000 1.0
C      1  0.5634970000000  0.4651780000000  0.5111520000000 1.0
C      1  0.5587330000000  0.4845200000000  0.5324720000000 1.0
C      1  0.5010630000000  0.5354250000000  0.5675340000000 1.0
C      1  0.5010650000000  0.5723960000000  0.5119080000000 1.0
C      1  0.4970620000000  0.5533680000000  0.4520520000000 1.0
C      1  0.5002580000000  0.4960400000000  0.4231260000000 1.0
C      1  0.5057720000000  0.4378830000000  0.4562410000000 1.0
C      1  0.5032190000000  0.4310290000000  0.5304980000000 1.0
C      1  0.4977790000000  0.4729750000000  0.5729380000000 1.0
C      1  0.4747120000000  0.5396550000000  0.4644320000000 1.0
C      1  0.4767560000000  0.4946850000000  0.4407570000000 1.0
C      1  0.4829940000000  0.4517200000000  0.4667710000000 1.0
C      1  0.4807050000000  0.4462630000000  0.5194090000000 1.0
C      1  0.4749000000000  0.4800420000000  0.5558970000000 1.0
C      1  0.4774630000000  0.5291180000000  0.5524290000000 1.0
C      1  0.4766410000000  0.5566990000000  0.5113050000000 1.0
C      1  0.5289760000000  0.5630910000000  0.5105280000000 1.0
C      1  0.5262610000000  0.5515540000000  0.4568240000000 1.0
C      1  0.5288970000000  0.5015330000000  0.4298020000000 1.0
C      1  0.5329530000000  0.4427480000000  0.4500840000000 1.0
C      1  0.5298290000000  0.4255830000000  0.5215480000000 1.0
C      1  0.5268950000000  0.4792340000000  0.5694630000000 1.0
C      1  0.5288580000000  0.5374060000000  0.5589930000000 1.0
C      1  0.4608320000000  0.5057570000000  0.5576010000000 1.0
C      1  0.4626610000000  0.5485890000000  0.5359740000000 1.0
C      1  0.4599830000000  0.5519590000000  0.4872860000000 1.0
C      1  0.4605170000000  0.5176190000000  0.4505330000000 1.0
C      1  0.4655710000000  0.4688120000000  0.4498050000000 1.0
C      1  0.4686800000000  0.4445140000000  0.4919620000000 1.0
C      1  0.4626280000000  0.4616910000000  0.5367290000000 1.0
C      1  0.4388080000000  0.5060940000000  0.4684320000000 1.0
C      1  0.4413650000000  0.4756090000000  0.4661730000000 1.0
C      1  0.4444860000000  0.4617840000000  0.4926760000000 1.0
C      1  0.4412920000000  0.4749330000000  0.5202650000000 1.0
C      1  0.4380500000000  0.5077680000000  0.5393790000000 1.0
C      1  0.4369520000000  0.5350430000000  0.5278310000000 1.0
C      1  0.4367730000000  0.5342130000000  0.4967790000000 1.0
C      1  0.5084280000000  0.4722850000000  0.4966770000000 1.0
C      1  0.4981270000000  0.4967160000000  0.5010420000000 1.0
C      1  0.4764700000000  0.5108930000000  0.4980580000000 1.0
C      1  0.4490710000000  0.5056480000000  0.4975670000000 1.0
END
