TITL C-9265-7156-214 3.90239461166303e-07 125000 -355.546912512978 0 0 60 (C1) n - 1
REM
REM in /home/bkarasulu/CARBON/AIRSS/Generating-Clusters/EDIP-Nigel-Params/Higher-Symm/Box-15A/Only-C60/SD-CG/HFTN-CG
REM
REM
REM
REM
REM
REM ./C.cell (414f73aa93bd7a1190c7fd0f31ff2f98)
REM
REM compiler GCC version 9.2.1 20190827 (Red Hat 9.2.1-1)
REM options -cpp -mtune=generic -march=x86-64 -g -O0 -fpre-include=/usr/include/finclude/math-vector-fortran.h
REM seed 1202990610 510272811 -1805803803 727742850 817810658 1464353921 790867333 1977834533 -1190686810 1089856427 -1710343597 1173988687 -1028296589 -1101824586 144730454 -1325050028 -17085093 1435463484 1531017487 394838491 315458337 1258770505 -1104501234 -1878810852 1678500280 618631643 -430303842 1285792900 -2004044453 2141941436 -744574198 628299913 1008724475
REM
CELL 1.54180   50.00000   50.00000   50.00000   90.00000   90.00000   90.00000
LATT -1
SFAC C  
C      1  0.5592260000000  0.5381600000000  0.4678960000000 1.0
C      1  0.5530470000000  0.5349430000000  0.5308980000000 1.0
C      1  0.5601850000000  0.4616780000000  0.5333030000000 1.0
C      1  0.5519260000000  0.4660650000000  0.4709000000000 1.0
C      1  0.5304590000000  0.4868540000000  0.5611500000000 1.0
C      1  0.5296880000000  0.4287020000000  0.4891640000000 1.0
C      1  0.5311540000000  0.5130990000000  0.4386290000000 1.0
C      1  0.5294130000000  0.5709300000000  0.5109180000000 1.0
C      1  0.4964770000000  0.4269040000000  0.4512650000000 1.0
C      1  0.4966090000000  0.5449200000000  0.4335130000000 1.0
C      1  0.4956880000000  0.5731600000000  0.5470310000000 1.0
C      1  0.4971830000000  0.4541730000000  0.5667510000000 1.0
C      1  0.5651930000000  0.5159880000000  0.4854270000000 1.0
C      1  0.5672960000000  0.5162340000000  0.5159620000000 1.0
C      1  0.5661740000000  0.4842160000000  0.5162120000000 1.0
C      1  0.5671500000000  0.4843260000000  0.4854460000000 1.0
C      1  0.4817120000000  0.4619820000000  0.5013270000000 1.0
C      1  0.5030940000000  0.4958270000000  0.4741010000000 1.0
C      1  0.4833600000000  0.5360890000000  0.5035250000000 1.0
C      1  0.5062250000000  0.5033110000000  0.5279980000000 1.0
C      1  0.4789470000000  0.5034540000000  0.4553230000000 1.0
C      1  0.4654520000000  0.5579800000000  0.5116310000000 1.0
C      1  0.4796640000000  0.4943210000000  0.5418750000000 1.0
C      1  0.4648590000000  0.4424990000000  0.4845820000000 1.0
C      1  0.5044210000000  0.4208640000000  0.4985670000000 1.0
C      1  0.5104760000000  0.4991950000000  0.4249930000000 1.0
C      1  0.5048710000000  0.5796940000000  0.5003510000000 1.0
C      1  0.5091740000000  0.5008410000000  0.5743290000000 1.0
C      1  0.4644400000000  0.5198310000000  0.5504430000000 1.0
C      1  0.4559470000000  0.4413930000000  0.5217330000000 1.0
C      1  0.4623360000000  0.4792680000000  0.4484980000000 1.0
C      1  0.4548170000000  0.5610370000000  0.4822930000000 1.0
C      1  0.4993240000000  0.5275180000000  0.5643410000000 1.0
C      1  0.4936510000000  0.4332470000000  0.5240380000000 1.0
C      1  0.4985290000000  0.4734330000000  0.4363930000000 1.0
C      1  0.4931650000000  0.5634610000000  0.4778860000000 1.0
C      1  0.4872980000000  0.4803890000000  0.5689470000000 1.0
C      1  0.4845980000000  0.4216630000000  0.4763790000000 1.0
C      1  0.4879380000000  0.5184750000000  0.4295550000000 1.0
C      1  0.4843780000000  0.5798330000000  0.5219050000000 1.0
C      1  0.4358630000000  0.5377810000000  0.4861870000000 1.0
C      1  0.4417140000000  0.5148310000000  0.5319200000000 1.0
C      1  0.4395260000000  0.4654520000000  0.5128340000000 1.0
C      1  0.4399960000000  0.4856590000000  0.4657570000000 1.0
C      1  0.4425910000000  0.5125100000000  0.4749400000000 1.0
C      1  0.4330800000000  0.5368510000000  0.5154280000000 1.0
C      1  0.4535220000000  0.4904580000000  0.5190660000000 1.0
C      1  0.4327080000000  0.4644740000000  0.4844370000000 1.0
C      1  0.5111720000000  0.5542550000000  0.4554460000000 1.0
C      1  0.5121770000000  0.5509630000000  0.5520480000000 1.0
C      1  0.5121440000000  0.4442220000000  0.5453070000000 1.0
C      1  0.5123830000000  0.4497410000000  0.4482350000000 1.0
C      1  0.5271970000000  0.5464470000000  0.5262100000000 1.0
C      1  0.5320580000000  0.4671880000000  0.5394160000000 1.0
C      1  0.5263540000000  0.4536330000000  0.4746430000000 1.0
C      1  0.5314670000000  0.5318580000000  0.4609580000000 1.0
C      1  0.5096990000000  0.5265800000000  0.5102180000000 1.0
C      1  0.5218490000000  0.4822230000000  0.5161380000000 1.0
C      1  0.5081250000000  0.4724180000000  0.4913520000000 1.0
C      1  0.5208290000000  0.5164990000000  0.4839840000000 1.0
END
