TITL C-9262-5533-115 -6.93397856592241e-07 125000 -362.462404825211 0 0 60 (Ci) n - 1
REM
REM in /home/bkarasulu/CARBON/AIRSS/Generating-Clusters/EDIP-Nigel-Params/Higher-Symm/Box-15A/Only-C60/SD-CG/HFTN-CG
REM
REM
REM
REM
REM
REM ./C.cell (414f73aa93bd7a1190c7fd0f31ff2f98)
REM
REM compiler GCC version 9.2.1 20190827 (Red Hat 9.2.1-1)
REM options -cpp -mtune=generic -march=x86-64 -g -O0 -fpre-include=/usr/include/finclude/math-vector-fortran.h
REM seed 1984692481 -766322920 1200693989 -1941724852 -2053421042 1873655844 -1705392645 1739174496 1883484602 1443232068 830328409 -1862578295 -529550649 -2042157307 -736786036 719879916 1302024696 -1603313111 -1494218284 946741434 1534804769 261515109 175782225 -620731310 85954687 -1777557112 1256722126 350906769 2147327366 -600001472 1043088460 858967682 -127916200
REM
CELL 1.54180   50.00000   50.00000   50.00000   90.00000   90.00000   90.00000
LATT -1
SFAC C  
C      1  0.5330020000000  0.4357270000000  0.5166260000000 1.0
C      1  0.4669980000000  0.5642730000000  0.4833740000000 1.0
C      1  0.5647560000000  0.5526180000000  0.5110660000000 1.0
C      1  0.4352440000000  0.4473820000000  0.4889340000000 1.0
C      1  0.4746830000000  0.4921440000000  0.4500510000000 1.0
C      1  0.5253170000000  0.5078560000000  0.5499490000000 1.0
C      1  0.5119440000000  0.5143270000000  0.5037940000000 1.0
C      1  0.4880560000000  0.4856730000000  0.4962060000000 1.0
C      1  0.4652060000000  0.4927840000000  0.5590110000000 1.0
C      1  0.5347940000000  0.5072160000000  0.4409890000000 1.0
C      1  0.5276720000000  0.5687980000000  0.5305620000000 1.0
C      1  0.4723280000000  0.4312020000000  0.4694380000000 1.0
C      1  0.4867770000000  0.5390140000000  0.4446620000000 1.0
C      1  0.5132230000000  0.4609860000000  0.5553380000000 1.0
C      1  0.5195890000000  0.4614160000000  0.5252760000000 1.0
C      1  0.4804110000000  0.5385840000000  0.4747240000000 1.0
C      1  0.5121060000000  0.5498510000000  0.4385830000000 1.0
C      1  0.4878940000000  0.4501490000000  0.5614170000000 1.0
C      1  0.5332130000000  0.4757070000000  0.4793750000000 1.0
C      1  0.4667870000000  0.5242930000000  0.5206250000000 1.0
C      1  0.4472940000000  0.4848490000000  0.4579600000000 1.0
C      1  0.5527060000000  0.5151510000000  0.5420400000000 1.0
C      1  0.4475900000000  0.5103820000000  0.5410620000000 1.0
C      1  0.5524100000000  0.4896180000000  0.4589380000000 1.0
C      1  0.5057780000000  0.5283520000000  0.5548020000000 1.0
C      1  0.4942220000000  0.4716480000000  0.4451980000000 1.0
C      1  0.5593330000000  0.5308030000000  0.4907370000000 1.0
C      1  0.4406670000000  0.4691970000000  0.5092630000000 1.0
C      1  0.5730300000000  0.5066290000000  0.4732310000000 1.0
C      1  0.4269700000000  0.4933710000000  0.5267690000000 1.0
C      1  0.4702180000000  0.4670900000000  0.5471330000000 1.0
C      1  0.5297820000000  0.5329100000000  0.4528670000000 1.0
C      1  0.4888720000000  0.5014940000000  0.5744560000000 1.0
C      1  0.5111280000000  0.4985060000000  0.4255440000000 1.0
C      1  0.4421910000000  0.5029830000000  0.4811080000000 1.0
C      1  0.5578090000000  0.4970170000000  0.5188920000000 1.0
C      1  0.5524470000000  0.4375390000000  0.4970640000000 1.0
C      1  0.4475530000000  0.5624610000000  0.5029360000000 1.0
C      1  0.5033320000000  0.4319470000000  0.5058350000000 1.0
C      1  0.4966680000000  0.5680530000000  0.4941650000000 1.0
C      1  0.5310580000000  0.4871920000000  0.5084460000000 1.0
C      1  0.4689420000000  0.5128080000000  0.4915540000000 1.0
C      1  0.5561080000000  0.5439120000000  0.5375050000000 1.0
C      1  0.4438920000000  0.4560880000000  0.4624950000000 1.0
C      1  0.5157300000000  0.4874560000000  0.5683880000000 1.0
C      1  0.4842700000000  0.5125440000000  0.4316120000000 1.0
C      1  0.4199310000000  0.5003050000000  0.4993360000000 1.0
C      1  0.5800690000000  0.4996950000000  0.5006640000000 1.0
C      1  0.5304560000000  0.5341420000000  0.4825250000000 1.0
C      1  0.4695440000000  0.4658580000000  0.5174750000000 1.0
C      1  0.4478280000000  0.5456160000000  0.5242090000000 1.0
C      1  0.5521720000000  0.4543840000000  0.4757910000000 1.0
C      1  0.4749790000000  0.4367090000000  0.5148330000000 1.0
C      1  0.5250210000000  0.5632910000000  0.4851670000000 1.0
C      1  0.4994970000000  0.4384420000000  0.4773230000000 1.0
C      1  0.5005030000000  0.5615580000000  0.5226770000000 1.0
C      1  0.4962210000000  0.5326510000000  0.5271060000000 1.0
C      1  0.5037790000000  0.4673490000000  0.4728940000000 1.0
C      1  0.5435440000000  0.5728970000000  0.5064770000000 1.0
C      1  0.4564560000000  0.4271030000000  0.4935230000000 1.0
END
