TITL C-9261-551-179 -1.64167452443367e-06 125000 -364.298174340192 0 0 60 (C1) n - 1
REM
REM in /home/bkarasulu/CARBON/AIRSS/Generating-Clusters/EDIP-Nigel-Params/Higher-Symm/Box-15A/Only-C60/SD-CG/HFTN-CG
REM
REM
REM
REM
REM
REM ./C.cell (414f73aa93bd7a1190c7fd0f31ff2f98)
REM
REM compiler GCC version 9.2.1 20190827 (Red Hat 9.2.1-1)
REM options -cpp -mtune=generic -march=x86-64 -g -O0 -fpre-include=/usr/include/finclude/math-vector-fortran.h
REM seed -1016128313 -168974090 919107713 -617755411 -171675535 -1410673098 1963974306 154352677 -1059205424 1450427105 -1528335938 647404713 899959290 -1789314401 853336222 1682425354 -350155340 -1991626711 2047441041 1839901537 197065415 1576924714 1824925801 -1588969029 1646240895 -2114870368 757974835 -1304795700 -217945880 -406517418 633328154 -1692555637 -251600154
REM
CELL 1.54180   50.00000   50.00000   50.00000   90.00000   90.00000   90.00000
LATT -1
SFAC C  
C      1  0.5603840000000  0.4881750000000  0.4888480000000 1.0
C      1  0.4918450000000  0.5775830000000  0.4844850000000 1.0
C      1  0.4900020000000  0.4706070000000  0.5658530000000 1.0
C      1  0.4656970000000  0.4650490000000  0.4672910000000 1.0
C      1  0.4727550000000  0.5271500000000  0.5371560000000 1.0
C      1  0.4893980000000  0.5178800000000  0.5152930000000 1.0
C      1  0.4707850000000  0.4322350000000  0.5052640000000 1.0
C      1  0.5025180000000  0.4860530000000  0.4304960000000 1.0
C      1  0.5553080000000  0.4654220000000  0.4721990000000 1.0
C      1  0.5303360000000  0.4358300000000  0.5375420000000 1.0
C      1  0.4205280000000  0.4898720000000  0.5096130000000 1.0
C      1  0.5347750000000  0.5409240000000  0.4595900000000 1.0
C      1  0.5112030000000  0.4716450000000  0.5203440000000 1.0
C      1  0.4221050000000  0.5390330000000  0.4975870000000 1.0
C      1  0.5368310000000  0.4455170000000  0.4819220000000 1.0
C      1  0.4803820000000  0.4352740000000  0.5332010000000 1.0
C      1  0.5145140000000  0.5737640000000  0.4656610000000 1.0
C      1  0.5061290000000  0.4489770000000  0.4766510000000 1.0
C      1  0.5697720000000  0.5143330000000  0.4782990000000 1.0
C      1  0.4793540000000  0.5354800000000  0.4721880000000 1.0
C      1  0.4962340000000  0.5654360000000  0.5349460000000 1.0
C      1  0.4168190000000  0.5163490000000  0.5132960000000 1.0
C      1  0.5348180000000  0.4593680000000  0.5560190000000 1.0
C      1  0.5668720000000  0.5163980000000  0.5245560000000 1.0
C      1  0.5240030000000  0.4860910000000  0.4490870000000 1.0
C      1  0.5001370000000  0.4781540000000  0.4922650000000 1.0
C      1  0.4637430000000  0.4826810000000  0.5276680000000 1.0
C      1  0.4767030000000  0.4941440000000  0.5734500000000 1.0
C      1  0.5050870000000  0.4225140000000  0.5388020000000 1.0
C      1  0.4340410000000  0.5278960000000  0.4743580000000 1.0
C      1  0.5185170000000  0.4958770000000  0.4766240000000 1.0
C      1  0.4663030000000  0.5618440000000  0.4768160000000 1.0
C      1  0.5565860000000  0.5257190000000  0.5489090000000 1.0
C      1  0.5334430000000  0.5108830000000  0.5532100000000 1.0
C      1  0.4860010000000  0.4641850000000  0.5373530000000 1.0
C      1  0.4866920000000  0.5300380000000  0.4434400000000 1.0
C      1  0.5610420000000  0.5311440000000  0.5004300000000 1.0
C      1  0.5111720000000  0.5266400000000  0.5595520000000 1.0
C      1  0.5045310000000  0.5630700000000  0.5078930000000 1.0
C      1  0.4447730000000  0.5581030000000  0.4964440000000 1.0
C      1  0.5272470000000  0.5245870000000  0.4845760000000 1.0
C      1  0.4617540000000  0.5028110000000  0.5508090000000 1.0
C      1  0.5148130000000  0.4623620000000  0.5757360000000 1.0
C      1  0.4757880000000  0.4962490000000  0.5027380000000 1.0
C      1  0.5356240000000  0.4842430000000  0.5375380000000 1.0
C      1  0.4801200000000  0.5023650000000  0.4361650000000 1.0
C      1  0.5011050000000  0.5355800000000  0.4955160000000 1.0
C      1  0.5046610000000  0.5449410000000  0.4284100000000 1.0
C      1  0.4930480000000  0.4269100000000  0.4889920000000 1.0
C      1  0.5496310000000  0.4959980000000  0.4430130000000 1.0
C      1  0.5600900000000  0.4882030000000  0.5188610000000 1.0
C      1  0.5580730000000  0.5218790000000  0.4519190000000 1.0
C      1  0.4615120000000  0.4921690000000  0.4568230000000 1.0
C      1  0.5164600000000  0.5675640000000  0.4382610000000 1.0
C      1  0.4393750000000  0.4702010000000  0.5157580000000 1.0
C      1  0.5379470000000  0.4447540000000  0.5109600000000 1.0
C      1  0.4902500000000  0.5445050000000  0.5530910000000 1.0
C      1  0.4593010000000  0.5127400000000  0.4779400000000 1.0
C      1  0.4542570000000  0.4546410000000  0.4938780000000 1.0
C      1  0.4868080000000  0.4499620000000  0.4544160000000 1.0
END
