TITL C-9262-5533-240 1.56958345041547e-06 125000 -362.970123698687 0 0 60 (C1) n - 1
REM
REM in /home/bkarasulu/CARBON/AIRSS/Generating-Clusters/EDIP-Nigel-Params/Higher-Symm/Box-15A/Only-C60/SD-CG/HFTN-CG
REM
REM
REM
REM
REM
REM ./C.cell (414f73aa93bd7a1190c7fd0f31ff2f98)
REM
REM compiler GCC version 9.2.1 20190827 (Red Hat 9.2.1-1)
REM options -cpp -mtune=generic -march=x86-64 -g -O0 -fpre-include=/usr/include/finclude/math-vector-fortran.h
REM seed 1061857488 -955809613 1144060312 1862210969 685610269 1908454651 -2039427957 431951215 -1684530382 408084938 -651423071 760985475 -1530611035 712735100 -1134931597 -1356975997 1758337003 1850391643 -899264187 280446005 -325513132 590808563 -684638988 487274208 -1608161884 1700445082 1068472221 -1652880209 446445041 743891883 -1220710782 88833658 -1153156777
REM
CELL 1.54180   50.00000   50.00000   50.00000   90.00000   90.00000   90.00000
LATT -1
SFAC C  
C      1  0.4856360000000  0.4700330000000  0.4360180000000 1.0
C      1  0.5118720000000  0.4722480000000  0.5652270000000 1.0
C      1  0.4861780000000  0.5194870000000  0.4325330000000 1.0
C      1  0.5146450000000  0.5234270000000  0.5674930000000 1.0
C      1  0.5118700000000  0.4799140000000  0.4322190000000 1.0
C      1  0.4852660000000  0.4808810000000  0.5687710000000 1.0
C      1  0.5125660000000  0.5292510000000  0.4353810000000 1.0
C      1  0.4871100000000  0.5279660000000  0.5668060000000 1.0
C      1  0.4768210000000  0.5156020000000  0.4841920000000 1.0
C      1  0.5242470000000  0.5142860000000  0.5156710000000 1.0
C      1  0.4759900000000  0.4843360000000  0.4858040000000 1.0
C      1  0.5234690000000  0.4823420000000  0.5147670000000 1.0
C      1  0.5238650000000  0.5151150000000  0.4844500000000 1.0
C      1  0.4773920000000  0.5174160000000  0.5157020000000 1.0
C      1  0.5229040000000  0.4838000000000  0.4830780000000 1.0
C      1  0.4767170000000  0.4857490000000  0.5175100000000 1.0
C      1  0.5728890000000  0.5131420000000  0.5153680000000 1.0
C      1  0.4279530000000  0.5156900000000  0.4846050000000 1.0
C      1  0.5723240000000  0.4820960000000  0.5134170000000 1.0
C      1  0.4272980000000  0.4845790000000  0.4868210000000 1.0
C      1  0.4283780000000  0.5178380000000  0.5156200000000 1.0
C      1  0.5725090000000  0.5150640000000  0.4842660000000 1.0
C      1  0.4277760000000  0.4868580000000  0.5178530000000 1.0
C      1  0.5717610000000  0.4839980000000  0.4823820000000 1.0
C      1  0.4855350000000  0.4321200000000  0.4773380000000 1.0
C      1  0.5148100000000  0.4314350000000  0.5198930000000 1.0
C      1  0.4863060000000  0.5667670000000  0.4729630000000 1.0
C      1  0.5135760000000  0.5647780000000  0.5282900000000 1.0
C      1  0.5130910000000  0.4326580000000  0.4730730000000 1.0
C      1  0.4882360000000  0.4350980000000  0.5285740000000 1.0
C      1  0.5139100000000  0.5673360000000  0.4766190000000 1.0
C      1  0.4867260000000  0.5680490000000  0.5199850000000 1.0
C      1  0.4608200000000  0.4426180000000  0.4877970000000 1.0
C      1  0.5400150000000  0.4412550000000  0.5114210000000 1.0
C      1  0.4607940000000  0.5570100000000  0.4824120000000 1.0
C      1  0.5394910000000  0.5560140000000  0.5162420000000 1.0
C      1  0.5390090000000  0.4424460000000  0.4813900000000 1.0
C      1  0.4619290000000  0.4438890000000  0.5177870000000 1.0
C      1  0.5390060000000  0.5568870000000  0.4860580000000 1.0
C      1  0.4609490000000  0.5585660000000  0.5124870000000 1.0
C      1  0.4601980000000  0.4893500000000  0.5586060000000 1.0
C      1  0.5378690000000  0.4872520000000  0.4413980000000 1.0
C      1  0.4612420000000  0.5193440000000  0.5570480000000 1.0
C      1  0.5390090000000  0.5174350000000  0.4427390000000 1.0
C      1  0.5383120000000  0.4828180000000  0.5565850000000 1.0
C      1  0.4595810000000  0.4819480000000  0.4445560000000 1.0
C      1  0.5394620000000  0.5128290000000  0.5573670000000 1.0
C      1  0.4606470000000  0.5121130000000  0.4429460000000 1.0
C      1  0.4523480000000  0.5274630000000  0.4708230000000 1.0
C      1  0.5489310000000  0.5259720000000  0.5289940000000 1.0
C      1  0.4513300000000  0.4708420000000  0.4743910000000 1.0
C      1  0.5482440000000  0.4686960000000  0.5259680000000 1.0
C      1  0.5481470000000  0.5286790000000  0.4723470000000 1.0
C      1  0.4530090000000  0.5311170000000  0.5274140000000 1.0
C      1  0.5470940000000  0.4719260000000  0.4691680000000 1.0
C      1  0.4519820000000  0.4746340000000  0.5313050000000 1.0
C      1  0.5007600000000  0.5278110000000  0.4713760000000 1.0
C      1  0.4984470000000  0.4715980000000  0.4715620000000 1.0
C      1  0.4999800000000  0.4711870000000  0.5291460000000 1.0
C      1  0.5017710000000  0.5289420000000  0.5279770000000 1.0
END
