TITL C-9267-1554-210 -3.67705466567657e-07 125000 -368.073348865473 0 0 60 (Cs) n - 1
REM
REM in /home/bkarasulu/CARBON/AIRSS/Generating-Clusters/EDIP-Nigel-Params/Higher-Symm/Box-15A/Only-C60/SD-CG/HFTN-CG
REM
REM
REM
REM
REM
REM ./C.cell (414f73aa93bd7a1190c7fd0f31ff2f98)
REM
REM compiler GCC version 9.2.1 20190827 (Red Hat 9.2.1-1)
REM options -cpp -mtune=generic -march=x86-64 -g -O0 -fpre-include=/usr/include/finclude/math-vector-fortran.h
REM seed -1047523591 -1792518331 -2121934944 -2023472386 -1279586084 222041271 -2021044979 991786541 -1581880983 -1906145091 -1288426911 882453394 -851275745 -1684716519 2017279096 -776226795 1426975157 1101374891 1611457419 -1470782670 -722080742 319830033 -1172515991 1961369490 2035394101 -725605207 323851638 -1445465991 -1718997625 1844149845 -2074287005 -1911952049 -577127582
REM
CELL 1.54180   50.00000   50.00000   50.00000   90.00000   90.00000   90.00000
LATT -1
SFAC C  
C      1  0.5001730000000  0.4756610000000  0.4299640000000 1.0
C      1  0.5001780000000  0.5243800000000  0.4299780000000 1.0
C      1  0.4918880000000  0.5283720000000  0.5097290000000 1.0
C      1  0.4918820000000  0.4716240000000  0.5097120000000 1.0
C      1  0.5492080000000  0.5150590000000  0.4456710000000 1.0
C      1  0.5492040000000  0.4849630000000  0.4456620000000 1.0
C      1  0.4745490000000  0.4313050000000  0.5225840000000 1.0
C      1  0.4745640000000  0.5686870000000  0.5226250000000 1.0
C      1  0.4606460000000  0.5318620000000  0.5021500000000 1.0
C      1  0.4606390000000  0.4681450000000  0.5021320000000 1.0
C      1  0.4809250000000  0.4554850000000  0.4319330000000 1.0
C      1  0.4809350000000  0.5445600000000  0.4319590000000 1.0
C      1  0.4745440000000  0.4488250000000  0.4594370000000 1.0
C      1  0.4745550000000  0.5512040000000  0.4594680000000 1.0
C      1  0.4564750000000  0.4865920000000  0.5728440000000 1.0
C      1  0.4564780000000  0.5133750000000  0.5728520000000 1.0
C      1  0.4523300000000  0.5596000000000  0.5081190000000 1.0
C      1  0.4523170000000  0.4404050000000  0.5080830000000 1.0
C      1  0.5560430000000  0.4710070000000  0.4701900000000 1.0
C      1  0.5560490000000  0.5289980000000  0.4702070000000 1.0
C      1  0.5178500000000  0.4656870000000  0.4689700000000 1.0
C      1  0.5178580000000  0.5343280000000  0.4689900000000 1.0
C      1  0.4589290000000  0.5296070000000  0.4725380000000 1.0
C      1  0.4589220000000  0.4704180000000  0.4725200000000 1.0
C      1  0.4405650000000  0.5134000000000  0.4594990000000 1.0
C      1  0.4405620000000  0.4866370000000  0.4594910000000 1.0
C      1  0.5069880000000  0.4856910000000  0.4884920000000 1.0
C      1  0.5069920000000  0.5143140000000  0.4885000000000 1.0
C      1  0.5365300000000  0.5276710000000  0.5620880000000 1.0
C      1  0.5365240000000  0.4722850000000  0.5620710000000 1.0
C      1  0.5617150000000  0.5145380000000  0.4941960000000 1.0
C      1  0.5617120000000  0.4854520000000  0.4941870000000 1.0
C      1  0.4863060000000  0.4860030000000  0.4079750000000 1.0
C      1  0.4863090000000  0.5140540000000  0.4079830000000 1.0
C      1  0.5246520000000  0.5651550000000  0.5174940000000 1.0
C      1  0.5246380000000  0.4348290000000  0.5174550000000 1.0
C      1  0.5508170000000  0.5142670000000  0.5424280000000 1.0
C      1  0.5508140000000  0.4856970000000  0.5424190000000 1.0
C      1  0.4989380000000  0.4416180000000  0.5066050000000 1.0
C      1  0.4989510000000  0.5583780000000  0.5066390000000 1.0
C      1  0.5001660000000  0.5588700000000  0.4748420000000 1.0
C      1  0.5001530000000  0.4411450000000  0.4748080000000 1.0
C      1  0.5496830000000  0.4445300000000  0.5179670000000 1.0
C      1  0.5496950000000  0.5554480000000  0.5180000000000 1.0
C      1  0.5092120000000  0.5319450000000  0.5590570000000 1.0
C      1  0.5092050000000  0.4680180000000  0.5590380000000 1.0
C      1  0.4472680000000  0.5149000000000  0.5238890000000 1.0
C      1  0.4472650000000  0.4850970000000  0.5238800000000 1.0
C      1  0.4643060000000  0.5252010000000  0.5478630000000 1.0
C      1  0.4643010000000  0.4747780000000  0.5478480000000 1.0
C      1  0.4975030000000  0.4429690000000  0.5636940000000 1.0
C      1  0.4975150000000  0.5569940000000  0.5637280000000 1.0
C      1  0.4928330000000  0.5159140000000  0.5395750000000 1.0
C      1  0.4928290000000  0.4840640000000  0.5395650000000 1.0
C      1  0.5281020000000  0.4707020000000  0.4317420000000 1.0
C      1  0.5281080000000  0.5293330000000  0.4317590000000 1.0
C      1  0.5579330000000  0.4710620000000  0.5188860000000 1.0
C      1  0.5579400000000  0.5289150000000  0.5189030000000 1.0
C      1  0.4729210000000  0.5556890000000  0.5495770000000 1.0
C      1  0.4729090000000  0.4442880000000  0.5495440000000 1.0
END
