TITL C-9255-4564-60 1.40173279284381e-05 125000 -359.81840970877 0 0 60 (D3) n - 1
REM
REM in /home/bkarasulu/CARBON/AIRSS/Generating-Clusters/EDIP-Nigel-Params/Higher-Symm/Box-15A/Only-C60/SD-CG/HFTN-CG
REM
REM
REM
REM
REM
REM ./C.cell (414f73aa93bd7a1190c7fd0f31ff2f98)
REM
REM compiler GCC version 9.2.1 20190827 (Red Hat 9.2.1-1)
REM options -cpp -mtune=generic -march=x86-64 -g -O0 -fpre-include=/usr/include/finclude/math-vector-fortran.h
REM seed -205104100 -2119502804 1889268321 60005570 -495766134 1313530674 -1589679863 1102489748 1270683873 -1915497527 1600618614 -935727287 1326654340 -1349865634 8761708 2035922296 -1037256317 -710641474 1713838563 -689000193 -1157374866 -930747720 780359347 -791753480 1420291114 86718101 -1918617454 2107800369 -1489532626 -339958450 1571993805 1476876218 656440349
REM
CELL 1.54180   50.00000   50.00000   50.00000   90.00000   90.00000   90.00000
LATT -1
SFAC C  
C      1  0.4637600000000  0.4350490000000  0.5259650000000 1.0
C      1  0.5412670000000  0.4352850000000  0.5177500000000 1.0
C      1  0.4953980000000  0.4356870000000  0.4547360000000 1.0
C      1  0.4635220000000  0.5647920000000  0.4739710000000 1.0
C      1  0.5410150000000  0.5648950000000  0.4823230000000 1.0
C      1  0.4950370000000  0.5642920000000  0.5452550000000 1.0
C      1  0.5064540000000  0.4307940000000  0.5471450000000 1.0
C      1  0.5383050000000  0.4314790000000  0.4701460000000 1.0
C      1  0.4556940000000  0.4312100000000  0.4810610000000 1.0
C      1  0.5062350000000  0.5692340000000  0.4528660000000 1.0
C      1  0.5379520000000  0.5686880000000  0.5299220000000 1.0
C      1  0.4553600000000  0.5685950000000  0.5188610000000 1.0
C      1  0.4772200000000  0.5755650000000  0.4986060000000 1.0
C      1  0.5094120000000  0.5754550000000  0.5211860000000 1.0
C      1  0.5128700000000  0.5757760000000  0.4820190000000 1.0
C      1  0.4775490000000  0.4243360000000  0.5013530000000 1.0
C      1  0.5097790000000  0.4245870000000  0.4788310000000 1.0
C      1  0.5131700000000  0.4242810000000  0.5180040000000 1.0
C      1  0.5372890000000  0.5433260000000  0.5471730000000 1.0
C      1  0.5217640000000  0.5441120000000  0.4445610000000 1.0
C      1  0.4406600000000  0.5434170000000  0.5093110000000 1.0
C      1  0.5375620000000  0.4568370000000  0.4528930000000 1.0
C      1  0.5218580000000  0.4559840000000  0.5554780000000 1.0
C      1  0.4408670000000  0.4563240000000  0.4905840000000 1.0
C      1  0.4783300000000  0.5613960000000  0.4496280000000 1.0
C      1  0.4665880000000  0.5606120000000  0.5445670000000 1.0
C      1  0.5546800000000  0.5611030000000  0.5072670000000 1.0
C      1  0.4785090000000  0.4385100000000  0.5503330000000 1.0
C      1  0.4669330000000  0.4392430000000  0.4553750000000 1.0
C      1  0.5549600000000  0.4391370000000  0.4928300000000 1.0
C      1  0.4893020000000  0.4760450000000  0.4856270000000 1.0
C      1  0.4931470000000  0.4758090000000  0.5162090000000 1.0
C      1  0.5177100000000  0.4760110000000  0.4975880000000 1.0
C      1  0.4891720000000  0.5239080000000  0.5143540000000 1.0
C      1  0.4930700000000  0.5241610000000  0.4837790000000 1.0
C      1  0.5176000000000  0.5240660000000  0.5024430000000 1.0
C      1  0.4627400000000  0.4728920000000  0.4718380000000 1.0
C      1  0.4945180000000  0.4723690000000  0.5460730000000 1.0
C      1  0.5429210000000  0.4729920000000  0.4814370000000 1.0
C      1  0.4625720000000  0.5269440000000  0.5280960000000 1.0
C      1  0.4944790000000  0.5276070000000  0.4539170000000 1.0
C      1  0.5427690000000  0.5271960000000  0.5186390000000 1.0
C      1  0.4441170000000  0.5190180000000  0.4655130000000 1.0
C      1  0.4978820000000  0.5183350000000  0.5658280000000 1.0
C      1  0.5578770000000  0.5192390000000  0.4691110000000 1.0
C      1  0.4441400000000  0.4807380000000  0.5343880000000 1.0
C      1  0.4980790000000  0.4816560000000  0.4341690000000 1.0
C      1  0.5579050000000  0.4810140000000  0.5309910000000 1.0
C      1  0.4816940000000  0.5038530000000  0.4394030000000 1.0
C      1  0.4566390000000  0.5029450000000  0.5461840000000 1.0
C      1  0.5616450000000  0.5034290000000  0.5144940000000 1.0
C      1  0.4816040000000  0.4960670000000  0.5605640000000 1.0
C      1  0.4567340000000  0.4968650000000  0.4537390000000 1.0
C      1  0.5616850000000  0.4968410000000  0.4856160000000 1.0
C      1  0.5101040000000  0.5428100000000  0.5587170000000 1.0
C      1  0.5453590000000  0.5436570000000  0.4623280000000 1.0
C      1  0.4442530000000  0.5432940000000  0.4799900000000 1.0
C      1  0.5103950000000  0.4572350000000  0.4413010000000 1.0
C      1  0.5454830000000  0.4565420000000  0.5377520000000 1.0
C      1  0.4444070000000  0.4564620000000  0.5199110000000 1.0
END
