TITL C-9260-5597-168 -2.10265259289782e-05 125000 -382.535414398776 0 0 60 (C3) n - 1
REM
REM in /home/bkarasulu/CARBON/AIRSS/Generating-Clusters/EDIP-Nigel-Params/Higher-Symm/Box-15A/Only-C60/SD-CG/HFTN-CG
REM
REM
REM
REM
REM
REM ./C.cell (414f73aa93bd7a1190c7fd0f31ff2f98)
REM
REM compiler GCC version 9.2.1 20190827 (Red Hat 9.2.1-1)
REM options -cpp -mtune=generic -march=x86-64 -g -O0 -fpre-include=/usr/include/finclude/math-vector-fortran.h
REM seed -723792600 1321399579 1894690112 -428473208 1260449770 -1968394661 1312314908 -887334514 -467208798 1045219651 152997513 -2131408524 -518801530 -942458153 2073315052 1962946786 1477064307 -1371958744 -1605194774 -1704518385 1752950530 -2011218613 1753070960 995798232 1404655108 402395230 -1486209955 -1165499930 1802679315 1418617832 1245162264 -944243414 1909690816
REM
CELL 1.54180   50.00000   50.00000   50.00000   90.00000   90.00000   90.00000
LATT -1
SFAC C  
C      1  0.5138530000000  0.4533330000000  0.5511250000000 1.0
C      1  0.5535370000000  0.5142290000000  0.4516450000000 1.0
C      1  0.4448520000000  0.5625050000000  0.5180720000000 1.0
C      1  0.4859250000000  0.4517180000000  0.4463560000000 1.0
C      1  0.5136970000000  0.5457540000000  0.4471750000000 1.0
C      1  0.4820260000000  0.5549760000000  0.5626840000000 1.0
C      1  0.4374190000000  0.5177980000000  0.5551510000000 1.0
C      1  0.5529260000000  0.4862140000000  0.5456100000000 1.0
C      1  0.4487870000000  0.4862400000000  0.4534020000000 1.0
C      1  0.5465420000000  0.5512740000000  0.4862770000000 1.0
C      1  0.4543900000000  0.4470850000000  0.4861700000000 1.0
C      1  0.5484130000000  0.4464520000000  0.5139910000000 1.0
C      1  0.5126380000000  0.5550050000000  0.5627010000000 1.0
C      1  0.5543420000000  0.4846190000000  0.4511690000000 1.0
C      1  0.4522720000000  0.4444400000000  0.5158450000000 1.0
C      1  0.4840150000000  0.5478630000000  0.4445970000000 1.0
C      1  0.5155370000000  0.4513210000000  0.4455670000000 1.0
C      1  0.4840580000000  0.4515730000000  0.5524780000000 1.0
C      1  0.4374180000000  0.4871850000000  0.5551000000000 1.0
C      1  0.5554930000000  0.5158910000000  0.5477910000000 1.0
C      1  0.4474140000000  0.5160390000000  0.4517220000000 1.0
C      1  0.5488280000000  0.4457250000000  0.4843780000000 1.0
C      1  0.4448400000000  0.5625850000000  0.4874600000000 1.0
C      1  0.5482820000000  0.5525700000000  0.5160760000000 1.0
C      1  0.4732990000000  0.5586280000000  0.4718240000000 1.0
C      1  0.4681090000000  0.4780930000000  0.5549240000000 1.0
C      1  0.5638560000000  0.4696560000000  0.4750880000000 1.0
C      1  0.5217470000000  0.5549150000000  0.5320160000000 1.0
C      1  0.4759610000000  0.4336160000000  0.5300350000000 1.0
C      1  0.5248840000000  0.4362360000000  0.4694400000000 1.0
C      1  0.5304430000000  0.4752980000000  0.4361090000000 1.0
C      1  0.4698160000000  0.5241950000000  0.4337400000000 1.0
C      1  0.5282820000000  0.5265640000000  0.5586390000000 1.0
C      1  0.4414310000000  0.4716180000000  0.5266110000000 1.0
C      1  0.5662930000000  0.5301570000000  0.5241370000000 1.0
C      1  0.4450140000000  0.5319180000000  0.4782880000000 1.0
C      1  0.4765050000000  0.4353790000000  0.4697930000000 1.0
C      1  0.4673530000000  0.5267920000000  0.5587490000000 1.0
C      1  0.5630210000000  0.5290230000000  0.4758210000000 1.0
C      1  0.5242720000000  0.4369170000000  0.5288100000000 1.0
C      1  0.4730390000000  0.5586120000000  0.5327520000000 1.0
C      1  0.5204200000000  0.5545520000000  0.4739970000000 1.0
C      1  0.5300620000000  0.5236780000000  0.4353790000000 1.0
C      1  0.4710740000000  0.4758750000000  0.4369140000000 1.0
C      1  0.5261250000000  0.4794530000000  0.5544450000000 1.0
C      1  0.4412890000000  0.5325450000000  0.5269960000000 1.0
C      1  0.5646860000000  0.4699120000000  0.5234680000000 1.0
C      1  0.4455270000000  0.4738980000000  0.4794970000000 1.0
C      1  0.5155810000000  0.4992860000000  0.4258100000000 1.0
C      1  0.4838330000000  0.5027710000000  0.5570190000000 1.0
C      1  0.4373250000000  0.4884990000000  0.5026970000000 1.0
C      1  0.5009140000000  0.4258440000000  0.4842670000000 1.0
C      1  0.5741970000000  0.4844610000000  0.4990940000000 1.0
C      1  0.4429780000000  0.5161290000000  0.5029290000000 1.0
C      1  0.5729880000000  0.5142780000000  0.4994420000000 1.0
C      1  0.5006270000000  0.4269750000000  0.5140880000000 1.0
C      1  0.4970730000000  0.5569780000000  0.5162830000000 1.0
C      1  0.4972460000000  0.5627030000000  0.4886670000000 1.0
C      1  0.5114600000000  0.5025980000000  0.5626860000000 1.0
C      1  0.4857630000000  0.4995550000000  0.4270030000000 1.0
END
