TITL C-9267-1554-72 -3.47321812601172e-05 125000 -363.559694368454 0 0 60 (C1) n - 1
REM
REM in /home/bkarasulu/CARBON/AIRSS/Generating-Clusters/EDIP-Nigel-Params/Higher-Symm/Box-15A/Only-C60/SD-CG/HFTN-CG
REM
REM
REM
REM
REM
REM ./C.cell (414f73aa93bd7a1190c7fd0f31ff2f98)
REM
REM compiler GCC version 9.2.1 20190827 (Red Hat 9.2.1-1)
REM options -cpp -mtune=generic -march=x86-64 -g -O0 -fpre-include=/usr/include/finclude/math-vector-fortran.h
REM seed -154730871 1934777652 -50331667 -1666720380 -1246795888 312598751 241816807 -1621309174 1187901249 856754026 1903395270 989357497 1880814544 233769692 860525905 1692016444 -1123275341 -2399628 1650046493 1675635121 1704162901 -1548971514 1316128609 1209642084 -1664686318 -1391055563 -1464417509 -1943107514 1539689980 -1327400355 1862024380 1898186959 1557670239
REM
CELL 1.54180   50.00000   50.00000   50.00000   90.00000   90.00000   90.00000
LATT -1
SFAC C  
C      1  0.4846900000000  0.4560880000000  0.5697010000000 1.0
C      1  0.5683590000000  0.4564570000000  0.4783500000000 1.0
C      1  0.4472800000000  0.4568420000000  0.4519020000000 1.0
C      1  0.5130830000000  0.4596030000000  0.5711300000000 1.0
C      1  0.4316920000000  0.4604880000000  0.4758140000000 1.0
C      1  0.5554260000000  0.4603910000000  0.4530000000000 1.0
C      1  0.4769930000000  0.5082420000000  0.4622610000000 1.0
C      1  0.4790820000000  0.5084610000000  0.5394150000000 1.0
C      1  0.5443610000000  0.5080990000000  0.5013000000000 1.0
C      1  0.5250850000000  0.5113510000000  0.4625540000000 1.0
C      1  0.5221410000000  0.5110330000000  0.5388590000000 1.0
C      1  0.4541980000000  0.5113420000000  0.4986650000000 1.0
C      1  0.5273140000000  0.4617810000000  0.5460410000000 1.0
C      1  0.5265340000000  0.4624250000000  0.4532980000000 1.0
C      1  0.4462410000000  0.4626230000000  0.5008020000000 1.0
C      1  0.4714060000000  0.4602510000000  0.5444360000000 1.0
C      1  0.4758940000000  0.4607360000000  0.4529400000000 1.0
C      1  0.5530860000000  0.4601740000000  0.5025590000000 1.0
C      1  0.5281910000000  0.5333330000000  0.5009460000000 1.0
C      1  0.4859690000000  0.5326950000000  0.4764630000000 1.0
C      1  0.4863770000000  0.5338550000000  0.5255420000000 1.0
C      1  0.4710540000000  0.5402950000000  0.5010680000000 1.0
C      1  0.5144890000000  0.5395890000000  0.4753510000000 1.0
C      1  0.5146210000000  0.5429010000000  0.5254390000000 1.0
C      1  0.4236240000000  0.5015310000000  0.5214010000000 1.0
C      1  0.5567000000000  0.5002930000000  0.5539950000000 1.0
C      1  0.5184990000000  0.5016710000000  0.4251880000000 1.0
C      1  0.5770270000000  0.4995020000000  0.5206840000000 1.0
C      1  0.4443450000000  0.4997140000000  0.5543920000000 1.0
C      1  0.4795020000000  0.5006780000000  0.4241470000000 1.0
C      1  0.5796390000000  0.4917000000000  0.4690780000000 1.0
C      1  0.4327240000000  0.4916500000000  0.4465230000000 1.0
C      1  0.4872700000000  0.4910430000000  0.5846750000000 1.0
C      1  0.4163480000000  0.4949390000000  0.4706090000000 1.0
C      1  0.5671630000000  0.4951470000000  0.4427510000000 1.0
C      1  0.5163700000000  0.4945060000000  0.5860400000000 1.0
C      1  0.4863370000000  0.4712010000000  0.4270030000000 1.0
C      1  0.4437140000000  0.4700290000000  0.5488260000000 1.0
C      1  0.5704970000000  0.4700300000000  0.5247000000000 1.0
C      1  0.5158650000000  0.4717380000000  0.4272220000000 1.0
C      1  0.5554510000000  0.4704450000000  0.5501240000000 1.0
C      1  0.4290220000000  0.4718750000000  0.5233540000000 1.0
C      1  0.5735400000000  0.5096200000000  0.4913630000000 1.0
C      1  0.4547850000000  0.5099690000000  0.4410600000000 1.0
C      1  0.4708920000000  0.5093300000000  0.5688620000000 1.0
C      1  0.4242590000000  0.5124740000000  0.4923840000000 1.0
C      1  0.5443420000000  0.5127000000000  0.4389250000000 1.0
C      1  0.5314990000000  0.5117240000000  0.5680500000000 1.0
C      1  0.4857910000000  0.5817680000000  0.5215780000000 1.0
C      1  0.5264260000000  0.5810040000000  0.4978540000000 1.0
C      1  0.4859920000000  0.5783230000000  0.4752450000000 1.0
C      1  0.5129180000000  0.5733850000000  0.5216500000000 1.0
C      1  0.4721780000000  0.5711540000000  0.4990830000000 1.0
C      1  0.5133720000000  0.5705330000000  0.4749560000000 1.0
C      1  0.5307640000000  0.4808300000000  0.5005300000000 1.0
C      1  0.4851730000000  0.4812970000000  0.4733680000000 1.0
C      1  0.4842530000000  0.4813210000000  0.5264280000000 1.0
C      1  0.4685320000000  0.4829050000000  0.4996770000000 1.0
C      1  0.5163380000000  0.4827210000000  0.4732560000000 1.0
C      1  0.5152810000000  0.4821960000000  0.5271890000000 1.0
END
