TITL C-9266-5713-32 -1.83711942867703e-06 125000 -349.253226317569 0 0 60 (C3h) n - 1
REM
REM in /home/bkarasulu/CARBON/AIRSS/Generating-Clusters/EDIP-Nigel-Params/Higher-Symm/Box-15A/Only-C60/SD-CG/HFTN-CG
REM
REM
REM
REM
REM
REM ./C.cell (414f73aa93bd7a1190c7fd0f31ff2f98)
REM
REM compiler GCC version 9.2.1 20190827 (Red Hat 9.2.1-1)
REM options -cpp -mtune=generic -march=x86-64 -g -O0 -fpre-include=/usr/include/finclude/math-vector-fortran.h
REM seed -1971775092 203882100 -959626533 798011199 -177325823 -540417330 -1197808082 645558323 -244629489 -1256139246 -900760155 -2126678162 -551927353 -702593849 2041016696 -845528448 -793971824 1662795519 -2112852188 -517112087 -1687713120 -1002710020 -1352028576 -617737592 -600873015 1291061455 1829167192 -464374524 -1627305628 -267536836 1019179626 529213904 -706376380
REM
CELL 1.54180   50.00000   50.00000   50.00000   90.00000   90.00000   90.00000
LATT -1
SFAC C  
C      1  0.5516210000000  0.4928240000000  0.4567130000000 1.0
C      1  0.5516200000000  0.4660980000000  0.5278570000000 1.0
C      1  0.5516220000000  0.5410740000000  0.5154300000000 1.0
C      1  0.4483780000000  0.4928270000000  0.4567130000000 1.0
C      1  0.4483780000000  0.4661010000000  0.5278570000000 1.0
C      1  0.4483800000000  0.5410770000000  0.5154300000000 1.0
C      1  0.5135890000000  0.5603860000000  0.5449960000000 1.0
C      1  0.5135870000000  0.5087740000000  0.4252060000000 1.0
C      1  0.5135850000000  0.4308390000000  0.5297980000000 1.0
C      1  0.4864150000000  0.5603860000000  0.5449960000000 1.0
C      1  0.4864130000000  0.5087750000000  0.4252060000000 1.0
C      1  0.4864120000000  0.4308400000000  0.5297980000000 1.0
C      1  0.4847460000000  0.4589520000000  0.4877390000000 1.0
C      1  0.4847480000000  0.5099060000000  0.5416800000000 1.0
C      1  0.4847480000000  0.5311430000000  0.4705810000000 1.0
C      1  0.5152520000000  0.4589510000000  0.4877390000000 1.0
C      1  0.5152530000000  0.5099060000000  0.5416790000000 1.0
C      1  0.5152530000000  0.5311420000000  0.4705810000000 1.0
C      1  0.5630760000000  0.4929330000000  0.5400500000000 1.0
C      1  0.5630770000000  0.5382160000000  0.4860940000000 1.0
C      1  0.5630750000000  0.4688470000000  0.4738550000000 1.0
C      1  0.4369240000000  0.4929360000000  0.5400500000000 1.0
C      1  0.4369250000000  0.5382190000000  0.4860950000000 1.0
C      1  0.4369230000000  0.4688500000000  0.4738560000000 1.0
C      1  0.4607430000000  0.5082470000000  0.5239350000000 1.0
C      1  0.4607430000000  0.5166060000000  0.4808910000000 1.0
C      1  0.4607420000000  0.4751500000000  0.4951740000000 1.0
C      1  0.5392570000000  0.5082450000000  0.5239350000000 1.0
C      1  0.5392570000000  0.5166040000000  0.4808910000000 1.0
C      1  0.5392560000000  0.4751470000000  0.4951740000000 1.0
C      1  0.5161270000000  0.5598630000000  0.4589130000000 1.0
C      1  0.5161240000000  0.4344860000000  0.4687000000000 1.0
C      1  0.5161260000000  0.5056500000000  0.5723860000000 1.0
C      1  0.4838760000000  0.5598640000000  0.4589140000000 1.0
C      1  0.4838730000000  0.4344870000000  0.4687000000000 1.0
C      1  0.4838750000000  0.5056510000000  0.5723870000000 1.0
C      1  0.5668510000000  0.5236360000000  0.5376600000000 1.0
C      1  0.5668500000000  0.5207950000000  0.4606990000000 1.0
C      1  0.5668490000000  0.4555650000000  0.5016400000000 1.0
C      1  0.4331510000000  0.5236390000000  0.5376610000000 1.0
C      1  0.4331500000000  0.5207980000000  0.4607000000000 1.0
C      1  0.4331490000000  0.4555680000000  0.5016410000000 1.0
C      1  0.4851790000000  0.5752780000000  0.5005010000000 1.0
C      1  0.4851760000000  0.4627950000000  0.4345570000000 1.0
C      1  0.4851760000000  0.4619280000000  0.5649420000000 1.0
C      1  0.5148250000000  0.5752770000000  0.5005010000000 1.0
C      1  0.5148220000000  0.4627940000000  0.4345570000000 1.0
C      1  0.5148220000000  0.4619270000000  0.5649420000000 1.0
C      1  0.5295680000000  0.4880740000000  0.4351990000000 1.0
C      1  0.5295670000000  0.4498430000000  0.5427280000000 1.0
C      1  0.5295700000000  0.5620810000000  0.5220730000000 1.0
C      1  0.4704310000000  0.4880760000000  0.4351990000000 1.0
C      1  0.4704310000000  0.4498440000000  0.5427280000000 1.0
C      1  0.4704330000000  0.5620820000000  0.5220730000000 1.0
C      1  0.5273140000000  0.5799360000000  0.4756240000000 1.0
C      1  0.5273100000000  0.4389210000000  0.4429610000000 1.0
C      1  0.5273120000000  0.4811410000000  0.5814150000000 1.0
C      1  0.4726900000000  0.5799370000000  0.4756240000000 1.0
C      1  0.4726860000000  0.4389220000000  0.4429610000000 1.0
C      1  0.4726880000000  0.4811430000000  0.5814150000000 1.0
END
