TITL C-9269-7444-155 -2.12302385445407e-05 125000 -363.261715061419 0 0 60 (C1) n - 1
REM
REM in /home/bkarasulu/CARBON/AIRSS/Generating-Clusters/EDIP-Nigel-Params/Higher-Symm/Box-15A/Only-C60/SD-CG/HFTN-CG
REM
REM
REM
REM
REM
REM ./C.cell (414f73aa93bd7a1190c7fd0f31ff2f98)
REM
REM compiler GCC version 9.2.1 20190827 (Red Hat 9.2.1-1)
REM options -cpp -mtune=generic -march=x86-64 -g -O0 -fpre-include=/usr/include/finclude/math-vector-fortran.h
REM seed -1431598536 -1734251787 719241670 -1899479876 -1768489375 -42710427 -1312932849 579117367 -1916524053 881307138 -441780088 764617499 -1643046939 -367543789 -1496728233 1929353730 143184221 -1139670482 70224976 376451185 927394222 1021613093 985534118 -211765606 522901856 1350476286 -2121610502 1244936651 726050631 -625425479 -898940374 -123819889 562785511
REM
CELL 1.54180   50.00000   50.00000   50.00000   90.00000   90.00000   90.00000
LATT -1
SFAC C  
C      1  0.5292670000000  0.5035950000000  0.4429050000000 1.0
C      1  0.4618320000000  0.5087310000000  0.4682570000000 1.0
C      1  0.4500130000000  0.5070150000000  0.5293330000000 1.0
C      1  0.5052880000000  0.4999890000000  0.5601940000000 1.0
C      1  0.5590910000000  0.5078270000000  0.5171480000000 1.0
C      1  0.5864820000000  0.4951270000000  0.4810160000000 1.0
C      1  0.4965140000000  0.4838860000000  0.4203730000000 1.0
C      1  0.4196830000000  0.4915110000000  0.4751490000000 1.0
C      1  0.4540720000000  0.4889930000000  0.5713070000000 1.0
C      1  0.5497790000000  0.4797500000000  0.5613080000000 1.0
C      1  0.5657760000000  0.4641570000000  0.4739430000000 1.0
C      1  0.4939400000000  0.4589240000000  0.4467880000000 1.0
C      1  0.4351580000000  0.4617660000000  0.4928060000000 1.0
C      1  0.4687200000000  0.4571660000000  0.5569940000000 1.0
C      1  0.5421280000000  0.4545380000000  0.5434170000000 1.0
C      1  0.4686590000000  0.5514740000000  0.5388530000000 1.0
C      1  0.5173230000000  0.5344020000000  0.5270770000000 1.0
C      1  0.5449480000000  0.5503900000000  0.4896280000000 1.0
C      1  0.5009360000000  0.5413240000000  0.4607880000000 1.0
C      1  0.4535230000000  0.5536370000000  0.4858080000000 1.0
C      1  0.5258900000000  0.4795160000000  0.4248210000000 1.0
C      1  0.4431080000000  0.4876030000000  0.4581170000000 1.0
C      1  0.4372490000000  0.4864990000000  0.5475080000000 1.0
C      1  0.5210050000000  0.4779970000000  0.5740670000000 1.0
C      1  0.5793610000000  0.4880110000000  0.5084830000000 1.0
C      1  0.4812050000000  0.4642380000000  0.4744490000000 1.0
C      1  0.4569930000000  0.4623250000000  0.5128900000000 1.0
C      1  0.4931810000000  0.4575320000000  0.5392500000000 1.0
C      1  0.5383750000000  0.4644850000000  0.5153200000000 1.0
C      1  0.5353730000000  0.4640250000000  0.4703900000000 1.0
C      1  0.5293550000000  0.4929690000000  0.4699210000000 1.0
C      1  0.4819210000000  0.4935380000000  0.4852390000000 1.0
C      1  0.4708020000000  0.4901000000000  0.5146160000000 1.0
C      1  0.4971130000000  0.4870460000000  0.5332750000000 1.0
C      1  0.5227600000000  0.4927250000000  0.5162910000000 1.0
C      1  0.5159400000000  0.4516070000000  0.5577070000000 1.0
C      1  0.5660450000000  0.4631870000000  0.5034370000000 1.0
C      1  0.5237580000000  0.4556710000000  0.4438630000000 1.0
C      1  0.4516760000000  0.4613380000000  0.4688030000000 1.0
C      1  0.4455690000000  0.4590860000000  0.5397590000000 1.0
C      1  0.4837240000000  0.5671460000000  0.5211970000000 1.0
C      1  0.5125280000000  0.5622420000000  0.5234040000000 1.0
C      1  0.5283330000000  0.5727900000000  0.5003600000000 1.0
C      1  0.4995110000000  0.5699740000000  0.4593860000000 1.0
C      1  0.4794240000000  0.5636160000000  0.4920960000000 1.0
C      1  0.5511740000000  0.5067820000000  0.5468740000000 1.0
C      1  0.5827560000000  0.5228940000000  0.4808170000000 1.0
C      1  0.4888540000000  0.5111940000000  0.4203210000000 1.0
C      1  0.4173770000000  0.5188680000000  0.4817220000000 1.0
C      1  0.4606380000000  0.5163230000000  0.5749010000000 1.0
C      1  0.5651500000000  0.5326990000000  0.5005750000000 1.0
C      1  0.5078540000000  0.5234960000000  0.4374580000000 1.0
C      1  0.4442720000000  0.5276940000000  0.4818390000000 1.0
C      1  0.4610950000000  0.5262640000000  0.5482400000000 1.0
C      1  0.5251830000000  0.5203500000000  0.5509400000000 1.0
C      1  0.5215380000000  0.4490350000000  0.4956620000000 1.0
C      1  0.5112300000000  0.5037360000000  0.4896380000000 1.0
C      1  0.5108200000000  0.5341550000000  0.4887060000000 1.0
C      1  0.4920090000000  0.4487060000000  0.5012720000000 1.0
C      1  0.5099150000000  0.5850560000000  0.4809840000000 1.0
END
