TITL C-9261-551-174 -2.55630399622621e-07 125000 -391.467711235593 0 0 60 (Ih) n - 1
REM
REM in /home/bkarasulu/CARBON/AIRSS/Generating-Clusters/EDIP-Nigel-Params/Higher-Symm/Box-15A/Only-C60/SD-CG/HFTN-CG
REM
REM
REM
REM
REM
REM ./C.cell (414f73aa93bd7a1190c7fd0f31ff2f98)
REM
REM compiler GCC version 9.2.1 20190827 (Red Hat 9.2.1-1)
REM options -cpp -mtune=generic -march=x86-64 -g -O0 -fpre-include=/usr/include/finclude/math-vector-fortran.h
REM seed -2084229740 -167690953 -1169935135 1870198482 -808291526 -827280453 -227566464 413441462 396675163 475944915 -1606981391 -1079526649 -1057233612 -638233660 -340689311 -849002959 -1259681217 -1099950949 655721253 -1105955490 278379021 -1993506120 -441132104 -1951612130 -1752581761 -1564889514 -1689002432 -1592723131 -1766579074 -1418669776 -1448710211 2100450187 -1971424624
REM
CELL 1.54180   50.00000   50.00000   50.00000   90.00000   90.00000   90.00000
LATT -1
SFAC C  
C      1  0.5298160000000  0.5630730000000  0.4759800000000 1.0
C      1  0.4759030000000  0.5297140000000  0.5630920000000 1.0
C      1  0.5630420000000  0.4758270000000  0.5297590000000 1.0
C      1  0.4702630000000  0.5630550000000  0.5241640000000 1.0
C      1  0.5297250000000  0.4368900000000  0.5240350000000 1.0
C      1  0.4701960000000  0.4369820000000  0.4758210000000 1.0
C      1  0.5241340000000  0.5298270000000  0.4369760000000 1.0
C      1  0.4758980000000  0.4703160000000  0.4368960000000 1.0
C      1  0.5240650000000  0.4701430000000  0.5630360000000 1.0
C      1  0.4369280000000  0.4759740000000  0.4701860000000 1.0
C      1  0.5630870000000  0.5240940000000  0.4702730000000 1.0
C      1  0.4369430000000  0.5241050000000  0.5297820000000 1.0
C      1  0.5297370000000  0.4369450000000  0.4758360000000 1.0
C      1  0.4758660000000  0.4701730000000  0.5630240000000 1.0
C      1  0.5630720000000  0.5240260000000  0.5298140000000 1.0
C      1  0.4701840000000  0.4369270000000  0.5240200000000 1.0
C      1  0.5298040000000  0.5630180000000  0.5241790000000 1.0
C      1  0.4702750000000  0.5631100000000  0.4759650000000 1.0
C      1  0.5240970000000  0.4702860000000  0.4369080000000 1.0
C      1  0.4759350000000  0.5298570000000  0.4369640000000 1.0
C      1  0.5241020000000  0.5296840000000  0.5631040000000 1.0
C      1  0.4369580000000  0.5241730000000  0.4702410000000 1.0
C      1  0.5630570000000  0.4758950000000  0.4702180000000 1.0
C      1  0.4369130000000  0.4759060000000  0.5297270000000 1.0
C      1  0.5148490000000  0.4460660000000  0.5481120000000 1.0
C      1  0.5481930000000  0.5149260000000  0.4461590000000 1.0
C      1  0.4461560000000  0.5481860000000  0.5149360000000 1.0
C      1  0.4850840000000  0.4461940000000  0.4517650000000 1.0
C      1  0.5149400000000  0.5539160000000  0.4518950000000 1.0
C      1  0.4851270000000  0.5538250000000  0.5482270000000 1.0
C      1  0.4518260000000  0.5148630000000  0.5538750000000 1.0
C      1  0.5481470000000  0.4850140000000  0.5538650000000 1.0
C      1  0.4518350000000  0.4851970000000  0.4461010000000 1.0
C      1  0.5539040000000  0.5481530000000  0.4851740000000 1.0
C      1  0.4461040000000  0.4518810000000  0.4850370000000 1.0
C      1  0.5538360000000  0.4517800000000  0.5148530000000 1.0
C      1  0.5149160000000  0.5538060000000  0.5482350000000 1.0
C      1  0.5481740000000  0.4851370000000  0.4461250000000 1.0
C      1  0.4460960000000  0.4518470000000  0.5148260000000 1.0
C      1  0.4851510000000  0.5539340000000  0.4518880000000 1.0
C      1  0.5148730000000  0.4461750000000  0.4517730000000 1.0
C      1  0.4850600000000  0.4460840000000  0.5481050000000 1.0
C      1  0.4518070000000  0.4850740000000  0.5538410000000 1.0
C      1  0.5481650000000  0.5148030000000  0.5538990000000 1.0
C      1  0.4518530000000  0.5149860000000  0.4461350000000 1.0
C      1  0.5538440000000  0.4518140000000  0.4850640000000 1.0
C      1  0.4461640000000  0.5482200000000  0.4851470000000 1.0
C      1  0.5538960000000  0.5481190000000  0.5149630000000 1.0
C      1  0.4277270000000  0.5000280000000  0.5148580000000 1.0
C      1  0.5148310000000  0.4277210000000  0.4999210000000 1.0
C      1  0.5000280000000  0.5149590000000  0.4277480000000 1.0
C      1  0.5722730000000  0.4999720000000  0.4851420000000 1.0
C      1  0.4277340000000  0.5000620000000  0.4851050000000 1.0
C      1  0.5722660000000  0.4999380000000  0.5148950000000 1.0
C      1  0.4850790000000  0.4277400000000  0.4999140000000 1.0
C      1  0.5149210000000  0.5722600000000  0.5000860000000 1.0
C      1  0.4851690000000  0.5722790000000  0.5000790000000 1.0
C      1  0.4999910000000  0.5147940000000  0.5722860000000 1.0
C      1  0.4999720000000  0.4850410000000  0.5722520000000 1.0
C      1  0.5000090000000  0.4852060000000  0.4277140000000 1.0
END
