TITL C-9261-551-33 -3.6465797203681e-05 125000 -359.410397233851 0 0 60 (C1) n - 1
REM
REM in /home/bkarasulu/CARBON/AIRSS/Generating-Clusters/EDIP-Nigel-Params/Higher-Symm/Box-15A/Only-C60/SD-CG/HFTN-CG
REM
REM
REM
REM
REM
REM ./C.cell (414f73aa93bd7a1190c7fd0f31ff2f98)
REM
REM compiler GCC version 9.2.1 20190827 (Red Hat 9.2.1-1)
REM options -cpp -mtune=generic -march=x86-64 -g -O0 -fpre-include=/usr/include/finclude/math-vector-fortran.h
REM seed 1505940647 604834527 -1505194614 -460972795 -963291021 -397712933 -557374643 -1005986762 -356404965 1437427239 -1599831570 -1092911475 -1011344765 1324144034 -1931609979 604332164 -1037255049 1972237284 744345372 -1421426614 -1172072148 -528743360 76935305 2015144514 -224324268 -409388308 1037118910 -1198147118 343352590 909727430 1119633770 -508897533 -587665123
REM
CELL 1.54180   50.00000   50.00000   50.00000   90.00000   90.00000   90.00000
LATT -1
SFAC C  
C      1  0.5126530000000  0.5325030000000  0.4431370000000 1.0
C      1  0.5396280000000  0.5311590000000  0.5123110000000 1.0
C      1  0.4837200000000  0.5315690000000  0.5444270000000 1.0
C      1  0.4522580000000  0.5365280000000  0.4813750000000 1.0
C      1  0.5129850000000  0.5265600000000  0.5509610000000 1.0
C      1  0.5374350000000  0.5337420000000  0.4833480000000 1.0
C      1  0.4823830000000  0.5344370000000  0.4445180000000 1.0
C      1  0.4505500000000  0.5346770000000  0.5108760000000 1.0
C      1  0.5501320000000  0.5792210000000  0.5139720000000 1.0
C      1  0.4845360000000  0.5788360000000  0.5603270000000 1.0
C      1  0.4419630000000  0.5854720000000  0.4817830000000 1.0
C      1  0.5099350000000  0.5804760000000  0.4348140000000 1.0
C      1  0.5493180000000  0.5812270000000  0.4869140000000 1.0
C      1  0.4831380000000  0.5833610000000  0.4328330000000 1.0
C      1  0.4439220000000  0.5823330000000  0.5085530000000 1.0
C      1  0.5109520000000  0.5735430000000  0.5637000000000 1.0
C      1  0.4202780000000  0.4648740000000  0.4916710000000 1.0
C      1  0.5147610000000  0.4634360000000  0.4244420000000 1.0
C      1  0.5884500000000  0.4499130000000  0.5164130000000 1.0
C      1  0.4883370000000  0.4486500000000  0.5820180000000 1.0
C      1  0.4194700000000  0.4702590000000  0.5180430000000 1.0
C      1  0.5147990000000  0.4461390000000  0.5789280000000 1.0
C      1  0.5856610000000  0.4505020000000  0.4895900000000 1.0
C      1  0.4885190000000  0.4586510000000  0.4214030000000 1.0
C      1  0.4624870000000  0.4410410000000  0.4875380000000 1.0
C      1  0.5158780000000  0.4419830000000  0.4692330000000 1.0
C      1  0.5428800000000  0.4301340000000  0.5166950000000 1.0
C      1  0.4811510000000  0.4318320000000  0.5359740000000 1.0
C      1  0.4591010000000  0.4397440000000  0.5179630000000 1.0
C      1  0.5192820000000  0.4284270000000  0.5342170000000 1.0
C      1  0.5398230000000  0.4337260000000  0.4861930000000 1.0
C      1  0.4852910000000  0.4395530000000  0.4667570000000 1.0
C      1  0.4534930000000  0.5630620000000  0.4695570000000 1.0
C      1  0.5250640000000  0.5597650000000  0.4461050000000 1.0
C      1  0.5387590000000  0.5565480000000  0.5258570000000 1.0
C      1  0.4745020000000  0.5591860000000  0.5430370000000 1.0
C      1  0.4521550000000  0.5607630000000  0.5243200000000 1.0
C      1  0.5269170000000  0.5532900000000  0.5524640000000 1.0
C      1  0.5370420000000  0.5604250000000  0.4728480000000 1.0
C      1  0.4714040000000  0.5618670000000  0.4466820000000 1.0
C      1  0.5272800000000  0.4483840000000  0.5540870000000 1.0
C      1  0.4455980000000  0.4660630000000  0.5280120000000 1.0
C      1  0.4767150000000  0.4607500000000  0.4469840000000 1.0
C      1  0.5606080000000  0.4541550000000  0.4770930000000 1.0
C      1  0.5271680000000  0.4634090000000  0.4495280000000 1.0
C      1  0.4448060000000  0.4636110000000  0.4781010000000 1.0
C      1  0.4770590000000  0.4528820000000  0.5563500000000 1.0
C      1  0.5621960000000  0.4518260000000  0.5270450000000 1.0
C      1  0.4648280000000  0.4850920000000  0.4871180000000 1.0
C      1  0.5197740000000  0.4863090000000  0.4700300000000 1.0
C      1  0.5459470000000  0.4774380000000  0.5186800000000 1.0
C      1  0.4887620000000  0.4753340000000  0.5399440000000 1.0
C      1  0.4683940000000  0.4862380000000  0.5194700000000 1.0
C      1  0.5190120000000  0.4725370000000  0.5371690000000 1.0
C      1  0.5443680000000  0.4777100000000  0.4882430000000 1.0
C      1  0.4868810000000  0.4836840000000  0.4655530000000 1.0
C      1  0.5250980000000  0.5154880000000  0.4643150000000 1.0
C      1  0.5285010000000  0.5098080000000  0.5302630000000 1.0
C      1  0.4677470000000  0.5157880000000  0.5252480000000 1.0
C      1  0.4682470000000  0.5170070000000  0.4649720000000 1.0
END
