TITL C-9265-7156-79 1.07266328975004e-05 125000 -342.391293087723 0 0 60 (T23) n - 1
REM
REM in /home/bkarasulu/CARBON/AIRSS/Generating-Clusters/EDIP-Nigel-Params/Higher-Symm/Box-15A/Only-C60/SD-CG/HFTN-CG
REM
REM
REM
REM
REM
REM ./C.cell (414f73aa93bd7a1190c7fd0f31ff2f98)
REM
REM compiler GCC version 9.2.1 20190827 (Red Hat 9.2.1-1)
REM options -cpp -mtune=generic -march=x86-64 -g -O0 -fpre-include=/usr/include/finclude/math-vector-fortran.h
REM seed 45767418 950014949 -1698865454 2008476954 1814922533 -1002432484 -420191784 -1539057252 -1594304400 -1818990614 1890074122 -423236501 -1661655997 1542020652 1020797069 -78957439 -1464935515 108391363 1822736924 151547299 -1066311949 1016787056 -340648418 954821570 -1730270472 -1699654302 62120338 -628911096 -738813724 -588753561 -1655166736 899543405 1698211866
REM
CELL 1.54180   50.00000   50.00000   50.00000   90.00000   90.00000   90.00000
LATT -1
SFAC C  
C      1  0.4556290000000  0.5457220000000  0.4841730000000 1.0
C      1  0.4841700000000  0.4556290000000  0.5457210000000 1.0
C      1  0.5457110000000  0.4841640000000  0.4556220000000 1.0
C      1  0.5443870000000  0.5457090000000  0.5158180000000 1.0
C      1  0.4556140000000  0.4542940000000  0.5158300000000 1.0
C      1  0.5443700000000  0.4542750000000  0.4841800000000 1.0
C      1  0.5158140000000  0.4556140000000  0.4542880000000 1.0
C      1  0.4841830000000  0.5443770000000  0.4542800000000 1.0
C      1  0.5158330000000  0.5443800000000  0.5457110000000 1.0
C      1  0.4542830000000  0.4841890000000  0.5443820000000 1.0
C      1  0.5457200000000  0.5158200000000  0.5443750000000 1.0
C      1  0.4542860000000  0.5158270000000  0.4556210000000 1.0
C      1  0.5708680000000  0.4703510000000  0.4914080000000 1.0
C      1  0.4914180000000  0.5708720000000  0.4703580000000 1.0
C      1  0.4703660000000  0.4914190000000  0.5708760000000 1.0
C      1  0.4291210000000  0.4703780000000  0.5085980000000 1.0
C      1  0.5708790000000  0.5296240000000  0.5085880000000 1.0
C      1  0.4291310000000  0.5296470000000  0.4914060000000 1.0
C      1  0.5086070000000  0.5708750000000  0.5296280000000 1.0
C      1  0.4913950000000  0.4291310000000  0.5296430000000 1.0
C      1  0.5085800000000  0.4291220000000  0.4703720000000 1.0
C      1  0.5296310000000  0.4913940000000  0.4291260000000 1.0
C      1  0.4703640000000  0.5085910000000  0.4291260000000 1.0
C      1  0.5296390000000  0.5085950000000  0.5708720000000 1.0
C      1  0.4834980000000  0.5730610000000  0.5166450000000 1.0
C      1  0.5166520000000  0.4834900000000  0.5730580000000 1.0
C      1  0.5730590000000  0.5166380000000  0.4834810000000 1.0
C      1  0.5165270000000  0.5730520000000  0.4833400000000 1.0
C      1  0.4834720000000  0.4269450000000  0.4833560000000 1.0
C      1  0.5165030000000  0.4269420000000  0.5166590000000 1.0
C      1  0.4833420000000  0.4834800000000  0.4269460000000 1.0
C      1  0.5166530000000  0.5165050000000  0.4269410000000 1.0
C      1  0.4833530000000  0.5165250000000  0.5730560000000 1.0
C      1  0.4269470000000  0.5166670000000  0.5165160000000 1.0
C      1  0.5730540000000  0.4833360000000  0.5165140000000 1.0
C      1  0.4269400000000  0.4833590000000  0.4834890000000 1.0
C      1  0.4276540000000  0.5085390000000  0.4704830000000 1.0
C      1  0.4704690000000  0.4276590000000  0.5085380000000 1.0
C      1  0.5085220000000  0.4704730000000  0.4276560000000 1.0
C      1  0.5723490000000  0.5085190000000  0.5295150000000 1.0
C      1  0.4276520000000  0.4914870000000  0.5295210000000 1.0
C      1  0.5723450000000  0.4914550000000  0.4704800000000 1.0
C      1  0.5295050000000  0.4276470000000  0.4914770000000 1.0
C      1  0.4704940000000  0.5723510000000  0.4914640000000 1.0
C      1  0.5295310000000  0.5723430000000  0.5085210000000 1.0
C      1  0.4914680000000  0.4704910000000  0.5723500000000 1.0
C      1  0.5085370000000  0.5295240000000  0.5723440000000 1.0
C      1  0.4914740000000  0.5295120000000  0.4276500000000 1.0
C      1  0.5291620000000  0.5030990000000  0.5217720000000 1.0
C      1  0.5217780000000  0.5291580000000  0.5030990000000 1.0
C      1  0.5031070000000  0.5217750000000  0.5291590000000 1.0
C      1  0.4708390000000  0.5031050000000  0.4782280000000 1.0
C      1  0.5291600000000  0.4968900000000  0.4782270000000 1.0
C      1  0.4708390000000  0.4969050000000  0.5217740000000 1.0
C      1  0.4782320000000  0.5291650000000  0.4968950000000 1.0
C      1  0.5217680000000  0.4708350000000  0.4969000000000 1.0
C      1  0.4782220000000  0.4708430000000  0.5031060000000 1.0
C      1  0.4969010000000  0.5217700000000  0.4708370000000 1.0
C      1  0.5030980000000  0.4782240000000  0.4708410000000 1.0
C      1  0.4968950000000  0.4782310000000  0.5291630000000 1.0
END
