TITL C-9257-5531-246 -6.72599585258762e-07 125000 -363.371652049082 0 0 60 (C1) n - 1
REM
REM in /home/bkarasulu/CARBON/AIRSS/Generating-Clusters/EDIP-Nigel-Params/Higher-Symm/Box-15A/Only-C60/SD-CG/HFTN-CG
REM
REM
REM
REM
REM
REM ./C.cell (414f73aa93bd7a1190c7fd0f31ff2f98)
REM
REM compiler GCC version 9.2.1 20190827 (Red Hat 9.2.1-1)
REM options -cpp -mtune=generic -march=x86-64 -g -O0 -fpre-include=/usr/include/finclude/math-vector-fortran.h
REM seed 1376692209 -1432584112 -466120876 -415459087 -374585278 1871317790 132542105 406141554 -1622900903 -1981872026 112674561 -1198227822 744125305 372679838 2138593627 680108300 -1843573355 1288885899 -1451592248 332160792 -1631121872 1241860769 1467517703 -933393337 214308181 -185245490 1664629233 -1170027669 -2117203643 961810522 2001869016 -1514642542 2121474221
REM
CELL 1.54180   50.00000   50.00000   50.00000   90.00000   90.00000   90.00000
LATT -1
SFAC C  
C      1  0.4474810000000  0.4669490000000  0.5071640000000 1.0
C      1  0.4907790000000  0.5144270000000  0.4628200000000 1.0
C      1  0.4436560000000  0.4902890000000  0.4642190000000 1.0
C      1  0.4803670000000  0.5443790000000  0.4411210000000 1.0
C      1  0.4362800000000  0.4910010000000  0.5167540000000 1.0
C      1  0.4368990000000  0.5358190000000  0.4653430000000 1.0
C      1  0.4485220000000  0.5512770000000  0.4889450000000 1.0
C      1  0.4390510000000  0.5376250000000  0.5134550000000 1.0
C      1  0.4580280000000  0.4995350000000  0.4375850000000 1.0
C      1  0.5184200000000  0.5507140000000  0.5468520000000 1.0
C      1  0.5228440000000  0.4453200000000  0.5354670000000 1.0
C      1  0.4548190000000  0.5300610000000  0.4403770000000 1.0
C      1  0.4565130000000  0.4694060000000  0.5521690000000 1.0
C      1  0.5201990000000  0.5620600000000  0.5186570000000 1.0
C      1  0.5098780000000  0.4722760000000  0.4905280000000 1.0
C      1  0.4898480000000  0.5616320000000  0.5150280000000 1.0
C      1  0.5619770000000  0.4993530000000  0.4761190000000 1.0
C      1  0.4729900000000  0.4907240000000  0.5598950000000 1.0
C      1  0.5035700000000  0.5007060000000  0.4962620000000 1.0
C      1  0.5281460000000  0.5097230000000  0.4157520000000 1.0
C      1  0.4815130000000  0.4197240000000  0.4794770000000 1.0
C      1  0.5491380000000  0.4470850000000  0.5256250000000 1.0
C      1  0.5701870000000  0.5187610000000  0.5237730000000 1.0
C      1  0.4654300000000  0.5267260000000  0.5249200000000 1.0
C      1  0.4875120000000  0.4533640000000  0.4962160000000 1.0
C      1  0.5373600000000  0.5433640000000  0.4748580000000 1.0
C      1  0.4648500000000  0.5120970000000  0.4795210000000 1.0
C      1  0.5457720000000  0.5185190000000  0.4337950000000 1.0
C      1  0.5636400000000  0.4745440000000  0.4617920000000 1.0
C      1  0.4712810000000  0.4456990000000  0.4689150000000 1.0
C      1  0.4763650000000  0.4314730000000  0.5316220000000 1.0
C      1  0.5034980000000  0.4995880000000  0.4177410000000 1.0
C      1  0.4663230000000  0.5187450000000  0.5535820000000 1.0
C      1  0.5188000000000  0.4618510000000  0.5593970000000 1.0
C      1  0.4874790000000  0.4948040000000  0.4399620000000 1.0
C      1  0.4906400000000  0.5583010000000  0.4639820000000 1.0
C      1  0.5619320000000  0.4692120000000  0.5163990000000 1.0
C      1  0.4214900000000  0.5108380000000  0.4747880000000 1.0
C      1  0.5266400000000  0.4654390000000  0.4683040000000 1.0
C      1  0.5584830000000  0.5176380000000  0.5507700000000 1.0
C      1  0.5041390000000  0.4189550000000  0.4975540000000 1.0
C      1  0.5611080000000  0.4927560000000  0.5634390000000 1.0
C      1  0.5595880000000  0.4961290000000  0.5062110000000 1.0
C      1  0.4776700000000  0.5533490000000  0.4894980000000 1.0
C      1  0.5291580000000  0.5227370000000  0.5457070000000 1.0
C      1  0.5030270000000  0.4255820000000  0.5257880000000 1.0
C      1  0.5183200000000  0.5600820000000  0.4639270000000 1.0
C      1  0.4872590000000  0.5506800000000  0.5455090000000 1.0
C      1  0.5478100000000  0.5203160000000  0.4613180000000 1.0
C      1  0.5152970000000  0.5075470000000  0.5652520000000 1.0
C      1  0.4726200000000  0.5027050000000  0.5076500000000 1.0
C      1  0.5653420000000  0.5440930000000  0.5126420000000 1.0
C      1  0.5375640000000  0.5418280000000  0.5040170000000 1.0
C      1  0.5504820000000  0.4511990000000  0.4689360000000 1.0
C      1  0.5264870000000  0.5143170000000  0.5143150000000 1.0
C      1  0.4588280000000  0.4529410000000  0.5298220000000 1.0
C      1  0.5440470000000  0.4719880000000  0.5672610000000 1.0
C      1  0.4488380000000  0.4629840000000  0.4781060000000 1.0
C      1  0.5012130000000  0.4853590000000  0.5581880000000 1.0
C      1  0.4226040000000  0.5134050000000  0.5049110000000 1.0
END
