TITL C-9265-7156-356 -2.1165303890515e-06 125000 -368.360299120346 0 0 60 (C1) n - 1
REM
REM in /home/bkarasulu/CARBON/AIRSS/Generating-Clusters/EDIP-Nigel-Params/Higher-Symm/Box-15A/Only-C60/SD-CG/HFTN-CG
REM
REM
REM
REM
REM
REM ./C.cell (414f73aa93bd7a1190c7fd0f31ff2f98)
REM
REM compiler GCC version 9.2.1 20190827 (Red Hat 9.2.1-1)
REM options -cpp -mtune=generic -march=x86-64 -g -O0 -fpre-include=/usr/include/finclude/math-vector-fortran.h
REM seed -1085897912 -1182091068 739555576 451914149 -1947314255 -2110009694 -1554455367 -638815500 -1130109142 1767019443 -492625894 1271318481 1401442398 -278967717 -1097722302 -515983539 -1569106646 442458922 -163661024 879873308 807652851 -1700778548 1621982712 1719943362 1337761335 1031071809 1743190979 319369487 -850444845 -1939288191 421326215 -1178778953 1203442233
REM
CELL 1.54180   50.00000   50.00000   50.00000   90.00000   90.00000   90.00000
LATT -1
SFAC C  
C      1  0.5433370000000  0.4743220000000  0.4570530000000 1.0
C      1  0.5518990000000  0.4621080000000  0.4829800000000 1.0
C      1  0.5582390000000  0.4813010000000  0.5295160000000 1.0
C      1  0.5475130000000  0.5044790000000  0.5435340000000 1.0
C      1  0.5541860000000  0.5301690000000  0.5294110000000 1.0
C      1  0.5600250000000  0.5336310000000  0.5002550000000 1.0
C      1  0.5543920000000  0.5030420000000  0.4565420000000 1.0
C      1  0.4997850000000  0.4459620000000  0.5535750000000 1.0
C      1  0.5003690000000  0.5043340000000  0.5705070000000 1.0
C      1  0.4937880000000  0.5621630000000  0.5371690000000 1.0
C      1  0.5000550000000  0.5722060000000  0.4791250000000 1.0
C      1  0.5023110000000  0.5244240000000  0.4273410000000 1.0
C      1  0.4983590000000  0.4608200000000  0.4353770000000 1.0
C      1  0.4998570000000  0.4226880000000  0.4905590000000 1.0
C      1  0.4538300000000  0.5168480000000  0.5590920000000 1.0
C      1  0.4503340000000  0.5563660000000  0.5206940000000 1.0
C      1  0.4586560000000  0.5502810000000  0.4692340000000 1.0
C      1  0.4592720000000  0.5074450000000  0.4410500000000 1.0
C      1  0.4557840000000  0.4574000000000  0.4569590000000 1.0
C      1  0.4569310000000  0.4391060000000  0.5063530000000 1.0
C      1  0.4555120000000  0.4652910000000  0.5521560000000 1.0
C      1  0.5134850000000  0.5458370000000  0.5214790000000 1.0
C      1  0.5202970000000  0.5516690000000  0.4903660000000 1.0
C      1  0.5179710000000  0.5249800000000  0.4761270000000 1.0
C      1  0.5012160000000  0.4808090000000  0.4914510000000 1.0
C      1  0.5096250000000  0.4565290000000  0.5074550000000 1.0
C      1  0.5177190000000  0.4643060000000  0.5371500000000 1.0
C      1  0.5060730000000  0.5128960000000  0.5215500000000 1.0
C      1  0.4790380000000  0.5250760000000  0.5688560000000 1.0
C      1  0.4722770000000  0.5738640000000  0.5220180000000 1.0
C      1  0.4820910000000  0.5618630000000  0.4584100000000 1.0
C      1  0.4808720000000  0.5056570000000  0.4234850000000 1.0
C      1  0.4778190000000  0.4430780000000  0.4469910000000 1.0
C      1  0.4799050000000  0.4243800000000  0.5118440000000 1.0
C      1  0.4785110000000  0.4600780000000  0.5678220000000 1.0
C      1  0.4498440000000  0.4762170000000  0.4766240000000 1.0
C      1  0.4508640000000  0.4661620000000  0.5039530000000 1.0
C      1  0.4474550000000  0.4798810000000  0.5295070000000 1.0
C      1  0.4469760000000  0.5089940000000  0.5330610000000 1.0
C      1  0.4472560000000  0.5299450000000  0.5121530000000 1.0
C      1  0.4509200000000  0.5274170000000  0.4834140000000 1.0
C      1  0.4523070000000  0.5035140000000  0.4677070000000 1.0
C      1  0.4894320000000  0.4814100000000  0.5818630000000 1.0
C      1  0.4867580000000  0.5505520000000  0.5612700000000 1.0
C      1  0.4835450000000  0.5835890000000  0.4985410000000 1.0
C      1  0.4948660000000  0.5490860000000  0.4371920000000 1.0
C      1  0.4881530000000  0.4795960000000  0.4172980000000 1.0
C      1  0.4888850000000  0.4248180000000  0.4648350000000 1.0
C      1  0.4894580000000  0.4255320000000  0.5377580000000 1.0
C      1  0.5142510000000  0.4730390000000  0.4561380000000 1.0
C      1  0.5324390000000  0.4434310000000  0.4934500000000 1.0
C      1  0.5460890000000  0.4578260000000  0.5397730000000 1.0
C      1  0.5171470000000  0.4975920000000  0.5451390000000 1.0
C      1  0.5373130000000  0.5506870000000  0.5376560000000 1.0
C      1  0.5492180000000  0.5576230000000  0.4880490000000 1.0
C      1  0.5320480000000  0.5217130000000  0.4512030000000 1.0
C      1  0.5672420000000  0.5084770000000  0.4853980000000 1.0
C      1  0.5239230000000  0.5023800000000  0.4955430000000 1.0
C      1  0.4821280000000  0.4976150000000  0.5088020000000 1.0
C      1  0.5524190000000  0.4868390000000  0.5001930000000 1.0
END
