TITL C-9263-351-346 2.21644947754813e-05 125000 -357.492182620925 0 0 60 (C1) n - 1
REM
REM in /home/bkarasulu/CARBON/AIRSS/Generating-Clusters/EDIP-Nigel-Params/Higher-Symm/Box-15A/Only-C60/SD-CG/HFTN-CG
REM
REM
REM
REM
REM
REM ./C.cell (414f73aa93bd7a1190c7fd0f31ff2f98)
REM
REM compiler GCC version 9.2.1 20190827 (Red Hat 9.2.1-1)
REM options -cpp -mtune=generic -march=x86-64 -g -O0 -fpre-include=/usr/include/finclude/math-vector-fortran.h
REM seed -653101335 -1094016401 831158930 143021517 -1615850916 -440833749 1317300381 2070849815 -18872423 1721356891 122109523 -1156068259 2088643142 989328613 -1267031801 -509143256 -1895618317 -835516089 1872397254 1865477728 -975798014 407885327 -1521285648 -1213437569 -1639686665 1177951169 -669073649 -980945718 1562344126 1664954619 1191181803 -1666583010 314454163
REM
CELL 1.54180   50.00000   50.00000   50.00000   90.00000   90.00000   90.00000
LATT -1
SFAC C  
C      1  0.4507520000000  0.5346920000000  0.5139300000000 1.0
C      1  0.4685420000000  0.4638680000000  0.4843800000000 1.0
C      1  0.5478810000000  0.5259910000000  0.5199170000000 1.0
C      1  0.5502580000000  0.4797240000000  0.4648520000000 1.0
C      1  0.4634470000000  0.5219270000000  0.4745720000000 1.0
C      1  0.4579730000000  0.4808590000000  0.5218830000000 1.0
C      1  0.5414570000000  0.5288660000000  0.4793100000000 1.0
C      1  0.5530650000000  0.4657120000000  0.5247310000000 1.0
C      1  0.5128510000000  0.5180240000000  0.5807010000000 1.0
C      1  0.5058160000000  0.4864070000000  0.4256830000000 1.0
C      1  0.4839770000000  0.5156540000000  0.5780440000000 1.0
C      1  0.4824240000000  0.4728760000000  0.4188010000000 1.0
C      1  0.5047350000000  0.5162300000000  0.4263070000000 1.0
C      1  0.5096020000000  0.4798140000000  0.5824930000000 1.0
C      1  0.4808530000000  0.5286950000000  0.4187470000000 1.0
C      1  0.4812050000000  0.4861480000000  0.5796560000000 1.0
C      1  0.4867930000000  0.4382930000000  0.4532780000000 1.0
C      1  0.4877600000000  0.5551200000000  0.5463330000000 1.0
C      1  0.5161950000000  0.4419480000000  0.4512070000000 1.0
C      1  0.5143260000000  0.5473380000000  0.5393590000000 1.0
C      1  0.4785450000000  0.4464950000000  0.5472420000000 1.0
C      1  0.4807740000000  0.5591890000000  0.4578360000000 1.0
C      1  0.5075130000000  0.4474550000000  0.5451330000000 1.0
C      1  0.5101200000000  0.5539210000000  0.4608160000000 1.0
C      1  0.4667570000000  0.5673870000000  0.4812320000000 1.0
C      1  0.4657340000000  0.4346370000000  0.5252520000000 1.0
C      1  0.5261150000000  0.5682950000000  0.4819320000000 1.0
C      1  0.5201980000000  0.4328980000000  0.5250360000000 1.0
C      1  0.4744970000000  0.5718500000000  0.5282350000000 1.0
C      1  0.4769640000000  0.4261250000000  0.4778000000000 1.0
C      1  0.5274830000000  0.5649610000000  0.5206550000000 1.0
C      1  0.5302370000000  0.4333100000000  0.4762390000000 1.0
C      1  0.5226860000000  0.5358700000000  0.4399550000000 1.0
C      1  0.5223140000000  0.4675810000000  0.5602270000000 1.0
C      1  0.4656940000000  0.5395760000000  0.4402820000000 1.0
C      1  0.4652490000000  0.4708830000000  0.5589580000000 1.0
C      1  0.5280290000000  0.5302840000000  0.5591930000000 1.0
C      1  0.5262400000000  0.4682630000000  0.4379230000000 1.0
C      1  0.4729420000000  0.5309550000000  0.5547900000000 1.0
C      1  0.4693830000000  0.4580930000000  0.4390830000000 1.0
C      1  0.4558820000000  0.4749910000000  0.4589420000000 1.0
C      1  0.4476540000000  0.5241720000000  0.5405240000000 1.0
C      1  0.5516730000000  0.4972700000000  0.4428110000000 1.0
C      1  0.5501190000000  0.5148140000000  0.5476620000000 1.0
C      1  0.4423770000000  0.4957640000000  0.5406020000000 1.0
C      1  0.4587730000000  0.5034000000000  0.4536620000000 1.0
C      1  0.5476280000000  0.4787660000000  0.5500480000000 1.0
C      1  0.5481940000000  0.5248520000000  0.4498400000000 1.0
C      1  0.5142010000000  0.5167440000000  0.4850270000000 1.0
C      1  0.5365810000000  0.4811270000000  0.5070860000000 1.0
C      1  0.4878130000000  0.5296500000000  0.4901440000000 1.0
C      1  0.4846700000000  0.4899590000000  0.5160190000000 1.0
C      1  0.5250420000000  0.5077520000000  0.5119680000000 1.0
C      1  0.5258680000000  0.4714310000000  0.4820910000000 1.0
C      1  0.4862420000000  0.5198400000000  0.5194790000000 1.0
C      1  0.4950490000000  0.4774310000000  0.4911310000000 1.0
C      1  0.5382540000000  0.4368200000000  0.5042470000000 1.0
C      1  0.4584770000000  0.5618640000000  0.5077630000000 1.0
C      1  0.4598170000000  0.4370280000000  0.4980060000000 1.0
C      1  0.5482990000000  0.5601150000000  0.5009450000000 1.0
END
