TITL C-9266-5713-281 -1.62842386076115e-05 125000 -369.564988167633 0 0 60 (C1) n - 1
REM
REM in /home/bkarasulu/CARBON/AIRSS/Generating-Clusters/EDIP-Nigel-Params/Higher-Symm/Box-15A/Only-C60/SD-CG/HFTN-CG
REM
REM
REM
REM
REM
REM ./C.cell (414f73aa93bd7a1190c7fd0f31ff2f98)
REM
REM compiler GCC version 9.2.1 20190827 (Red Hat 9.2.1-1)
REM options -cpp -mtune=generic -march=x86-64 -g -O0 -fpre-include=/usr/include/finclude/math-vector-fortran.h
REM seed -1957904726 -381398594 1835089606 1684018360 -1026874624 -1749606305 867636834 1083478059 944356241 -166018085 -1977292856 1883593813 842792185 -1852059382 -392997249 335876573 -767808336 -1818088165 -1174973134 229922869 -439268530 1895740910 717641968 1156994371 1555768567 -836232696 -345990514 -481171147 -2142499194 1756624781 850943399 -150985789 -1737906271
REM
CELL 1.54180   50.00000   50.00000   50.00000   90.00000   90.00000   90.00000
LATT -1
SFAC C  
C      1  0.4893270000000  0.5470580000000  0.4679960000000 1.0
C      1  0.4875270000000  0.5026570000000  0.5530620000000 1.0
C      1  0.4890460000000  0.4447430000000  0.4754390000000 1.0
C      1  0.5153950000000  0.4463330000000  0.4633070000000 1.0
C      1  0.5095810000000  0.4831750000000  0.5448630000000 1.0
C      1  0.5096650000000  0.5454650000000  0.4890500000000 1.0
C      1  0.4678150000000  0.4446690000000  0.5451410000000 1.0
C      1  0.4644640000000  0.4879400000000  0.4317340000000 1.0
C      1  0.4609730000000  0.5651170000000  0.5228800000000 1.0
C      1  0.5355370000000  0.5490720000000  0.5397750000000 1.0
C      1  0.5386940000000  0.5075880000000  0.4292010000000 1.0
C      1  0.5390280000000  0.4332360000000  0.5272360000000 1.0
C      1  0.5572030000000  0.5461630000000  0.4973400000000 1.0
C      1  0.5552060000000  0.4726650000000  0.5385810000000 1.0
C      1  0.5322960000000  0.4890290000000  0.4693530000000 1.0
C      1  0.4617180000000  0.4759940000000  0.5043640000000 1.0
C      1  0.4443270000000  0.5229410000000  0.5404490000000 1.0
C      1  0.4466760000000  0.5225290000000  0.4610270000000 1.0
C      1  0.4634930000000  0.5365550000000  0.4820940000000 1.0
C      1  0.4594870000000  0.4978060000000  0.5429410000000 1.0
C      1  0.4744610000000  0.4720350000000  0.4743180000000 1.0
C      1  0.5310100000000  0.4620690000000  0.4837310000000 1.0
C      1  0.5371210000000  0.4961740000000  0.5455860000000 1.0
C      1  0.5373160000000  0.5294420000000  0.4793190000000 1.0
C      1  0.4899740000000  0.5308160000000  0.5390030000000 1.0
C      1  0.4958500000000  0.4475380000000  0.5067990000000 1.0
C      1  0.4924580000000  0.5216960000000  0.4502590000000 1.0
C      1  0.5134740000000  0.4564730000000  0.5607420000000 1.0
C      1  0.5152090000000  0.5717380000000  0.5034750000000 1.0
C      1  0.5158420000000  0.4630160000000  0.4365120000000 1.0
C      1  0.5698700000000  0.4746320000000  0.5110200000000 1.0
C      1  0.5691130000000  0.5052680000000  0.4676700000000 1.0
C      1  0.5640730000000  0.5226320000000  0.5135840000000 1.0
C      1  0.4314540000000  0.5267100000000  0.5142150000000 1.0
C      1  0.4336900000000  0.4973110000000  0.4691440000000 1.0
C      1  0.4266230000000  0.4749880000000  0.5185570000000 1.0
C      1  0.5422520000000  0.5657360000000  0.5153340000000 1.0
C      1  0.5415790000000  0.4484530000000  0.5522370000000 1.0
C      1  0.5404210000000  0.4799730000000  0.4407530000000 1.0
C      1  0.4675820000000  0.4480670000000  0.5164820000000 1.0
C      1  0.4638440000000  0.5446320000000  0.5435820000000 1.0
C      1  0.4648020000000  0.5168350000000  0.4389540000000 1.0
C      1  0.4433670000000  0.4735430000000  0.5428260000000 1.0
C      1  0.4511900000000  0.4756690000000  0.4557620000000 1.0
C      1  0.4460160000000  0.5505990000000  0.5018090000000 1.0
C      1  0.5419070000000  0.5215040000000  0.5318800000000 1.0
C      1  0.5520360000000  0.5242070000000  0.4512510000000 1.0
C      1  0.5506560000000  0.4520470000000  0.5050090000000 1.0
C      1  0.5096530000000  0.4268880000000  0.5246220000000 1.0
C      1  0.5093290000000  0.5124130000000  0.4249600000000 1.0
C      1  0.5072320000000  0.5546110000000  0.5463180000000 1.0
C      1  0.4969690000000  0.5748420000000  0.5265400000000 1.0
C      1  0.4951450000000  0.4840350000000  0.4268230000000 1.0
C      1  0.4953140000000  0.4345060000000  0.5509900000000 1.0
C      1  0.4925360000000  0.5269000000000  0.5072570000000 1.0
C      1  0.5043130000000  0.4767880000000  0.5156770000000 1.0
C      1  0.4999440000000  0.4960750000000  0.4695570000000 1.0
C      1  0.5651350000000  0.4997090000000  0.4963770000000 1.0
C      1  0.4305000000000  0.4988960000000  0.5000390000000 1.0
C      1  0.4981120000000  0.4999760000000  0.4989540000000 1.0
END
