TITL C-9256-7861-238 -4.28572334012691e-06 125000 -361.888486020192 0 0 60 (C5) n - 1
REM
REM in /home/bkarasulu/CARBON/AIRSS/Generating-Clusters/EDIP-Nigel-Params/Higher-Symm/Box-15A/Only-C60/SD-CG/HFTN-CG
REM
REM
REM
REM
REM
REM ./C.cell (414f73aa93bd7a1190c7fd0f31ff2f98)
REM
REM compiler GCC version 9.2.1 20190827 (Red Hat 9.2.1-1)
REM options -cpp -mtune=generic -march=x86-64 -g -O0 -fpre-include=/usr/include/finclude/math-vector-fortran.h
REM seed 991619249 425767458 1659755104 -140037162 -1351474345 1282213980 -576999795 1417346476 1458041463 1145955229 -1322843088 -1169272371 647172962 -979513804 -420630335 -599072151 -1735697352 1310801804 475654806 1552284997 -453628330 17738250 960145865 320813233 823012399 -992182443 -1450930924 1293206598 -1543957556 2123650518 149069389 -232653051 -1736668998
REM
CELL 1.54180   50.00000   50.00000   50.00000   90.00000   90.00000   90.00000
LATT -1
SFAC C  
C      1  0.4529450000000  0.5120730000000  0.5522820000000 1.0
C      1  0.4532740000000  0.4538460000000  0.5279260000000 1.0
C      1  0.4532000000000  0.4590170000000  0.4650220000000 1.0
C      1  0.4528260000000  0.5204390000000  0.4505010000000 1.0
C      1  0.4526680000000  0.5532290000000  0.5044300000000 1.0
C      1  0.5216230000000  0.5249210000000  0.5129980000000 1.0
C      1  0.5218080000000  0.4954150000000  0.5275850000000 1.0
C      1  0.5219280000000  0.4724240000000  0.5040300000000 1.0
C      1  0.5218170000000  0.4877210000000  0.4748850000000 1.0
C      1  0.5216290000000  0.5201660000000  0.4804280000000 1.0
C      1  0.5627610000000  0.4831650000000  0.5176930000000 1.0
C      1  0.5627710000000  0.4781880000000  0.4890730000000 1.0
C      1  0.5626090000000  0.5038680000000  0.4754950000000 1.0
C      1  0.5624990000000  0.5247170000000  0.4957230000000 1.0
C      1  0.5625930000000  0.5119220000000  0.5218030000000 1.0
C      1  0.4654350000000  0.4901470000000  0.5678220000000 1.0
C      1  0.4657400000000  0.4323340000000  0.5117990000000 1.0
C      1  0.4654800000000  0.4677480000000  0.4395030000000 1.0
C      1  0.4650150000000  0.5474490000000  0.4508440000000 1.0
C      1  0.4649870000000  0.5612920000000  0.5301490000000 1.0
C      1  0.5125310000000  0.4606810000000  0.4477350000000 1.0
C      1  0.5120740000000  0.5375980000000  0.4463790000000 1.0
C      1  0.5119750000000  0.5626570000000  0.5191140000000 1.0
C      1  0.5123710000000  0.5012270000000  0.5654220000000 1.0
C      1  0.5127150000000  0.4382020000000  0.5213080000000 1.0
C      1  0.4866230000000  0.4879690000000  0.5249720000000 1.0
C      1  0.4866950000000  0.4724860000000  0.4963570000000 1.0
C      1  0.4865460000000  0.4949160000000  0.4727890000000 1.0
C      1  0.4863810000000  0.5242610000000  0.4868390000000 1.0
C      1  0.4864290000000  0.5199680000000  0.5190900000000 1.0
C      1  0.5518420000000  0.5245070000000  0.5441150000000 1.0
C      1  0.5521850000000  0.4657970000000  0.5366220000000 1.0
C      1  0.5522110000000  0.4547810000000  0.4784700000000 1.0
C      1  0.5518830000000  0.5066820000000  0.4500230000000 1.0
C      1  0.5516550000000  0.5497750000000  0.4905940000000 1.0
C      1  0.5276560000000  0.4543000000000  0.5433330000000 1.0
C      1  0.5276620000000  0.4447610000000  0.4697590000000 1.0
C      1  0.5272430000000  0.5117850000000  0.4379510000000 1.0
C      1  0.5269770000000  0.5627470000000  0.4918670000000 1.0
C      1  0.5272320000000  0.5272190000000  0.5569970000000 1.0
C      1  0.4798040000000  0.4707080000000  0.5504740000000 1.0
C      1  0.4799260000000  0.4428750000000  0.4878630000000 1.0
C      1  0.4795930000000  0.4938190000000  0.4420440000000 1.0
C      1  0.4792640000000  0.5531380000000  0.4763370000000 1.0
C      1  0.4793940000000  0.5388550000000  0.5433510000000 1.0
C      1  0.5091110000000  0.4333760000000  0.4899320000000 1.0
C      1  0.5087420000000  0.4890170000000  0.4334710000000 1.0
C      1  0.5083450000000  0.5599080000000  0.4689420000000 1.0
C      1  0.5084690000000  0.5480800000000  0.5473260000000 1.0
C      1  0.5089420000000  0.4698790000000  0.5602990000000 1.0
C      1  0.4858490000000  0.4320190000000  0.5321940000000 1.0
C      1  0.4856930000000  0.4483250000000  0.4453830000000 1.0
C      1  0.4851650000000  0.5359240000000  0.4340650000000 1.0
C      1  0.4849950000000  0.5737580000000  0.5138800000000 1.0
C      1  0.4854180000000  0.5095420000000  0.5745280000000 1.0
C      1  0.4452820000000  0.5101440000000  0.4774810000000 1.0
C      1  0.4452150000000  0.5243620000000  0.5030230000000 1.0
C      1  0.4453470000000  0.5044650000000  0.5244390000000 1.0
C      1  0.4454960000000  0.4779490000000  0.5121330000000 1.0
C      1  0.4454560000000  0.4814580000000  0.4831110000000 1.0
END
