TITL C-9265-7156-131 4.21781912995253e-05 125000 -356.701391794937 0 0 60 (C1) n - 1
REM
REM in /home/bkarasulu/CARBON/AIRSS/Generating-Clusters/EDIP-Nigel-Params/Higher-Symm/Box-15A/Only-C60/SD-CG/HFTN-CG
REM
REM
REM
REM
REM
REM ./C.cell (414f73aa93bd7a1190c7fd0f31ff2f98)
REM
REM compiler GCC version 9.2.1 20190827 (Red Hat 9.2.1-1)
REM options -cpp -mtune=generic -march=x86-64 -g -O0 -fpre-include=/usr/include/finclude/math-vector-fortran.h
REM seed 1279502840 -1358184898 -2006436187 1996974797 -154374867 -796811877 -641246834 -67725852 221257316 113236908 2008144145 -112581068 -278345776 -1740183432 -834153039 1526667601 -1935546376 -1560884697 803849116 -1494999065 -1008099385 735422257 -1226276900 215429107 -724211573 1375726813 1569864089 3894086 722126604 913848925 1211922368 985460190 2017827924
REM
CELL 1.54180   50.00000   50.00000   50.00000   90.00000   90.00000   90.00000
LATT -1
SFAC C  
C      1  0.4567050000000  0.5468560000000  0.5229330000000 1.0
C      1  0.5445660000000  0.4555200000000  0.4778060000000 1.0
C      1  0.5299210000000  0.5010200000000  0.5659030000000 1.0
C      1  0.4738200000000  0.4997670000000  0.4307850000000 1.0
C      1  0.4712470000000  0.5219350000000  0.4677440000000 1.0
C      1  0.5230440000000  0.4767790000000  0.5303800000000 1.0
C      1  0.4985170000000  0.5355370000000  0.4587820000000 1.0
C      1  0.4969570000000  0.4631330000000  0.5413890000000 1.0
C      1  0.5064240000000  0.4587970000000  0.5786490000000 1.0
C      1  0.4968660000000  0.5419550000000  0.4206060000000 1.0
C      1  0.5248760000000  0.4477000000000  0.4976480000000 1.0
C      1  0.4738390000000  0.5518170000000  0.5002370000000 1.0
C      1  0.4418710000000  0.4793790000000  0.4937970000000 1.0
C      1  0.5481370000000  0.5176490000000  0.5116750000000 1.0
C      1  0.5611820000000  0.5380870000000  0.5537720000000 1.0
C      1  0.4471180000000  0.4710080000000  0.4515520000000 1.0
C      1  0.4523780000000  0.4674040000000  0.5179930000000 1.0
C      1  0.5400520000000  0.5252440000000  0.4846450000000 1.0
C      1  0.4952640000000  0.5326130000000  0.5030340000000 1.0
C      1  0.5025440000000  0.4669850000000  0.4978190000000 1.0
C      1  0.4868980000000  0.5809070000000  0.4638170000000 1.0
C      1  0.5124700000000  0.4200260000000  0.5350350000000 1.0
C      1  0.4794570000000  0.4553940000000  0.5155420000000 1.0
C      1  0.5159090000000  0.5409650000000  0.4840220000000 1.0
C      1  0.5252260000000  0.4835960000000  0.4592720000000 1.0
C      1  0.4750380000000  0.5196940000000  0.5441320000000 1.0
C      1  0.4545960000000  0.4816390000000  0.5672290000000 1.0
C      1  0.5473370000000  0.5209800000000  0.4366090000000 1.0
C      1  0.5036910000000  0.4886430000000  0.5761610000000 1.0
C      1  0.4997650000000  0.5121780000000  0.4223250000000 1.0
C      1  0.4877340000000  0.4531140000000  0.4532970000000 1.0
C      1  0.5163160000000  0.5476630000000  0.5447580000000 1.0
C      1  0.4440370000000  0.4753210000000  0.5432460000000 1.0
C      1  0.5563410000000  0.5251290000000  0.4619060000000 1.0
C      1  0.4779710000000  0.4962770000000  0.5625640000000 1.0
C      1  0.5238130000000  0.5057230000000  0.4390910000000 1.0
C      1  0.4809500000000  0.4283650000000  0.5008560000000 1.0
C      1  0.5199050000000  0.5689510000000  0.4954920000000 1.0
C      1  0.5044130000000  0.4379010000000  0.5560000000000 1.0
C      1  0.4934140000000  0.5612690000000  0.4441140000000 1.0
C      1  0.4977300000000  0.4755430000000  0.4701530000000 1.0
C      1  0.5012000000000  0.5265020000000  0.5303990000000 1.0
C      1  0.5106990000000  0.4225480000000  0.5065730000000 1.0
C      1  0.4897900000000  0.5764670000000  0.4918120000000 1.0
C      1  0.4323650000000  0.5243410000000  0.4714010000000 1.0
C      1  0.5687790000000  0.4773280000000  0.5293180000000 1.0
C      1  0.5238070000000  0.5069260000000  0.5278090000000 1.0
C      1  0.4717870000000  0.4916600000000  0.4721350000000 1.0
C      1  0.5476050000000  0.4733530000000  0.5465950000000 1.0
C      1  0.4489830000000  0.5237310000000  0.4471030000000 1.0
C      1  0.4440900000000  0.5215940000000  0.5216280000000 1.0
C      1  0.5569690000000  0.4809190000000  0.4811460000000 1.0
C      1  0.4386870000000  0.5092780000000  0.4956710000000 1.0
C      1  0.5655370000000  0.4934670000000  0.5065770000000 1.0
C      1  0.5349720000000  0.5315990000000  0.5627320000000 1.0
C      1  0.4698580000000  0.4700210000000  0.4338570000000 1.0
C      1  0.5565490000000  0.5437030000000  0.5262680000000 1.0
C      1  0.4459380000000  0.4495950000000  0.4702080000000 1.0
C      1  0.5330650000000  0.5642650000000  0.5247320000000 1.0
C      1  0.4709830000000  0.4342410000000  0.4712620000000 1.0
END
