TITL C-9261-551-230 -3.25620756629429e-06 125000 -374.268000944421 0 0 60 (C1) n - 1
REM
REM in /home/bkarasulu/CARBON/AIRSS/Generating-Clusters/EDIP-Nigel-Params/Higher-Symm/Box-15A/Only-C60/SD-CG/HFTN-CG
REM
REM
REM
REM
REM
REM ./C.cell (414f73aa93bd7a1190c7fd0f31ff2f98)
REM
REM compiler GCC version 9.2.1 20190827 (Red Hat 9.2.1-1)
REM options -cpp -mtune=generic -march=x86-64 -g -O0 -fpre-include=/usr/include/finclude/math-vector-fortran.h
REM seed -615178822 -895104920 365404368 409333881 -1457252934 1986878906 -1730203472 2111198247 1932576213 611051096 173743599 768569802 1952430008 1151632470 -719452029 -1976195595 -1247000678 -2016524116 22178310 1091591598 -317908120 1359337151 402192759 1993524054 -946922573 -780709922 -1362820835 1752921942 -541721779 1138784212 -127812253 1990901005 1322716822
REM
CELL 1.54180   50.00000   50.00000   50.00000   90.00000   90.00000   90.00000
LATT -1
SFAC C  
C      1  0.4825150000000  0.5793770000000  0.5183750000000 1.0
C      1  0.4832940000000  0.5056040000000  0.5786780000000 1.0
C      1  0.4826720000000  0.4253100000000  0.5337580000000 1.0
C      1  0.4800210000000  0.4503350000000  0.4408950000000 1.0
C      1  0.4830950000000  0.5417890000000  0.4302810000000 1.0
C      1  0.5078920000000  0.4949040000000  0.4730880000000 1.0
C      1  0.5112470000000  0.5231980000000  0.4867830000000 1.0
C      1  0.5099950000000  0.5195700000000  0.5190330000000 1.0
C      1  0.5104340000000  0.4874890000000  0.5248410000000 1.0
C      1  0.5093830000000  0.4728500000000  0.4964850000000 1.0
C      1  0.5321600000000  0.4735690000000  0.5604470000000 1.0
C      1  0.5290750000000  0.4352770000000  0.4941690000000 1.0
C      1  0.5302180000000  0.4856410000000  0.4359280000000 1.0
C      1  0.5307940000000  0.5560530000000  0.4655250000000 1.0
C      1  0.5308150000000  0.5492240000000  0.5422320000000 1.0
C      1  0.4429520000000  0.4726760000000  0.4592380000000 1.0
C      1  0.4450880000000  0.5284680000000  0.4577790000000 1.0
C      1  0.4427950000000  0.5510980000000  0.5162600000000 1.0
C      1  0.4457330000000  0.4992230000000  0.5511090000000 1.0
C      1  0.4447180000000  0.4536070000000  0.5207510000000 1.0
C      1  0.4358620000000  0.5015740000000  0.5254950000000 1.0
C      1  0.4362920000000  0.4778870000000  0.5094710000000 1.0
C      1  0.4362320000000  0.4869100000000  0.4818590000000 1.0
C      1  0.4359750000000  0.5155220000000  0.4807440000000 1.0
C      1  0.4385440000000  0.5246700000000  0.5080850000000 1.0
C      1  0.5254930000000  0.4467630000000  0.5226040000000 1.0
C      1  0.5242510000000  0.4635130000000  0.4562780000000 1.0
C      1  0.5261690000000  0.5292850000000  0.4510230000000 1.0
C      1  0.5256340000000  0.5551380000000  0.5124220000000 1.0
C      1  0.5263720000000  0.5038750000000  0.5566760000000 1.0
C      1  0.5084120000000  0.4327350000000  0.5433350000000 1.0
C      1  0.5039810000000  0.4416160000000  0.4521000000000 1.0
C      1  0.5082670000000  0.5291660000000  0.4263960000000 1.0
C      1  0.5063720000000  0.5768180000000  0.5035820000000 1.0
C      1  0.5071460000000  0.5191770000000  0.5738940000000 1.0
C      1  0.5457850000000  0.4635160000000  0.5358570000000 1.0
C      1  0.5440900000000  0.4543780000000  0.4760700000000 1.0
C      1  0.5466880000000  0.5078640000000  0.4476970000000 1.0
C      1  0.5456900000000  0.5505880000000  0.4910050000000 1.0
C      1  0.5455920000000  0.5231680000000  0.5450110000000 1.0
C      1  0.4709750000000  0.5536540000000  0.5174250000000 1.0
C      1  0.4698790000000  0.4895680000000  0.5604930000000 1.0
C      1  0.4735970000000  0.4509820000000  0.5227050000000 1.0
C      1  0.4671530000000  0.4743060000000  0.4459290000000 1.0
C      1  0.4738060000000  0.5277340000000  0.4543250000000 1.0
C      1  0.4878250000000  0.4728170000000  0.5425360000000 1.0
C      1  0.4853890000000  0.4547390000000  0.4950710000000 1.0
C      1  0.4859160000000  0.4978110000000  0.4505310000000 1.0
C      1  0.4874400000000  0.5400560000000  0.4786770000000 1.0
C      1  0.4855470000000  0.5327110000000  0.5330410000000 1.0
C      1  0.5541080000000  0.4835560000000  0.5167590000000 1.0
C      1  0.5586570000000  0.4767010000000  0.4886370000000 1.0
C      1  0.5597360000000  0.5027170000000  0.4738300000000 1.0
C      1  0.5551910000000  0.5234190000000  0.4942140000000 1.0
C      1  0.5578970000000  0.5119740000000  0.5208870000000 1.0
C      1  0.5047940000000  0.4993130000000  0.4263840000000 1.0
C      1  0.5031400000000  0.5657570000000  0.4754800000000 1.0
C      1  0.5036900000000  0.5430830000000  0.5556910000000 1.0
C      1  0.5065090000000  0.4569280000000  0.5612960000000 1.0
C      1  0.5010090000000  0.4327430000000  0.4808280000000 1.0
END
