TITL C-9265-7156-37 1.78023865782765e-06 125000 -362.435703935222 0 0 60 (C1) n - 1
REM
REM in /home/bkarasulu/CARBON/AIRSS/Generating-Clusters/EDIP-Nigel-Params/Higher-Symm/Box-15A/Only-C60/SD-CG/HFTN-CG
REM
REM
REM
REM
REM
REM ./C.cell (414f73aa93bd7a1190c7fd0f31ff2f98)
REM
REM compiler GCC version 9.2.1 20190827 (Red Hat 9.2.1-1)
REM options -cpp -mtune=generic -march=x86-64 -g -O0 -fpre-include=/usr/include/finclude/math-vector-fortran.h
REM seed -1884969213 332951173 -1433172327 -978636942 152940016 -1342415946 -1880273259 -685007939 -225739524 581976577 984315234 -1767556666 1273057137 -1538934922 -633989573 1573286756 -1157763561 -2047935741 53166270 332443771 -272390583 748059226 -427892648 319703345 631476634 1123263147 -248532514 28003 -77279816 100121154 30759076 181404832 500999322
REM
CELL 1.54180   50.00000   50.00000   50.00000   90.00000   90.00000   90.00000
LATT -1
SFAC C  
C      1  0.5273980000000  0.5180810000000  0.4888490000000 1.0
C      1  0.5160260000000  0.4672310000000  0.4850290000000 1.0
C      1  0.4676580000000  0.4848250000000  0.4832310000000 1.0
C      1  0.4787680000000  0.5310720000000  0.4834330000000 1.0
C      1  0.5328930000000  0.4847880000000  0.5155830000000 1.0
C      1  0.5221750000000  0.5304340000000  0.5180510000000 1.0
C      1  0.4728900000000  0.5175820000000  0.5120370000000 1.0
C      1  0.4848930000000  0.4683690000000  0.5131670000000 1.0
C      1  0.5061800000000  0.5224480000000  0.4437660000000 1.0
C      1  0.5202620000000  0.4950710000000  0.4440560000000 1.0
C      1  0.4934150000000  0.4806330000000  0.4419030000000 1.0
C      1  0.4786350000000  0.5079700000000  0.4402860000000 1.0
C      1  0.5056930000000  0.4795280000000  0.5571920000000 1.0
C      1  0.5202970000000  0.5063820000000  0.5600490000000 1.0
C      1  0.4929390000000  0.5214120000000  0.5569170000000 1.0
C      1  0.4787040000000  0.4938180000000  0.5553190000000 1.0
C      1  0.5416630000000  0.5638670000000  0.4697180000000 1.0
C      1  0.5621360000000  0.4523290000000  0.4646760000000 1.0
C      1  0.4502140000000  0.4375870000000  0.4643350000000 1.0
C      1  0.4304350000000  0.5461610000000  0.4632220000000 1.0
C      1  0.5489130000000  0.4385610000000  0.5343320000000 1.0
C      1  0.5676800000000  0.5428840000000  0.5335830000000 1.0
C      1  0.4568260000000  0.5640020000000  0.5253230000000 1.0
C      1  0.4401320000000  0.4525010000000  0.5356230000000 1.0
C      1  0.4711290000000  0.5600930000000  0.4838050000000 1.0
C      1  0.5661830000000  0.5220710000000  0.4850050000000 1.0
C      1  0.5233830000000  0.4297750000000  0.4870540000000 1.0
C      1  0.4298540000000  0.4774810000000  0.4879860000000 1.0
C      1  0.4785850000000  0.4297760000000  0.5123450000000 1.0
C      1  0.5700780000000  0.4783470000000  0.5115130000000 1.0
C      1  0.5280590000000  0.5678400000000  0.5205170000000 1.0
C      1  0.4350990000000  0.5233210000000  0.5106330000000 1.0
C      1  0.5361160000000  0.5098560000000  0.5348880000000 1.0
C      1  0.5114480000000  0.4676390000000  0.5300410000000 1.0
C      1  0.4679480000000  0.4895600000000  0.5276030000000 1.0
C      1  0.4929570000000  0.5327150000000  0.5289350000000 1.0
C      1  0.5321770000000  0.4898090000000  0.4711660000000 1.0
C      1  0.5070030000000  0.5329960000000  0.4719540000000 1.0
C      1  0.4638890000000  0.5110140000000  0.4662180000000 1.0
C      1  0.4883290000000  0.4674590000000  0.4686290000000 1.0
C      1  0.5634490000000  0.5173400000000  0.5408290000000 1.0
C      1  0.5208590000000  0.4396240000000  0.5340470000000 1.0
C      1  0.4409170000000  0.4794050000000  0.5309570000000 1.0
C      1  0.4846840000000  0.5608990000000  0.5257200000000 1.0
C      1  0.5601020000000  0.4803310000000  0.4650250000000 1.0
C      1  0.5141190000000  0.5614980000000  0.4740990000000 1.0
C      1  0.4346550000000  0.5185210000000  0.4632610000000 1.0
C      1  0.4769840000000  0.4414870000000  0.4634340000000 1.0
C      1  0.5506460000000  0.4398610000000  0.4869120000000 1.0
C      1  0.4408830000000  0.4502530000000  0.4876840000000 1.0
C      1  0.4421110000000  0.5626490000000  0.4828520000000 1.0
C      1  0.5581090000000  0.5498590000000  0.4877050000000 1.0
C      1  0.5552430000000  0.5593530000000  0.5148630000000 1.0
C      1  0.4361900000000  0.5526090000000  0.5100590000000 1.0
C      1  0.4511800000000  0.4400680000000  0.5129630000000 1.0
C      1  0.5605700000000  0.4506470000000  0.5118680000000 1.0
C      1  0.5079100000000  0.4252430000000  0.5117840000000 1.0
C      1  0.4247460000000  0.5067180000000  0.4883650000000 1.0
C      1  0.5033550000000  0.5725330000000  0.5018000000000 1.0
C      1  0.5742250000000  0.4938150000000  0.4866120000000 1.0
END
