TITL C-9266-5713-39 -3.71459065670179e-06 125000 -340.804725141814 0 0 60 (C2) n - 1
REM
REM in /home/bkarasulu/CARBON/AIRSS/Generating-Clusters/EDIP-Nigel-Params/Higher-Symm/Box-15A/Only-C60/SD-CG/HFTN-CG
REM
REM
REM
REM
REM
REM ./C.cell (414f73aa93bd7a1190c7fd0f31ff2f98)
REM
REM compiler GCC version 9.2.1 20190827 (Red Hat 9.2.1-1)
REM options -cpp -mtune=generic -march=x86-64 -g -O0 -fpre-include=/usr/include/finclude/math-vector-fortran.h
REM seed -2096588906 827347015 -1714682733 140962050 -1263514449 1905720545 1276950745 -2063949965 -1120459113 -907698797 1884925604 2140511056 1414802786 -1818406426 6133623 -255455437 -1444939800 1472973219 1795755886 -56753451 22352047 180027815 768348788 -1185670037 848347716 -1130491783 678580399 -376819002 -255886879 1156254428 683736282 355868982 -1936147513
REM
CELL 1.54180   50.00000   50.00000   50.00000   90.00000   90.00000   90.00000
LATT -1
SFAC C  
C      1  0.5698160000000  0.4527810000000  0.4833870000000 1.0
C      1  0.5025230000000  0.5834670000000  0.4851800000000 1.0
C      1  0.4287360000000  0.4571280000000  0.4863090000000 1.0
C      1  0.4301680000000  0.4528060000000  0.5166180000000 1.0
C      1  0.4975050000000  0.5834690000000  0.5148110000000 1.0
C      1  0.5712500000000  0.4571060000000  0.5136960000000 1.0
C      1  0.4970180000000  0.5293180000000  0.5406010000000 1.0
C      1  0.4736850000000  0.4873740000000  0.5390300000000 1.0
C      1  0.5248960000000  0.4883040000000  0.5390370000000 1.0
C      1  0.5029910000000  0.5293120000000  0.4593960000000 1.0
C      1  0.5263110000000  0.4873610000000  0.4609720000000 1.0
C      1  0.4751010000000  0.4883080000000  0.4609650000000 1.0
C      1  0.4717330000000  0.4503090000000  0.4921190000000 1.0
C      1  0.5634080000000  0.4948230000000  0.4915410000000 1.0
C      1  0.4718940000000  0.5522750000000  0.4900310000000 1.0
C      1  0.5282500000000  0.4503010000000  0.5078860000000 1.0
C      1  0.4365900000000  0.4948450000000  0.5084600000000 1.0
C      1  0.5281230000000  0.5522670000000  0.5099640000000 1.0
C      1  0.5816470000000  0.4822970000000  0.5236030000000 1.0
C      1  0.4712760000000  0.5741620000000  0.5226670000000 1.0
C      1  0.4548010000000  0.4405450000000  0.5258910000000 1.0
C      1  0.4183470000000  0.4823210000000  0.4763990000000 1.0
C      1  0.5287490000000  0.5741500000000  0.4773250000000 1.0
C      1  0.5451800000000  0.4405270000000  0.4741160000000 1.0
C      1  0.5750750000000  0.4788280000000  0.4681710000000 1.0
C      1  0.4794200000000  0.5720970000000  0.4676110000000 1.0
C      1  0.4520310000000  0.4449510000000  0.4692370000000 1.0
C      1  0.4249180000000  0.4788570000000  0.5318310000000 1.0
C      1  0.5206040000000  0.5720940000000  0.5323810000000 1.0
C      1  0.5479510000000  0.4449380000000  0.5307690000000 1.0
C      1  0.5097800000000  0.5275700000000  0.5109360000000 1.0
C      1  0.4672790000000  0.4965450000000  0.5102660000000 1.0
C      1  0.5196030000000  0.4799750000000  0.5095930000000 1.0
C      1  0.4902290000000  0.5275730000000  0.4890610000000 1.0
C      1  0.5327200000000  0.4965330000000  0.4897340000000 1.0
C      1  0.4803900000000  0.4799800000000  0.4904100000000 1.0
C      1  0.5428950000000  0.4655630000000  0.5526480000000 1.0
C      1  0.5057330000000  0.5570490000000  0.5540990000000 1.0
C      1  0.4420090000000  0.4826950000000  0.5556830000000 1.0
C      1  0.4570930000000  0.4655720000000  0.4473560000000 1.0
C      1  0.4942860000000  0.5570450000000  0.4458950000000 1.0
C      1  0.5579860000000  0.4826700000000  0.4443190000000 1.0
C      1  0.4757680000000  0.5171850000000  0.4484210000000 1.0
C      1  0.5004670000000  0.4720150000000  0.4516260000000 1.0
C      1  0.5265810000000  0.5135070000000  0.4460420000000 1.0
C      1  0.5242380000000  0.5171820000000  0.5515770000000 1.0
C      1  0.4995240000000  0.4720210000000  0.5483770000000 1.0
C      1  0.4734230000000  0.5135220000000  0.5539570000000 1.0
C      1  0.4522950000000  0.5586910000000  0.5103310000000 1.0
C      1  0.4756440000000  0.4293510000000  0.5120170000000 1.0
C      1  0.5812350000000  0.5069550000000  0.5112740000000 1.0
C      1  0.5477240000000  0.5586740000000  0.4896620000000 1.0
C      1  0.5243320000000  0.4293410000000  0.4879910000000 1.0
C      1  0.4187670000000  0.5069810000000  0.4887250000000 1.0
C      1  0.5331860000000  0.5462660000000  0.5590940000000 1.0
C      1  0.4469760000000  0.5096080000000  0.5656270000000 1.0
C      1  0.5185700000000  0.4483790000000  0.5565010000000 1.0
C      1  0.4668290000000  0.5462710000000  0.4409000000000 1.0
C      1  0.5530270000000  0.5095830000000  0.4343720000000 1.0
C      1  0.4814130000000  0.4483790000000  0.4435050000000 1.0
END
