TITL C-9264-7143-259 -9.55178964471154e-05 125000 -355.461183465002 0 0 60 (C1) n - 1
REM
REM in /home/bkarasulu/CARBON/AIRSS/Generating-Clusters/EDIP-Nigel-Params/Higher-Symm/Box-15A/Only-C60/SD-CG/HFTN-CG
REM
REM
REM
REM
REM
REM ./C.cell (414f73aa93bd7a1190c7fd0f31ff2f98)
REM
REM compiler GCC version 9.2.1 20190827 (Red Hat 9.2.1-1)
REM options -cpp -mtune=generic -march=x86-64 -g -O0 -fpre-include=/usr/include/finclude/math-vector-fortran.h
REM seed 1418247979 518565594 1306861559 1409917571 -962216979 -1179615248 383036739 527448724 614407396 1714602889 -2013800666 -1472828216 128130695 -1578828849 2103517099 -1332342048 -785826322 -355733754 -1701269177 1888460805 -2057077243 730485778 -560291499 1311668066 -1675740656 974018746 -1182499946 -1238100428 -1204186903 -995408316 947029167 475238652 1651323249
REM
CELL 1.54180   50.00000   50.00000   50.00000   90.00000   90.00000   90.00000
LATT -1
SFAC C  
C      1  0.5157500000000  0.4736740000000  0.5740340000000 1.0
C      1  0.4269990000000  0.4739070000000  0.4757360000000 1.0
C      1  0.5573040000000  0.4733770000000  0.4496380000000 1.0
C      1  0.5484050000000  0.5301660000000  0.4788860000000 1.0
C      1  0.4944530000000  0.5304890000000  0.5526500000000 1.0
C      1  0.4572160000000  0.5304310000000  0.4691610000000 1.0
C      1  0.4801160000000  0.4486000000000  0.5307350000000 1.0
C      1  0.4832450000000  0.4481850000000  0.4671750000000 1.0
C      1  0.5372100000000  0.4465170000000  0.5025060000000 1.0
C      1  0.5234660000000  0.5142620000000  0.4862300000000 1.0
C      1  0.5006710000000  0.5122520000000  0.5270030000000 1.0
C      1  0.4760540000000  0.5145240000000  0.4871920000000 1.0
C      1  0.4616480000000  0.4369770000000  0.4832500000000 1.0
C      1  0.5335360000000  0.4359110000000  0.4756350000000 1.0
C      1  0.5043850000000  0.4365510000000  0.5415180000000 1.0
C      1  0.5290590000000  0.5599060000000  0.4978810000000 1.0
C      1  0.4873130000000  0.5603590000000  0.5260330000000 1.0
C      1  0.4836150000000  0.5599260000000  0.4758190000000 1.0
C      1  0.5310020000000  0.5159690000000  0.4348560000000 1.0
C      1  0.5416310000000  0.5167340000000  0.5594930000000 1.0
C      1  0.4275650000000  0.5165480000000  0.5061420000000 1.0
C      1  0.4407090000000  0.4827580000000  0.4521110000000 1.0
C      1  0.5708860000000  0.4824690000000  0.4732430000000 1.0
C      1  0.4884680000000  0.4823240000000  0.5746000000000 1.0
C      1  0.5431080000000  0.4499760000000  0.4535760000000 1.0
C      1  0.5197530000000  0.4500140000000  0.5603760000000 1.0
C      1  0.4375770000000  0.4506470000000  0.4863220000000 1.0
C      1  0.4780210000000  0.4288610000000  0.5068080000000 1.0
C      1  0.5047660000000  0.4284440000000  0.4781320000000 1.0
C      1  0.5162220000000  0.4277380000000  0.5156000000000 1.0
C      1  0.5221750000000  0.5385650000000  0.5623900000000 1.0
C      1  0.4348500000000  0.5385940000000  0.4880900000000 1.0
C      1  0.5432020000000  0.5380580000000  0.4499330000000 1.0
C      1  0.4759500000000  0.4684950000000  0.4465960000000 1.0
C      1  0.5570360000000  0.4687920000000  0.5062320000000 1.0
C      1  0.4652470000000  0.4682760000000  0.5474650000000 1.0
C      1  0.5020290000000  0.5160980000000  0.4340290000000 1.0
C      1  0.5567680000000  0.5171450000000  0.5348240000000 1.0
C      1  0.4415380000000  0.5161510000000  0.5315370000000 1.0
C      1  0.5260990000000  0.5604250000000  0.4503690000000 1.0
C      1  0.5300270000000  0.5609980000000  0.5473310000000 1.0
C      1  0.4440710000000  0.5609640000000  0.5024710000000 1.0
C      1  0.5694640000000  0.5089060000000  0.4869400000000 1.0
C      1  0.4773290000000  0.5084160000000  0.5659780000000 1.0
C      1  0.4539240000000  0.5089400000000  0.4469930000000 1.0
C      1  0.4714110000000  0.5669170000000  0.5017500000000 1.0
C      1  0.5127460000000  0.5664890000000  0.4742230000000 1.0
C      1  0.5159550000000  0.5666660000000  0.5237890000000 1.0
C      1  0.5251900000000  0.5252270000000  0.5141170000000 1.0
C      1  0.4754380000000  0.5255470000000  0.5153800000000 1.0
C      1  0.4993840000000  0.5251040000000  0.4715370000000 1.0
C      1  0.5600120000000  0.4980940000000  0.5130770000000 1.0
C      1  0.4591030000000  0.4975160000000  0.5453390000000 1.0
C      1  0.4810630000000  0.4976860000000  0.4422580000000 1.0
C      1  0.4806790000000  0.4853700000000  0.4910080000000 1.0
C      1  0.5191710000000  0.4851520000000  0.4909620000000 1.0
C      1  0.4998800000000  0.4842560000000  0.5135120000000 1.0
C      1  0.5352130000000  0.4929500000000  0.5720960000000 1.0
C      1  0.4192570000000  0.4932150000000  0.4937460000000 1.0
C      1  0.5456350000000  0.4924920000000  0.4336850000000 1.0
END
