TITL C-9267-1554-89 1.2268422735076e-06 125000 -355.347516258482 0 0 60 (Cs) n - 1
REM
REM in /home/bkarasulu/CARBON/AIRSS/Generating-Clusters/EDIP-Nigel-Params/Higher-Symm/Box-15A/Only-C60/SD-CG/HFTN-CG
REM
REM
REM
REM
REM
REM ./C.cell (414f73aa93bd7a1190c7fd0f31ff2f98)
REM
REM compiler GCC version 9.2.1 20190827 (Red Hat 9.2.1-1)
REM options -cpp -mtune=generic -march=x86-64 -g -O0 -fpre-include=/usr/include/finclude/math-vector-fortran.h
REM seed -754882851 -1340644500 439934696 -470536058 901830454 1275221732 -1132535918 -2024161750 1813528079 1161682854 245656576 1622683130 1186443905 957061829 533595267 1709547631 80325727 -195907218 1564696440 907440900 -13758212 -62945130 1395215246 -1411681774 -1190429776 -596808294 834962764 1007065782 762070729 -294497500 -1941060450 -1002908417 538012561
REM
CELL 1.54180   50.00000   50.00000   50.00000   90.00000   90.00000   90.00000
LATT -1
SFAC C  
C      1  0.4918700000000  0.5437910000000  0.4293130000000 1.0
C      1  0.4920440000000  0.4563570000000  0.5711710000000 1.0
C      1  0.5080480000000  0.4561210000000  0.4288850000000 1.0
C      1  0.5084800000000  0.5408460000000  0.5705270000000 1.0
C      1  0.4918810000000  0.4292960000000  0.5438190000000 1.0
C      1  0.4920630000000  0.5711710000000  0.4563470000000 1.0
C      1  0.5081310000000  0.4289560000000  0.4560600000000 1.0
C      1  0.5084800000000  0.5705160000000  0.5407440000000 1.0
C      1  0.5298790000000  0.4999080000000  0.5227960000000 1.0
C      1  0.5294380000000  0.5005310000000  0.4776910000000 1.0
C      1  0.4698760000000  0.5002730000000  0.5226150000000 1.0
C      1  0.4707830000000  0.4997430000000  0.4774030000000 1.0
C      1  0.5298610000000  0.5228260000000  0.4999300000000 1.0
C      1  0.5294120000000  0.4776350000000  0.5005300000000 1.0
C      1  0.4698830000000  0.5226400000000  0.5002680000000 1.0
C      1  0.4708050000000  0.4774200000000  0.4997160000000 1.0
C      1  0.4634560000000  0.5639930000000  0.4571120000000 1.0
C      1  0.4632000000000  0.4359840000000  0.5430920000000 1.0
C      1  0.5367610000000  0.4358750000000  0.4569500000000 1.0
C      1  0.5359210000000  0.5629020000000  0.5421900000000 1.0
C      1  0.4634390000000  0.4570930000000  0.5639820000000 1.0
C      1  0.4631900000000  0.5430990000000  0.4360120000000 1.0
C      1  0.5366360000000  0.4569110000000  0.4359730000000 1.0
C      1  0.5359200000000  0.5422390000000  0.5628860000000 1.0
C      1  0.5092730000000  0.5581080000000  0.4758430000000 1.0
C      1  0.5087840000000  0.4433630000000  0.5247390000000 1.0
C      1  0.4911850000000  0.4425280000000  0.4754470000000 1.0
C      1  0.4904570000000  0.5566410000000  0.5235900000000 1.0
C      1  0.5092440000000  0.4758460000000  0.5580830000000 1.0
C      1  0.5087690000000  0.5247190000000  0.4433970000000 1.0
C      1  0.4911140000000  0.4755160000000  0.4424370000000 1.0
C      1  0.4904550000000  0.5236130000000  0.5567560000000 1.0
C      1  0.4495110000000  0.4957000000000  0.4567990000000 1.0
C      1  0.4486200000000  0.5044070000000  0.5434950000000 1.0
C      1  0.5505050000000  0.5044290000000  0.4567790000000 1.0
C      1  0.5512740000000  0.4957510000000  0.5433990000000 1.0
C      1  0.4495600000000  0.4567880000000  0.4956810000000 1.0
C      1  0.4486220000000  0.5435180000000  0.5044250000000 1.0
C      1  0.5505100000000  0.4567620000000  0.5044630000000 1.0
C      1  0.5512900000000  0.5433870000000  0.4957430000000 1.0
C      1  0.4614320000000  0.4692210000000  0.4467360000000 1.0
C      1  0.4610290000000  0.5308680000000  0.5533380000000 1.0
C      1  0.5384670000000  0.5310360000000  0.4469790000000 1.0
C      1  0.5389150000000  0.4693890000000  0.5535530000000 1.0
C      1  0.4614790000000  0.4467570000000  0.4691880000000 1.0
C      1  0.4610490000000  0.5533160000000  0.5308990000000 1.0
C      1  0.5384760000000  0.4469710000000  0.5310720000000 1.0
C      1  0.5389390000000  0.5535370000000  0.4693770000000 1.0
C      1  0.5491890000000  0.4819500000000  0.4402950000000 1.0
C      1  0.5507000000000  0.5184470000000  0.5597350000000 1.0
C      1  0.4505130000000  0.5181360000000  0.4402590000000 1.0
C      1  0.4503280000000  0.4818950000000  0.5599030000000 1.0
C      1  0.5492400000000  0.4402480000000  0.4820090000000 1.0
C      1  0.5507390000000  0.5597380000000  0.5184260000000 1.0
C      1  0.4505660000000  0.4402360000000  0.5181080000000 1.0
C      1  0.4503490000000  0.5599390000000  0.4819230000000 1.0
C      1  0.5025750000000  0.4727850000000  0.5286480000000 1.0
C      1  0.4971140000000  0.5277060000000  0.5277960000000 1.0
C      1  0.5025800000000  0.5286740000000  0.4728190000000 1.0
C      1  0.4976890000000  0.4719510000000  0.4718530000000 1.0
END
