TITL C-9259-5960-258 -3.55952840506074e-06 125000 -363.57239458734 0 0 60 (C1) n - 1
REM
REM in /home/bkarasulu/CARBON/AIRSS/Generating-Clusters/EDIP-Nigel-Params/Higher-Symm/Box-15A/Only-C60/SD-CG/HFTN-CG
REM
REM
REM
REM
REM
REM ./C.cell (414f73aa93bd7a1190c7fd0f31ff2f98)
REM
REM compiler GCC version 9.2.1 20190827 (Red Hat 9.2.1-1)
REM options -cpp -mtune=generic -march=x86-64 -g -O0 -fpre-include=/usr/include/finclude/math-vector-fortran.h
REM seed -443879375 338792319 -1380592453 446386314 -1389389721 1272284908 -1084957375 1629310563 249753030 -1555958698 -1238835386 -1777436612 2109566978 1813927805 -191857322 -139318676 -1119834499 1793812942 -505215377 -45208815 1389322793 -359588067 1871311739 1547582037 97867518 1068668572 -2098100123 2092396793 2042844201 366359334 -1527196063 1997832900 -1001324064
REM
CELL 1.54180   50.00000   50.00000   50.00000   90.00000   90.00000   90.00000
LATT -1
SFAC C  
C      1  0.5265590000000  0.4486200000000  0.4506500000000 1.0
C      1  0.4438290000000  0.4827460000000  0.4958360000000 1.0
C      1  0.5542420000000  0.5312680000000  0.5195010000000 1.0
C      1  0.5040240000000  0.4927720000000  0.4777100000000 1.0
C      1  0.5780760000000  0.4823930000000  0.4841620000000 1.0
C      1  0.4679360000000  0.4486270000000  0.5370740000000 1.0
C      1  0.4892570000000  0.5654610000000  0.5285950000000 1.0
C      1  0.4701620000000  0.4412340000000  0.5099990000000 1.0
C      1  0.4537840000000  0.4820980000000  0.4480380000000 1.0
C      1  0.4978540000000  0.4881500000000  0.5334970000000 1.0
C      1  0.4365580000000  0.4405440000000  0.4698040000000 1.0
C      1  0.4603870000000  0.5466930000000  0.4564860000000 1.0
C      1  0.5556210000000  0.5223690000000  0.5475080000000 1.0
C      1  0.4821620000000  0.5322450000000  0.4987260000000 1.0
C      1  0.4984980000000  0.4550120000000  0.4466900000000 1.0
C      1  0.4530200000000  0.5142000000000  0.5596920000000 1.0
C      1  0.4448660000000  0.5344820000000  0.4803300000000 1.0
C      1  0.4502360000000  0.5363410000000  0.5765580000000 1.0
C      1  0.4524260000000  0.4912020000000  0.5216020000000 1.0
C      1  0.5394030000000  0.4732280000000  0.4593190000000 1.0
C      1  0.4538700000000  0.5392520000000  0.5139910000000 1.0
C      1  0.5306400000000  0.5584780000000  0.4876800000000 1.0
C      1  0.5037710000000  0.5180060000000  0.5165820000000 1.0
C      1  0.5500160000000  0.5188830000000  0.4644090000000 1.0
C      1  0.5505640000000  0.4375450000000  0.4908730000000 1.0
C      1  0.4694440000000  0.4772530000000  0.5410490000000 1.0
C      1  0.4549170000000  0.4530240000000  0.4522590000000 1.0
C      1  0.4507470000000  0.4546820000000  0.4910590000000 1.0
C      1  0.5037330000000  0.5650280000000  0.4799110000000 1.0
C      1  0.5258320000000  0.5010480000000  0.4571980000000 1.0
C      1  0.5344770000000  0.5109970000000  0.5038950000000 1.0
C      1  0.5114610000000  0.5427110000000  0.5336810000000 1.0
C      1  0.5428920000000  0.4325780000000  0.5177090000000 1.0
C      1  0.4823440000000  0.5138410000000  0.4275430000000 1.0
C      1  0.4457380000000  0.5166120000000  0.5314680000000 1.0
C      1  0.5119010000000  0.4663390000000  0.5168300000000 1.0
C      1  0.5680190000000  0.5089200000000  0.4843270000000 1.0
C      1  0.4942540000000  0.4512940000000  0.4968800000000 1.0
C      1  0.5352220000000  0.5534030000000  0.5169110000000 1.0
C      1  0.5040730000000  0.5261160000000  0.4429320000000 1.0
C      1  0.5247920000000  0.4459160000000  0.5353520000000 1.0
C      1  0.4607320000000  0.4878070000000  0.5672060000000 1.0
C      1  0.5391940000000  0.4807130000000  0.5094530000000 1.0
C      1  0.4590500000000  0.5295750000000  0.4334600000000 1.0
C      1  0.5364600000000  0.4672690000000  0.5540440000000 1.0
C      1  0.5162920000000  0.4912140000000  0.5572920000000 1.0
C      1  0.4518880000000  0.5001860000000  0.4732080000000 1.0
C      1  0.4873830000000  0.4671280000000  0.4719310000000 1.0
C      1  0.5459950000000  0.5461100000000  0.4678480000000 1.0
C      1  0.4546670000000  0.5583290000000  0.5614680000000 1.0
C      1  0.4812740000000  0.5104290000000  0.4778120000000 1.0
C      1  0.5529920000000  0.4672600000000  0.4854740000000 1.0
C      1  0.4788930000000  0.4854620000000  0.4342060000000 1.0
C      1  0.5270480000000  0.5201460000000  0.5561990000000 1.0
C      1  0.5341300000000  0.4283330000000  0.4695470000000 1.0
C      1  0.5567550000000  0.4768330000000  0.5348480000000 1.0
C      1  0.5697910000000  0.4982350000000  0.5473480000000 1.0
C      1  0.4608220000000  0.5616280000000  0.5343640000000 1.0
C      1  0.4908420000000  0.5488230000000  0.4586130000000 1.0
C      1  0.4881860000000  0.5729070000000  0.5013630000000 1.0
END
