TITL C-9264-7143-271 1.94911501568496e-06 125000 -365.498933304203 0 0 60 (Ci) n - 1
REM
REM in /home/bkarasulu/CARBON/AIRSS/Generating-Clusters/EDIP-Nigel-Params/Higher-Symm/Box-15A/Only-C60/SD-CG/HFTN-CG
REM
REM
REM
REM
REM
REM ./C.cell (414f73aa93bd7a1190c7fd0f31ff2f98)
REM
REM compiler GCC version 9.2.1 20190827 (Red Hat 9.2.1-1)
REM options -cpp -mtune=generic -march=x86-64 -g -O0 -fpre-include=/usr/include/finclude/math-vector-fortran.h
REM seed 505460726 -589867587 -1698599508 861699210 1789181902 -1290511108 -264463907 -1963655644 1249567861 245568695 16350645 1283671941 1821692739 -461148525 20675592 226202138 -768677382 277652951 -1628347375 1280113149 -572399461 913853573 -283080331 -156399173 -2057511635 178986607 1261522335 194010271 1965488699 342423236 407867961 -336041763 -277206596
REM
CELL 1.54180   50.00000   50.00000   50.00000   90.00000   90.00000   90.00000
LATT -1
SFAC C  
C      1  0.4498640000000  0.5495590000000  0.4930840000000 1.0
C      1  0.5501360000000  0.4504410000000  0.5069160000000 1.0
C      1  0.5116570000000  0.4544250000000  0.4379540000000 1.0
C      1  0.4883430000000  0.5455750000000  0.5620460000000 1.0
C      1  0.5255130000000  0.4712570000000  0.5441540000000 1.0
C      1  0.4744870000000  0.5287430000000  0.4558460000000 1.0
C      1  0.4790680000000  0.5572940000000  0.4609450000000 1.0
C      1  0.5209320000000  0.4427060000000  0.5390550000000 1.0
C      1  0.4894360000000  0.4374960000000  0.4481930000000 1.0
C      1  0.5105640000000  0.5625040000000  0.5518070000000 1.0
C      1  0.5445570000000  0.4314940000000  0.5276180000000 1.0
C      1  0.4554430000000  0.5685060000000  0.4723820000000 1.0
C      1  0.5029550000000  0.4724430000000  0.4185380000000 1.0
C      1  0.4970450000000  0.5275570000000  0.5814620000000 1.0
C      1  0.4937220000000  0.4965900000000  0.4254880000000 1.0
C      1  0.5062780000000  0.5034100000000  0.5745120000000 1.0
C      1  0.5309340000000  0.5245370000000  0.4872050000000 1.0
C      1  0.4690660000000  0.4754630000000  0.5127950000000 1.0
C      1  0.4886910000000  0.5111830000000  0.5282890000000 1.0
C      1  0.5113090000000  0.4888170000000  0.4717110000000 1.0
C      1  0.4346120000000  0.4890750000000  0.4530090000000 1.0
C      1  0.5653880000000  0.5109250000000  0.5469910000000 1.0
C      1  0.5043740000000  0.5319360000000  0.4989760000000 1.0
C      1  0.4956260000000  0.4680640000000  0.5010240000000 1.0
C      1  0.4656420000000  0.5554050000000  0.5172800000000 1.0
C      1  0.5343580000000  0.4445950000000  0.4827200000000 1.0
C      1  0.5520900000000  0.4851200000000  0.4543890000000 1.0
C      1  0.4479100000000  0.5148800000000  0.5456110000000 1.0
C      1  0.4884600000000  0.5720320000000  0.5079300000000 1.0
C      1  0.5115400000000  0.4279680000000  0.4920700000000 1.0
C      1  0.5042710000000  0.5782090000000  0.5297870000000 1.0
C      1  0.4957290000000  0.4217910000000  0.4702130000000 1.0
C      1  0.4513390000000  0.4696270000000  0.4648240000000 1.0
C      1  0.5486610000000  0.5303730000000  0.5351760000000 1.0
C      1  0.5426330000000  0.4767780000000  0.5194640000000 1.0
C      1  0.4573670000000  0.5232220000000  0.4805360000000 1.0
C      1  0.4754490000000  0.4727120000000  0.5565330000000 1.0
C      1  0.5245510000000  0.5272880000000  0.4434670000000 1.0
C      1  0.4463810000000  0.4706680000000  0.4940320000000 1.0
C      1  0.5536190000000  0.5293320000000  0.5059680000000 1.0
C      1  0.5287650000000  0.4665090000000  0.4604500000000 1.0
C      1  0.4712350000000  0.5334910000000  0.5395500000000 1.0
C      1  0.5008930000000  0.5589930000000  0.4815960000000 1.0
C      1  0.4991070000000  0.4410070000000  0.5184040000000 1.0
C      1  0.5450110000000  0.5081660000000  0.4400910000000 1.0
C      1  0.4549890000000  0.4918340000000  0.5599090000000 1.0
C      1  0.5296530000000  0.5458300000000  0.4654550000000 1.0
C      1  0.4703470000000  0.4541700000000  0.5345450000000 1.0
C      1  0.5004880000000  0.4886490000000  0.5507080000000 1.0
C      1  0.4995120000000  0.5113510000000  0.4492920000000 1.0
C      1  0.5193680000000  0.4908250000000  0.5045740000000 1.0
C      1  0.4806320000000  0.5091750000000  0.4954260000000 1.0
C      1  0.5682610000000  0.4921460000000  0.5254830000000 1.0
C      1  0.4317390000000  0.5078540000000  0.4745170000000 1.0
C      1  0.5725490000000  0.5069210000000  0.5002610000000 1.0
C      1  0.4274510000000  0.4930790000000  0.4997390000000 1.0
C      1  0.4646790000000  0.4499920000000  0.4504300000000 1.0
C      1  0.5353210000000  0.5500080000000  0.5495700000000 1.0
C      1  0.5672510000000  0.4920200000000  0.4768470000000 1.0
C      1  0.4327490000000  0.5079800000000  0.5231530000000 1.0
END
