TITL C-9268-6400-105 -4.15601023662811e-07 125000 -362.685696556031 0 0 60 (C1) n - 1
REM
REM in /home/bkarasulu/CARBON/AIRSS/Generating-Clusters/EDIP-Nigel-Params/Higher-Symm/Box-15A/Only-C60/SD-CG/HFTN-CG
REM
REM
REM
REM
REM
REM ./C.cell (414f73aa93bd7a1190c7fd0f31ff2f98)
REM
REM compiler GCC version 9.2.1 20190827 (Red Hat 9.2.1-1)
REM options -cpp -mtune=generic -march=x86-64 -g -O0 -fpre-include=/usr/include/finclude/math-vector-fortran.h
REM seed -453434194 -784315815 647976931 511339703 -203139319 370447240 1453252108 279345810 1479367923 -392056501 -1900539227 1862948749 -1547424965 -551718262 -1013536979 -797805615 -1834660483 -167442145 -1568118135 -1614363037 437507876 488207572 -1014161244 -1474709569 873364913 324550549 959169535 -833632204 -317249818 2084006818 236944818 1358688901 -1831349538
REM
CELL 1.54180   50.00000   50.00000   50.00000   90.00000   90.00000   90.00000
LATT -1
SFAC C  
C      1  0.4856440000000  0.4642520000000  0.5505130000000 1.0
C      1  0.5562360000000  0.5495410000000  0.4716570000000 1.0
C      1  0.5724890000000  0.5171460000000  0.5040110000000 1.0
C      1  0.4512640000000  0.4528530000000  0.5246150000000 1.0
C      1  0.4981510000000  0.4757560000000  0.5039640000000 1.0
C      1  0.4714380000000  0.4779240000000  0.5747320000000 1.0
C      1  0.5502530000000  0.5633620000000  0.4983690000000 1.0
C      1  0.4695780000000  0.4405040000000  0.5425810000000 1.0
C      1  0.5312840000000  0.4447780000000  0.5346840000000 1.0
C      1  0.4438220000000  0.4805820000000  0.5652820000000 1.0
C      1  0.4824920000000  0.4923230000000  0.4818750000000 1.0
C      1  0.5145880000000  0.5289380000000  0.5192360000000 1.0
C      1  0.4422510000000  0.4783350000000  0.5365510000000 1.0
C      1  0.4981430000000  0.5112590000000  0.5396130000000 1.0
C      1  0.5514290000000  0.5206200000000  0.4814130000000 1.0
C      1  0.4577940000000  0.5344050000000  0.5127250000000 1.0
C      1  0.5150960000000  0.4562790000000  0.5549650000000 1.0
C      1  0.4282730000000  0.4999230000000  0.5230830000000 1.0
C      1  0.4899590000000  0.4456000000000  0.5035290000000 1.0
C      1  0.5205720000000  0.5216570000000  0.4901460000000 1.0
C      1  0.4374520000000  0.4870370000000  0.4705240000000 1.0
C      1  0.5100870000000  0.4926030000000  0.4386100000000 1.0
C      1  0.4689900000000  0.5104280000000  0.5012060000000 1.0
C      1  0.4688240000000  0.5079320000000  0.5760010000000 1.0
C      1  0.4845100000000  0.4866790000000  0.5279930000000 1.0
C      1  0.4775730000000  0.5521310000000  0.5237570000000 1.0
C      1  0.4418300000000  0.5082150000000  0.4506120000000 1.0
C      1  0.4271370000000  0.4969570000000  0.4948940000000 1.0
C      1  0.4630650000000  0.4700670000000  0.4738000000000 1.0
C      1  0.4403230000000  0.5248970000000  0.5331480000000 1.0
C      1  0.5407190000000  0.5282290000000  0.5332210000000 1.0
C      1  0.4435690000000  0.5348710000000  0.4599880000000 1.0
C      1  0.5115450000000  0.5454420000000  0.4718710000000 1.0
C      1  0.5564400000000  0.4719840000000  0.4683410000000 1.0
C      1  0.5203360000000  0.5689770000000  0.5014490000000 1.0
C      1  0.5418430000000  0.4963860000000  0.5313110000000 1.0
C      1  0.4908600000000  0.5680850000000  0.5033140000000 1.0
C      1  0.5077190000000  0.4659830000000  0.4497000000000 1.0
C      1  0.4799890000000  0.4579120000000  0.4523230000000 1.0
C      1  0.5555390000000  0.4999350000000  0.4591510000000 1.0
C      1  0.5679280000000  0.4664020000000  0.5024080000000 1.0
C      1  0.5354120000000  0.5340910000000  0.4321570000000 1.0
C      1  0.5697920000000  0.4912870000000  0.5194410000000 1.0
C      1  0.5396700000000  0.4545680000000  0.5083470000000 1.0
C      1  0.5367830000000  0.5061010000000  0.4366990000000 1.0
C      1  0.5268410000000  0.4816080000000  0.5078470000000 1.0
C      1  0.5273870000000  0.4777280000000  0.5673510000000 1.0
C      1  0.4901000000000  0.5362430000000  0.4530690000000 1.0
C      1  0.5340480000000  0.5529930000000  0.4529060000000 1.0
C      1  0.4758020000000  0.5687320000000  0.4795750000000 1.0
C      1  0.4628960000000  0.5014670000000  0.4333200000000 1.0
C      1  0.5293920000000  0.4375340000000  0.4850090000000 1.0
C      1  0.5329260000000  0.4549240000000  0.4617960000000 1.0
C      1  0.4737850000000  0.5252760000000  0.5523720000000 1.0
C      1  0.5625570000000  0.5424410000000  0.5186840000000 1.0
C      1  0.4665830000000  0.5513450000000  0.4593460000000 1.0
C      1  0.5034780000000  0.4272090000000  0.4870440000000 1.0
C      1  0.5176900000000  0.5028050000000  0.5610140000000 1.0
C      1  0.4862730000000  0.5070010000000  0.4500550000000 1.0
C      1  0.4615500000000  0.4494560000000  0.4968010000000 1.0
END
