TITL C-9263-351-278 2.77989944586618e-07 125000 -372.779940747091 0 0 60 (C1) n - 1
REM
REM in /home/bkarasulu/CARBON/AIRSS/Generating-Clusters/EDIP-Nigel-Params/Higher-Symm/Box-15A/Only-C60/SD-CG/HFTN-CG
REM
REM
REM
REM
REM
REM ./C.cell (414f73aa93bd7a1190c7fd0f31ff2f98)
REM
REM compiler GCC version 9.2.1 20190827 (Red Hat 9.2.1-1)
REM options -cpp -mtune=generic -march=x86-64 -g -O0 -fpre-include=/usr/include/finclude/math-vector-fortran.h
REM seed 2014215360 209396137 661118148 -1501554760 722763952 1945735290 -219789224 -1020416065 -1486412689 234613190 -1402054964 371808059 -1087482200 -21180403 -1456888822 1607715929 1843215472 -926094745 -1905196836 -1766949458 627110922 24357367 -2043421341 1598859512 1756053333 -448669775 648701355 -436631176 2074903678 -2034819031 663740042 2074666586 1043167464
REM
CELL 1.54180   50.00000   50.00000   50.00000   90.00000   90.00000   90.00000
LATT -1
SFAC C  
C      1  0.4639630000000  0.4444190000000  0.5122740000000 1.0
C      1  0.5577890000000  0.5012060000000  0.5247080000000 1.0
C      1  0.4683970000000  0.5582210000000  0.5172970000000 1.0
C      1  0.4795740000000  0.4402440000000  0.4489050000000 1.0
C      1  0.5586250000000  0.5094870000000  0.4484910000000 1.0
C      1  0.4575810000000  0.5509990000000  0.4501920000000 1.0
C      1  0.4936830000000  0.5458560000000  0.5261930000000 1.0
C      1  0.4614490000000  0.4689220000000  0.5278990000000 1.0
C      1  0.5317960000000  0.4850860000000  0.5282980000000 1.0
C      1  0.5146280000000  0.4852630000000  0.5885690000000 1.0
C      1  0.5393750000000  0.4943220000000  0.5791870000000 1.0
C      1  0.4940210000000  0.5042350000000  0.5876360000000 1.0
C      1  0.5411530000000  0.5469350000000  0.5281600000000 1.0
C      1  0.4480420000000  0.5163330000000  0.5306420000000 1.0
C      1  0.5102020000000  0.4385810000000  0.5313250000000 1.0
C      1  0.4841400000000  0.5227110000000  0.5690490000000 1.0
C      1  0.5075860000000  0.4598330000000  0.5797680000000 1.0
C      1  0.5503550000000  0.5107650000000  0.5593510000000 1.0
C      1  0.5172130000000  0.5620150000000  0.4855950000000 1.0
C      1  0.4402840000000  0.4878280000000  0.4869110000000 1.0
C      1  0.5408410000000  0.4527760000000  0.4910460000000 1.0
C      1  0.4838450000000  0.4795760000000  0.5413030000000 1.0
C      1  0.5055600000000  0.4968910000000  0.5354040000000 1.0
C      1  0.5037110000000  0.5250930000000  0.5465190000000 1.0
C      1  0.4441480000000  0.4605530000000  0.4760560000000 1.0
C      1  0.5610950000000  0.4729830000000  0.4839150000000 1.0
C      1  0.4915440000000  0.5739830000000  0.4766360000000 1.0
C      1  0.5512770000000  0.5325010000000  0.4623290000000 1.0
C      1  0.4427430000000  0.5322270000000  0.4645150000000 1.0
C      1  0.5014380000000  0.4342430000000  0.4652290000000 1.0
C      1  0.4447870000000  0.5410860000000  0.5151460000000 1.0
C      1  0.4888100000000  0.4286250000000  0.5128840000000 1.0
C      1  0.5538490000000  0.5274330000000  0.5111240000000 1.0
C      1  0.5217420000000  0.5368760000000  0.4669180000000 1.0
C      1  0.4573970000000  0.5065160000000  0.4695870000000 1.0
C      1  0.5184410000000  0.4581670000000  0.4710350000000 1.0
C      1  0.4836740000000  0.5615830000000  0.4510770000000 1.0
C      1  0.4609430000000  0.4609910000000  0.4519300000000 1.0
C      1  0.5547380000000  0.4829010000000  0.4563590000000 1.0
C      1  0.4716820000000  0.5770160000000  0.4965990000000 1.0
C      1  0.4437470000000  0.4383530000000  0.4936250000000 1.0
C      1  0.5741060000000  0.4855490000000  0.5059180000000 1.0
C      1  0.5645450000000  0.5351340000000  0.4865480000000 1.0
C      1  0.4329910000000  0.5407260000000  0.4893920000000 1.0
C      1  0.4969530000000  0.4187330000000  0.4878860000000 1.0
C      1  0.4671600000000  0.4891760000000  0.4453010000000 1.0
C      1  0.5312450000000  0.4681740000000  0.4459130000000 1.0
C      1  0.5055230000000  0.5439820000000  0.4418540000000 1.0
C      1  0.4962620000000  0.5231710000000  0.4257490000000 1.0
C      1  0.4905070000000  0.4960310000000  0.4276690000000 1.0
C      1  0.5131570000000  0.4793780000000  0.4274850000000 1.0
C      1  0.4441490000000  0.4900580000000  0.5170070000000 1.0
C      1  0.5321170000000  0.4562690000000  0.5196380000000 1.0
C      1  0.5172210000000  0.5597170000000  0.5158240000000 1.0
C      1  0.5090440000000  0.5106790000000  0.4781410000000 1.0
C      1  0.4812940000000  0.5129060000000  0.4860050000000 1.0
C      1  0.5025060000000  0.4814340000000  0.4814980000000 1.0
C      1  0.5036470000000  0.4439040000000  0.5583700000000 1.0
C      1  0.5325270000000  0.5334280000000  0.5533480000000 1.0
C      1  0.4591770000000  0.5179200000000  0.5567660000000 1.0
END
