TITL C-9261-551-219 -1.20189487137704e-06 125000 -365.371936668386 0 0 60 (C1) n - 1
REM
REM in /home/bkarasulu/CARBON/AIRSS/Generating-Clusters/EDIP-Nigel-Params/Higher-Symm/Box-15A/Only-C60/SD-CG/HFTN-CG
REM
REM
REM
REM
REM
REM ./C.cell (414f73aa93bd7a1190c7fd0f31ff2f98)
REM
REM compiler GCC version 9.2.1 20190827 (Red Hat 9.2.1-1)
REM options -cpp -mtune=generic -march=x86-64 -g -O0 -fpre-include=/usr/include/finclude/math-vector-fortran.h
REM seed 799318145 1381563132 704469454 1129174833 -1648552038 -172593023 991238926 -1091744839 1330268042 -955862031 450108273 345256536 1084291714 -635952890 -392555431 -1227792010 -1137340109 2016464398 -673003196 -796419607 781753186 931564274 -1023032777 1440923163 -1078765602 1168542294 214262379 -1741172795 2001616584 -1600254468 2129866361 1519150423 -1658317562
REM
CELL 1.54180   50.00000   50.00000   50.00000   90.00000   90.00000   90.00000
LATT -1
SFAC C  
C      1  0.5230430000000  0.5315830000000  0.5192560000000 1.0
C      1  0.4674620000000  0.5399490000000  0.5207230000000 1.0
C      1  0.4951470000000  0.5309590000000  0.4740880000000 1.0
C      1  0.5216770000000  0.5260560000000  0.4890650000000 1.0
C      1  0.4675000000000  0.5321640000000  0.4902840000000 1.0
C      1  0.4967780000000  0.5451960000000  0.5291190000000 1.0
C      1  0.4833750000000  0.4669690000000  0.4349530000000 1.0
C      1  0.5628380000000  0.4657190000000  0.5160860000000 1.0
C      1  0.4553180000000  0.4700970000000  0.5514430000000 1.0
C      1  0.4808160000000  0.4721420000000  0.5659260000000 1.0
C      1  0.5635290000000  0.4665660000000  0.4860390000000 1.0
C      1  0.4569610000000  0.4666300000000  0.4497320000000 1.0
C      1  0.4770780000000  0.4897220000000  0.5140400000000 1.0
C      1  0.5021630000000  0.4875230000000  0.4720460000000 1.0
C      1  0.5243950000000  0.4878530000000  0.5147400000000 1.0
C      1  0.4775810000000  0.4895930000000  0.4857410000000 1.0
C      1  0.5006330000000  0.4945790000000  0.5284270000000 1.0
C      1  0.5252600000000  0.4966520000000  0.4870050000000 1.0
C      1  0.5260350000000  0.4923460000000  0.4323940000000 1.0
C      1  0.5462880000000  0.4924960000000  0.5556300000000 1.0
C      1  0.4305640000000  0.4907650000000  0.5130030000000 1.0
C      1  0.5233610000000  0.4960490000000  0.5695100000000 1.0
C      1  0.5490870000000  0.4924210000000  0.4463940000000 1.0
C      1  0.4310010000000  0.4898320000000  0.4860000000000 1.0
C      1  0.5238990000000  0.4344890000000  0.5117680000000 1.0
C      1  0.4735010000000  0.4308490000000  0.5082350000000 1.0
C      1  0.5008980000000  0.4345120000000  0.4670910000000 1.0
C      1  0.5254530000000  0.4347290000000  0.4830970000000 1.0
C      1  0.4750610000000  0.4314880000000  0.4796430000000 1.0
C      1  0.4974850000000  0.4319320000000  0.5238560000000 1.0
C      1  0.4548170000000  0.5667020000000  0.5229920000000 1.0
C      1  0.5001200000000  0.5510520000000  0.4510210000000 1.0
C      1  0.5442140000000  0.5525460000000  0.5248970000000 1.0
C      1  0.4555640000000  0.5533960000000  0.4736180000000 1.0
C      1  0.4957950000000  0.5460610000000  0.5571140000000 1.0
C      1  0.5459670000000  0.5393960000000  0.4763070000000 1.0
C      1  0.5503120000000  0.4443100000000  0.4743270000000 1.0
C      1  0.4865270000000  0.4385660000000  0.5498960000000 1.0
C      1  0.4542920000000  0.4419470000000  0.4637630000000 1.0
C      1  0.5478000000000  0.4427760000000  0.5244410000000 1.0
C      1  0.4986110000000  0.4433790000000  0.4403640000000 1.0
C      1  0.4585090000000  0.4429620000000  0.5415270000000 1.0
C      1  0.5529900000000  0.4927750000000  0.4749160000000 1.0
C      1  0.4969680000000  0.4959230000000  0.5578230000000 1.0
C      1  0.4538550000000  0.4911160000000  0.4684650000000 1.0
C      1  0.5505760000000  0.4917940000000  0.5270990000000 1.0
C      1  0.4992940000000  0.4915090000000  0.4430780000000 1.0
C      1  0.4533060000000  0.4925540000000  0.5306860000000 1.0
C      1  0.4837210000000  0.5181950000000  0.4394190000000 1.0
C      1  0.5605550000000  0.5194070000000  0.5153860000000 1.0
C      1  0.4575550000000  0.5203770000000  0.5425210000000 1.0
C      1  0.4803740000000  0.5214360000000  0.5627330000000 1.0
C      1  0.5654820000000  0.5187650000000  0.4856840000000 1.0
C      1  0.4573110000000  0.5194410000000  0.4549220000000 1.0
C      1  0.4762210000000  0.5825120000000  0.5122160000000 1.0
C      1  0.5027290000000  0.5738550000000  0.4690410000000 1.0
C      1  0.5281590000000  0.5752030000000  0.5140070000000 1.0
C      1  0.4759310000000  0.5749330000000  0.4828300000000 1.0
C      1  0.5010000000000  0.5738820000000  0.5285340000000 1.0
C      1  0.5272590000000  0.5713670000000  0.4850410000000 1.0
END
