TITL C-9267-1554-32 2.17727061426656e-06 125000 -364.166524170925 0 0 60 (C1) n - 1
REM
REM in /home/bkarasulu/CARBON/AIRSS/Generating-Clusters/EDIP-Nigel-Params/Higher-Symm/Box-15A/Only-C60/SD-CG/HFTN-CG
REM
REM
REM
REM
REM
REM ./C.cell (414f73aa93bd7a1190c7fd0f31ff2f98)
REM
REM compiler GCC version 9.2.1 20190827 (Red Hat 9.2.1-1)
REM options -cpp -mtune=generic -march=x86-64 -g -O0 -fpre-include=/usr/include/finclude/math-vector-fortran.h
REM seed -1031847775 516819482 -1071157096 1638479493 891196114 1436458817 1337548982 -1390221561 441028886 -255360283 1633962123 -475677626 1403979813 -456697225 -474580721 -290044078 975505423 1413081209 1404479361 1823701061 2017621492 141010867 1071138307 528615378 1424247934 755395738 1745303724 -1435989187 924992850 -1554844838 -807989926 -159519195 -1360943490
REM
CELL 1.54180   50.00000   50.00000   50.00000   90.00000   90.00000   90.00000
LATT -1
SFAC C  
C      1  0.5488270000000  0.5089670000000  0.5355560000000 1.0
C      1  0.5072320000000  0.5719520000000  0.5203220000000 1.0
C      1  0.5274520000000  0.5393930000000  0.5117740000000 1.0
C      1  0.4630060000000  0.5583370000000  0.5045170000000 1.0
C      1  0.5464500000000  0.4859970000000  0.5163390000000 1.0
C      1  0.5202990000000  0.4908420000000  0.5697730000000 1.0
C      1  0.4724100000000  0.4850860000000  0.4587530000000 1.0
C      1  0.4913610000000  0.5615830000000  0.4992170000000 1.0
C      1  0.5251710000000  0.4503030000000  0.5442720000000 1.0
C      1  0.4946460000000  0.4393330000000  0.4723170000000 1.0
C      1  0.4708700000000  0.4908940000000  0.4903600000000 1.0
C      1  0.5098650000000  0.4937050000000  0.4306360000000 1.0
C      1  0.4573020000000  0.5538350000000  0.5314380000000 1.0
C      1  0.4880150000000  0.4591300000000  0.4518550000000 1.0
C      1  0.5264080000000  0.5378010000000  0.4370450000000 1.0
C      1  0.4813100000000  0.5184490000000  0.5002820000000 1.0
C      1  0.5115410000000  0.4318910000000  0.5257330000000 1.0
C      1  0.5642590000000  0.5298360000000  0.5245270000000 1.0
C      1  0.4795610000000  0.5061220000000  0.5300110000000 1.0
C      1  0.5658890000000  0.4930380000000  0.4942470000000 1.0
C      1  0.4314870000000  0.5076530000000  0.4569530000000 1.0
C      1  0.4429530000000  0.4821040000000  0.4544850000000 1.0
C      1  0.5076380000000  0.4703270000000  0.5562970000000 1.0
C      1  0.5204030000000  0.4865090000000  0.4988320000000 1.0
C      1  0.4334310000000  0.5193820000000  0.4824130000000 1.0
C      1  0.4976550000000  0.5345830000000  0.4429560000000 1.0
C      1  0.4655210000000  0.4512610000000  0.5354820000000 1.0
C      1  0.4824000000000  0.5272090000000  0.5651770000000 1.0
C      1  0.4638380000000  0.4929230000000  0.5654370000000 1.0
C      1  0.5146970000000  0.4681540000000  0.4423640000000 1.0
C      1  0.4561740000000  0.5357310000000  0.5527970000000 1.0
C      1  0.5216670000000  0.5051820000000  0.4653940000000 1.0
C      1  0.5575730000000  0.4382150000000  0.5132180000000 1.0
C      1  0.4480680000000  0.5082830000000  0.5454870000000 1.0
C      1  0.4411770000000  0.4576640000000  0.5229780000000 1.0
C      1  0.5014610000000  0.5670410000000  0.4725950000000 1.0
C      1  0.5297730000000  0.5607150000000  0.4677730000000 1.0
C      1  0.4926020000000  0.4765360000000  0.5090960000000 1.0
C      1  0.4862310000000  0.5070410000000  0.4405620000000 1.0
C      1  0.5318980000000  0.4297530000000  0.5038800000000 1.0
C      1  0.4479230000000  0.5430430000000  0.4864360000000 1.0
C      1  0.5291630000000  0.5140330000000  0.5570000000000 1.0
C      1  0.5442500000000  0.5214280000000  0.4536730000000 1.0
C      1  0.5675530000000  0.5305540000000  0.4959260000000 1.0
C      1  0.4842870000000  0.5580760000000  0.4517270000000 1.0
C      1  0.4321780000000  0.4728010000000  0.5011410000000 1.0
C      1  0.4331470000000  0.4644100000000  0.4742960000000 1.0
C      1  0.5108580000000  0.5182000000000  0.4950220000000 1.0
C      1  0.4752950000000  0.4327710000000  0.4916750000000 1.0
C      1  0.5457750000000  0.5516370000000  0.4907930000000 1.0
C      1  0.5136590000000  0.5588290000000  0.5438190000000 1.0
C      1  0.5212240000000  0.4456790000000  0.4819820000000 1.0
C      1  0.4359670000000  0.5006810000000  0.5038550000000 1.0
C      1  0.5350650000000  0.4640450000000  0.4640280000000 1.0
C      1  0.5630840000000  0.5014400000000  0.4462780000000 1.0
C      1  0.5074080000000  0.5322590000000  0.5507480000000 1.0
C      1  0.4864760000000  0.4461400000000  0.5153730000000 1.0
C      1  0.5592430000000  0.4822770000000  0.4674080000000 1.0
C      1  0.4783780000000  0.4696140000000  0.5548750000000 1.0
C      1  0.5505450000000  0.4593200000000  0.5307910000000 1.0
END
