TITL C-9266-5713-255 -1.52175539389096e-05 125000 -366.740791981252 0 0 60 (C1) n - 1
REM
REM in /home/bkarasulu/CARBON/AIRSS/Generating-Clusters/EDIP-Nigel-Params/Higher-Symm/Box-15A/Only-C60/SD-CG/HFTN-CG
REM
REM
REM
REM
REM
REM ./C.cell (414f73aa93bd7a1190c7fd0f31ff2f98)
REM
REM compiler GCC version 9.2.1 20190827 (Red Hat 9.2.1-1)
REM options -cpp -mtune=generic -march=x86-64 -g -O0 -fpre-include=/usr/include/finclude/math-vector-fortran.h
REM seed 1161405207 2029627082 788239709 -650412071 -219329575 1658612948 -1021770197 1009566871 285144468 342729974 -2112205911 1105362103 973832292 -624755091 1584845704 -1347988985 1559149173 130326984 1312451810 2069030735 -299630211 -504089687 -672960996 -1198915728 -117096614 1612548828 -877517639 2050244167 -895603205 1017080486 -1337475819 -1494632045 857696238
REM
CELL 1.54180   50.00000   50.00000   50.00000   90.00000   90.00000   90.00000
LATT -1
SFAC C  
C      1  0.5630530000000  0.4785790000000  0.5064520000000 1.0
C      1  0.4856320000000  0.5684380000000  0.5055940000000 1.0
C      1  0.4498710000000  0.4552420000000  0.5073070000000 1.0
C      1  0.5123680000000  0.4225810000000  0.5110200000000 1.0
C      1  0.5594250000000  0.5476220000000  0.5131570000000 1.0
C      1  0.4272340000000  0.5287100000000  0.5127560000000 1.0
C      1  0.5071210000000  0.4450420000000  0.4413790000000 1.0
C      1  0.5437560000000  0.5340630000000  0.4420280000000 1.0
C      1  0.4480710000000  0.5213400000000  0.4424440000000 1.0
C      1  0.4614610000000  0.5536490000000  0.5505980000000 1.0
C      1  0.4770190000000  0.4422190000000  0.5513950000000 1.0
C      1  0.5602840000000  0.5055290000000  0.5519780000000 1.0
C      1  0.4736170000000  0.5155650000000  0.5017510000000 1.0
C      1  0.5015260000000  0.4708200000000  0.4999160000000 1.0
C      1  0.5246920000000  0.5138760000000  0.5003240000000 1.0
C      1  0.4777280000000  0.4839390000000  0.4540190000000 1.0
C      1  0.5242900000000  0.4896650000000  0.4517840000000 1.0
C      1  0.4964710000000  0.5271790000000  0.4534820000000 1.0
C      1  0.5430330000000  0.5447830000000  0.4678110000000 1.0
C      1  0.4388410000000  0.5154020000000  0.4681450000000 1.0
C      1  0.5178940000000  0.4392420000000  0.4664590000000 1.0
C      1  0.5677300000000  0.5399600000000  0.5402920000000 1.0
C      1  0.4288590000000  0.5407810000000  0.5395730000000 1.0
C      1  0.5020990000000  0.4183450000000  0.5382440000000 1.0
C      1  0.4275390000000  0.5004100000000  0.5214840000000 1.0
C      1  0.5384200000000  0.4340220000000  0.5184730000000 1.0
C      1  0.5351780000000  0.5627580000000  0.5208920000000 1.0
C      1  0.4541920000000  0.4646070000000  0.4606530000000 1.0
C      1  0.5530470000000  0.4785020000000  0.4606520000000 1.0
C      1  0.4917300000000  0.5573260000000  0.4596840000000 1.0
C      1  0.5131500000000  0.5610770000000  0.5023370000000 1.0
C      1  0.4405890000000  0.4821200000000  0.5033510000000 1.0
C      1  0.5496880000000  0.4536190000000  0.5005100000000 1.0
C      1  0.4388520000000  0.5158340000000  0.5534490000000 1.0
C      1  0.5208460000000  0.4377680000000  0.5516720000000 1.0
C      1  0.5409090000000  0.5451870000000  0.5532150000000 1.0
C      1  0.4671940000000  0.5246620000000  0.5543470000000 1.0
C      1  0.5010390000000  0.4596870000000  0.5534810000000 1.0
C      1  0.5329780000000  0.5167320000000  0.5542920000000 1.0
C      1  0.5514590000000  0.5273080000000  0.4912630000000 1.0
C      1  0.4492740000000  0.5321450000000  0.4912560000000 1.0
C      1  0.4988660000000  0.4411230000000  0.4902520000000 1.0
C      1  0.4991770000000  0.5228050000000  0.4855050000000 1.0
C      1  0.4805520000000  0.4882960000000  0.4861030000000 1.0
C      1  0.5242680000000  0.4868460000000  0.4868880000000 1.0
C      1  0.5216970000000  0.5172660000000  0.4407900000000 1.0
C      1  0.4738970000000  0.5111320000000  0.4418000000000 1.0
C      1  0.5023850000000  0.4723390000000  0.4416660000000 1.0
C      1  0.5659860000000  0.4972350000000  0.4836460000000 1.0
C      1  0.4702820000000  0.5600080000000  0.4818940000000 1.0
C      1  0.4639610000000  0.4455690000000  0.4831940000000 1.0
C      1  0.4579910000000  0.4477220000000  0.5324210000000 1.0
C      1  0.5657280000000  0.4870150000000  0.5324790000000 1.0
C      1  0.4745360000000  0.5672280000000  0.5306480000000 1.0
C      1  0.5188160000000  0.5609920000000  0.4742980000000 1.0
C      1  0.4375240000000  0.4863730000000  0.4752080000000 1.0
C      1  0.5450880000000  0.4507530000000  0.4722310000000 1.0
C      1  0.5155110000000  0.5087610000000  0.5306930000000 1.0
C      1  0.4831400000000  0.5131800000000  0.5312520000000 1.0
C      1  0.5024340000000  0.4790250000000  0.5301110000000 1.0
END
