TITL C-9259-5960-146 -9.8178530258009e-06 125000 -358.94525842886 0 0 60 (C1) n - 1
REM
REM in /home/bkarasulu/CARBON/AIRSS/Generating-Clusters/EDIP-Nigel-Params/Higher-Symm/Box-15A/Only-C60/SD-CG/HFTN-CG
REM
REM
REM
REM
REM
REM ./C.cell (414f73aa93bd7a1190c7fd0f31ff2f98)
REM
REM compiler GCC version 9.2.1 20190827 (Red Hat 9.2.1-1)
REM options -cpp -mtune=generic -march=x86-64 -g -O0 -fpre-include=/usr/include/finclude/math-vector-fortran.h
REM seed -1941500866 188653678 1846916521 -887370280 970854385 -1239325378 -952011337 -2128133879 5889302 1635352779 -1470138645 1904159667 178334510 -139029311 -592980487 -1668056728 -425761260 -1533598210 582010663 1862786865 -1497962321 -420433044 351693394 -1435027371 1975967068 -904413879 731732836 2128415127 -1065059560 645343986 269501201 -49773075 -425055214
REM
CELL 1.54180   50.00000   50.00000   50.00000   90.00000   90.00000   90.00000
LATT -1
SFAC C  
C      1  0.5482700000000  0.5381620000000  0.4994450000000 1.0
C      1  0.5483010000000  0.4875580000000  0.4734470000000 1.0
C      1  0.5464150000000  0.4740470000000  0.5320860000000 1.0
C      1  0.5498340000000  0.4393680000000  0.4793660000000 1.0
C      1  0.5493500000000  0.5093390000000  0.5649110000000 1.0
C      1  0.5459890000000  0.5535930000000  0.4538360000000 1.0
C      1  0.4935190000000  0.4613110000000  0.5511390000000 1.0
C      1  0.4941950000000  0.5629400000000  0.5070260000000 1.0
C      1  0.4952460000000  0.4753930000000  0.4388660000000 1.0
C      1  0.5410140000000  0.5291150000000  0.5473460000000 1.0
C      1  0.5381440000000  0.5285920000000  0.4446860000000 1.0
C      1  0.5410100000000  0.4352980000000  0.5051680000000 1.0
C      1  0.5730250000000  0.5235510000000  0.4944130000000 1.0
C      1  0.5701140000000  0.4944240000000  0.4931600000000 1.0
C      1  0.5708730000000  0.4831250000000  0.5200520000000 1.0
C      1  0.5036060000000  0.5150360000000  0.4819620000000 1.0
C      1  0.5109330000000  0.4800660000000  0.4954310000000 1.0
C      1  0.5028780000000  0.5042540000000  0.5192080000000 1.0
C      1  0.4509890000000  0.4595050000000  0.4491220000000 1.0
C      1  0.4503260000000  0.4765150000000  0.5620440000000 1.0
C      1  0.4499310000000  0.5644360000000  0.4900240000000 1.0
C      1  0.4702130000000  0.4815900000000  0.4525200000000 1.0
C      1  0.4679200000000  0.4689030000000  0.5394980000000 1.0
C      1  0.4686440000000  0.5489450000000  0.5067950000000 1.0
C      1  0.4962000000000  0.4264310000000  0.4952290000000 1.0
C      1  0.4973980000000  0.5324180000000  0.5660550000000 1.0
C      1  0.4939580000000  0.5436060000000  0.4358850000000 1.0
C      1  0.5077490000000  0.4986860000000  0.4317560000000 1.0
C      1  0.5082750000000  0.4447460000000  0.5353400000000 1.0
C      1  0.5097160000000  0.5554230000000  0.5281560000000 1.0
C      1  0.5518510000000  0.5059960000000  0.4527860000000 1.0
C      1  0.5562480000000  0.4476270000000  0.5257950000000 1.0
C      1  0.5579330000000  0.5390390000000  0.5266970000000 1.0
C      1  0.4529030000000  0.5224490000000  0.4693260000000 1.0
C      1  0.4537380000000  0.4646710000000  0.4969550000000 1.0
C      1  0.4527520000000  0.5146000000000  0.5354510000000 1.0
C      1  0.5372930000000  0.4607300000000  0.4660990000000 1.0
C      1  0.5358940000000  0.4859910000000  0.5569730000000 1.0
C      1  0.5351580000000  0.5559670000000  0.4795720000000 1.0
C      1  0.4284550000000  0.5115180000000  0.4828520000000 1.0
C      1  0.4296470000000  0.4859740000000  0.4984020000000 1.0
C      1  0.4279280000000  0.5060340000000  0.5207270000000 1.0
C      1  0.4594600000000  0.5072710000000  0.4457750000000 1.0
C      1  0.4567180000000  0.4493380000000  0.5217850000000 1.0
C      1  0.4582820000000  0.5428920000000  0.5327770000000 1.0
C      1  0.4572380000000  0.4443420000000  0.4724820000000 1.0
C      1  0.4575770000000  0.5042500000000  0.5640370000000 1.0
C      1  0.4559230000000  0.5528360000000  0.4645920000000 1.0
C      1  0.5097200000000  0.5221580000000  0.4479590000000 1.0
C      1  0.5135570000000  0.4460470000000  0.5075070000000 1.0
C      1  0.5122970000000  0.5301730000000  0.5409360000000 1.0
C      1  0.4873350000000  0.4387900000000  0.4721190000000 1.0
C      1  0.4875550000000  0.5066630000000  0.5695970000000 1.0
C      1  0.4853130000000  0.5579070000000  0.4582940000000 1.0
C      1  0.5054810000000  0.5590570000000  0.4808980000000 1.0
C      1  0.5074870000000  0.4575330000000  0.4587130000000 1.0
C      1  0.5062310000000  0.4856770000000  0.5590810000000 1.0
C      1  0.4739750000000  0.5218430000000  0.4914980000000 1.0
C      1  0.4791550000000  0.4808130000000  0.4835570000000 1.0
C      1  0.4728610000000  0.4954360000000  0.5227850000000 1.0
END
