TITL C-9265-7156-104 -2.68994641900455e-06 125000 -369.795688626619 0 0 60 (C1) n - 1
REM
REM in /home/bkarasulu/CARBON/AIRSS/Generating-Clusters/EDIP-Nigel-Params/Higher-Symm/Box-15A/Only-C60/SD-CG/HFTN-CG
REM
REM
REM
REM
REM
REM ./C.cell (414f73aa93bd7a1190c7fd0f31ff2f98)
REM
REM compiler GCC version 9.2.1 20190827 (Red Hat 9.2.1-1)
REM options -cpp -mtune=generic -march=x86-64 -g -O0 -fpre-include=/usr/include/finclude/math-vector-fortran.h
REM seed -1537412982 -220634792 767905219 1101482941 -2059533972 332803877 755472544 192460794 -104739575 1866880079 -1376519850 -1543014968 -1713995376 715661180 -520586987 -1038453367 -1464050454 -929547632 314283615 1106897541 1274803607 -485633940 1605390507 -810938020 1833374681 -1393177470 -1188186981 1708026735 -1929579261 1416477299 -2114812052 -4652866 -266735679
REM
CELL 1.54180   50.00000   50.00000   50.00000   90.00000   90.00000   90.00000
LATT -1
SFAC C  
C      1  0.5103150000000  0.4887500000000  0.4368220000000 1.0
C      1  0.4555050000000  0.4505220000000  0.4889480000000 1.0
C      1  0.4724470000000  0.5121370000000  0.5386320000000 1.0
C      1  0.5166210000000  0.5222680000000  0.5661760000000 1.0
C      1  0.5464610000000  0.5365620000000  0.5286170000000 1.0
C      1  0.5140080000000  0.4912810000000  0.5274040000000 1.0
C      1  0.4830110000000  0.5488920000000  0.5069710000000 1.0
C      1  0.5110930000000  0.5569170000000  0.5023030000000 1.0
C      1  0.4560420000000  0.5419420000000  0.4964320000000 1.0
C      1  0.5549890000000  0.4487730000000  0.5329740000000 1.0
C      1  0.5050140000000  0.4926730000000  0.5734260000000 1.0
C      1  0.5049780000000  0.5474330000000  0.5504430000000 1.0
C      1  0.4695250000000  0.4576980000000  0.5369000000000 1.0
C      1  0.5460530000000  0.4736560000000  0.4688870000000 1.0
C      1  0.5614570000000  0.5177340000000  0.4603520000000 1.0
C      1  0.5664060000000  0.5324950000000  0.5053770000000 1.0
C      1  0.5759750000000  0.4873420000000  0.5270860000000 1.0
C      1  0.4889390000000  0.4932400000000  0.4877650000000 1.0
C      1  0.4790200000000  0.5423340000000  0.5356880000000 1.0
C      1  0.4913310000000  0.5575810000000  0.4425800000000 1.0
C      1  0.4641760000000  0.5070500000000  0.4725140000000 1.0
C      1  0.4666630000000  0.4688640000000  0.4413580000000 1.0
C      1  0.5298690000000  0.4987530000000  0.4582010000000 1.0
C      1  0.4898690000000  0.4232200000000  0.5074000000000 1.0
C      1  0.5595800000000  0.4917480000000  0.5515750000000 1.0
C      1  0.4992610000000  0.5360740000000  0.4270160000000 1.0
C      1  0.4899690000000  0.5088410000000  0.4289240000000 1.0
C      1  0.5085050000000  0.4317270000000  0.5264330000000 1.0
C      1  0.4958140000000  0.4645440000000  0.4473480000000 1.0
C      1  0.4355160000000  0.4888270000000  0.5144610000000 1.0
C      1  0.4421190000000  0.5106190000000  0.5336270000000 1.0
C      1  0.5424590000000  0.5163960000000  0.5503670000000 1.0
C      1  0.5631100000000  0.5021900000000  0.5042880000000 1.0
C      1  0.5274740000000  0.4589800000000  0.4873970000000 1.0
C      1  0.5562400000000  0.5413650000000  0.4783530000000 1.0
C      1  0.4814110000000  0.4381470000000  0.4854420000000 1.0
C      1  0.4809180000000  0.5062130000000  0.5663770000000 1.0
C      1  0.4534890000000  0.4653980000000  0.5145080000000 1.0
C      1  0.5333120000000  0.4422320000000  0.5128210000000 1.0
C      1  0.5271540000000  0.5504810000000  0.4776990000000 1.0
C      1  0.4374300000000  0.5380810000000  0.5208890000000 1.0
C      1  0.4458560000000  0.4621250000000  0.4626730000000 1.0
C      1  0.4304640000000  0.5005520000000  0.4886650000000 1.0
C      1  0.4495140000000  0.5425650000000  0.4681220000000 1.0
C      1  0.4959700000000  0.4508170000000  0.5455720000000 1.0
C      1  0.4328270000000  0.5052650000000  0.4414640000000 1.0
C      1  0.4983110000000  0.4622580000000  0.4774490000000 1.0
C      1  0.4298150000000  0.5311380000000  0.4520950000000 1.0
C      1  0.4266950000000  0.4855790000000  0.4640960000000 1.0
C      1  0.4519650000000  0.5540100000000  0.5411940000000 1.0
C      1  0.5149580000000  0.4739660000000  0.5518600000000 1.0
C      1  0.5241670000000  0.5556670000000  0.5286620000000 1.0
C      1  0.5173490000000  0.5592940000000  0.4521320000000 1.0
C      1  0.4869910000000  0.4938810000000  0.5185690000000 1.0
C      1  0.5690650000000  0.4927290000000  0.4763580000000 1.0
C      1  0.5442380000000  0.4662330000000  0.5554240000000 1.0
C      1  0.5310710000000  0.5069300000000  0.5082710000000 1.0
C      1  0.5144940000000  0.5084460000000  0.4823690000000 1.0
C      1  0.4636750000000  0.4988440000000  0.4419320000000 1.0
C      1  0.5790470000000  0.4597190000000  0.5223130000000 1.0
END
