TITL C-9270-2362-25 -2.17959469617043e-06 125000 -355.032450422506 0 0 60 (C1) n - 1
REM
REM in /home/bkarasulu/CARBON/AIRSS/Generating-Clusters/EDIP-Nigel-Params/Higher-Symm/Box-15A/Only-C60/SD-CG/HFTN-CG
REM
REM
REM
REM
REM
REM ./C.cell (414f73aa93bd7a1190c7fd0f31ff2f98)
REM
REM compiler GCC version 9.2.1 20190827 (Red Hat 9.2.1-1)
REM options -cpp -mtune=generic -march=x86-64 -g -O0 -fpre-include=/usr/include/finclude/math-vector-fortran.h
REM seed -1097344292 -654461855 357228509 -579975148 -1695369717 -1679191022 -575412438 1116426007 -258064557 -557712594 2092984733 653160540 2075283118 -182728475 1841275876 -432294416 -1101458126 -1620026424 -876208321 1295269512 -1063498880 912314408 -118338826 1128342727 305427503 249074366 -1484714990 -1824337004 -678559706 279607794 271997027 -896660028 437914691
REM
CELL 1.54180   50.00000   50.00000   50.00000   90.00000   90.00000   90.00000
LATT -1
SFAC C  
C      1  0.5487320000000  0.5176060000000  0.4838800000000 1.0
C      1  0.5530160000000  0.5061020000000  0.5329660000000 1.0
C      1  0.5377060000000  0.4750280000000  0.4875350000000 1.0
C      1  0.4441890000000  0.4801650000000  0.4657120000000 1.0
C      1  0.4393340000000  0.5241200000000  0.5017140000000 1.0
C      1  0.4494350000000  0.4856220000000  0.5375880000000 1.0
C      1  0.4971530000000  0.4914100000000  0.5229320000000 1.0
C      1  0.4891580000000  0.4943910000000  0.4792470000000 1.0
C      1  0.4927430000000  0.5127700000000  0.5017680000000 1.0
C      1  0.4753620000000  0.4450810000000  0.5414890000000 1.0
C      1  0.4751370000000  0.4932880000000  0.4304230000000 1.0
C      1  0.4706790000000  0.5577540000000  0.5233510000000 1.0
C      1  0.5328880000000  0.5633990000000  0.4710550000000 1.0
C      1  0.5258070000000  0.4950970000000  0.5722600000000 1.0
C      1  0.5298800000000  0.4448110000000  0.4560650000000 1.0
C      1  0.5317070000000  0.4430260000000  0.5244190000000 1.0
C      1  0.5333180000000  0.5043110000000  0.4375420000000 1.0
C      1  0.5281490000000  0.5499350000000  0.5318580000000 1.0
C      1  0.5485560000000  0.5325570000000  0.5255440000000 1.0
C      1  0.5490330000000  0.4602100000000  0.5100650000000 1.0
C      1  0.5516200000000  0.5054090000000  0.4585460000000 1.0
C      1  0.4440420000000  0.5283620000000  0.5641060000000 1.0
C      1  0.4584880000000  0.4568810000000  0.5006530000000 1.0
C      1  0.4569060000000  0.5254570000000  0.4569130000000 1.0
C      1  0.4640230000000  0.5454060000000  0.5690750000000 1.0
C      1  0.4638290000000  0.4289340000000  0.5001000000000 1.0
C      1  0.4679170000000  0.5392920000000  0.4349010000000 1.0
C      1  0.5532540000000  0.5466300000000  0.4835430000000 1.0
C      1  0.5512560000000  0.5003190000000  0.5606440000000 1.0
C      1  0.5500540000000  0.4632210000000  0.4647300000000 1.0
C      1  0.4977230000000  0.4570420000000  0.5863690000000 1.0
C      1  0.4962890000000  0.4469240000000  0.4194160000000 1.0
C      1  0.4947710000000  0.5894500000000  0.4870370000000 1.0
C      1  0.5271290000000  0.5740560000000  0.5177860000000 1.0
C      1  0.5299990000000  0.4500410000000  0.5518160000000 1.0
C      1  0.5306870000000  0.4800430000000  0.4237300000000 1.0
C      1  0.5195620000000  0.5292240000000  0.4942950000000 1.0
C      1  0.5291200000000  0.4864790000000  0.5293830000000 1.0
C      1  0.5082740000000  0.4726400000000  0.4830330000000 1.0
C      1  0.4826130000000  0.5554230000000  0.5505830000000 1.0
C      1  0.4843030000000  0.4266010000000  0.5198640000000 1.0
C      1  0.4868660000000  0.5203160000000  0.4247180000000 1.0
C      1  0.4660640000000  0.4971780000000  0.4590320000000 1.0
C      1  0.4664640000000  0.5299370000000  0.5116550000000 1.0
C      1  0.4700040000000  0.4704220000000  0.5255560000000 1.0
C      1  0.5216920000000  0.4654740000000  0.5742650000000 1.0
C      1  0.5214720000000  0.4540230000000  0.4294670000000 1.0
C      1  0.5215870000000  0.5822690000000  0.4913470000000 1.0
C      1  0.5122900000000  0.5453230000000  0.4601900000000 1.0
C      1  0.5058130000000  0.5095600000000  0.5554350000000 1.0
C      1  0.5109090000000  0.4345380000000  0.4769320000000 1.0
C      1  0.5092200000000  0.4355130000000  0.5069210000000 1.0
C      1  0.5127790000000  0.5251390000000  0.4386130000000 1.0
C      1  0.5074820000000  0.5391180000000  0.5494310000000 1.0
C      1  0.4361260000000  0.4663880000000  0.4871520000000 1.0
C      1  0.4474720000000  0.5387640000000  0.4798260000000 1.0
C      1  0.4435830000000  0.5107570000000  0.5440160000000 1.0
C      1  0.4800990000000  0.5781100000000  0.5066220000000 1.0
C      1  0.4841660000000  0.4429070000000  0.5678610000000 1.0
C      1  0.4820670000000  0.4697450000000  0.4170230000000 1.0
END
