TITL C-9263-351-302 -1.01969625964944e-07 125000 -370.698085150686 0 0 60 (C1) n - 1
REM
REM in /home/bkarasulu/CARBON/AIRSS/Generating-Clusters/EDIP-Nigel-Params/Higher-Symm/Box-15A/Only-C60/SD-CG/HFTN-CG
REM
REM
REM
REM
REM
REM ./C.cell (414f73aa93bd7a1190c7fd0f31ff2f98)
REM
REM compiler GCC version 9.2.1 20190827 (Red Hat 9.2.1-1)
REM options -cpp -mtune=generic -march=x86-64 -g -O0 -fpre-include=/usr/include/finclude/math-vector-fortran.h
REM seed -635648223 -1442475659 -1653479109 -882388377 1779451852 -2015806699 1279167499 602611949 -836078599 -26073081 13582913 -1259316044 -870701535 632653425 -420724075 1553800113 287866714 297030197 1787942926 1817991612 -1400908614 -1441579008 -1200980732 489297436 -1448898879 -122156898 -1278245408 -1919445331 181441632 -1036243640 1319577429 1195817235 2008336093
REM
CELL 1.54180   50.00000   50.00000   50.00000   90.00000   90.00000   90.00000
LATT -1
SFAC C  
C      1  0.5038270000000  0.5566300000000  0.4866770000000 1.0
C      1  0.4946890000000  0.4295990000000  0.5173200000000 1.0
C      1  0.4798080000000  0.4985440000000  0.5300780000000 1.0
C      1  0.4637930000000  0.5577860000000  0.5152600000000 1.0
C      1  0.5047340000000  0.4596350000000  0.4508910000000 1.0
C      1  0.4786090000000  0.4897600000000  0.4234970000000 1.0
C      1  0.5255510000000  0.5192390000000  0.4945860000000 1.0
C      1  0.5627170000000  0.4553520000000  0.5108540000000 1.0
C      1  0.5451300000000  0.4295820000000  0.5119420000000 1.0
C      1  0.5003500000000  0.5425690000000  0.4416170000000 1.0
C      1  0.5348310000000  0.5203860000000  0.5376440000000 1.0
C      1  0.5534580000000  0.5068100000000  0.5175710000000 1.0
C      1  0.4345680000000  0.5190960000000  0.5141860000000 1.0
C      1  0.4732190000000  0.5628700000000  0.5425080000000 1.0
C      1  0.4792420000000  0.4716450000000  0.4453540000000 1.0
C      1  0.4439820000000  0.4967530000000  0.4702380000000 1.0
C      1  0.5065350000000  0.4952580000000  0.4198620000000 1.0
C      1  0.5232140000000  0.5556400000000  0.5072050000000 1.0
C      1  0.4915110000000  0.4830610000000  0.5051790000000 1.0
C      1  0.4500960000000  0.5211730000000  0.4549270000000 1.0
C      1  0.4930420000000  0.4988310000000  0.5581380000000 1.0
C      1  0.5001490000000  0.5048990000000  0.4867360000000 1.0
C      1  0.5399400000000  0.4322820000000  0.4810180000000 1.0
C      1  0.5001490000000  0.5556380000000  0.5510370000000 1.0
C      1  0.4567280000000  0.4683760000000  0.5611530000000 1.0
C      1  0.5221870000000  0.4719030000000  0.4306260000000 1.0
C      1  0.5156640000000  0.5596540000000  0.4604180000000 1.0
C      1  0.5379370000000  0.4752130000000  0.5505380000000 1.0
C      1  0.5523300000000  0.5096660000000  0.4791720000000 1.0
C      1  0.5172240000000  0.5200090000000  0.4315480000000 1.0
C      1  0.4386850000000  0.5117060000000  0.5433310000000 1.0
C      1  0.5143750000000  0.4627480000000  0.5050950000000 1.0
C      1  0.5559250000000  0.5301310000000  0.4568600000000 1.0
C      1  0.4824820000000  0.4364070000000  0.4924460000000 1.0
C      1  0.5433910000000  0.5545940000000  0.4617930000000 1.0
C      1  0.5108630000000  0.4443990000000  0.4770660000000 1.0
C      1  0.4988750000000  0.5426070000000  0.5762680000000 1.0
C      1  0.4609010000000  0.4735030000000  0.4671320000000 1.0
C      1  0.4824950000000  0.4738270000000  0.5703470000000 1.0
C      1  0.4533830000000  0.4854120000000  0.5377280000000 1.0
C      1  0.5237430000000  0.5004000000000  0.5563760000000 1.0
C      1  0.5501840000000  0.4783580000000  0.5243660000000 1.0
C      1  0.4444120000000  0.4714160000000  0.5122990000000 1.0
C      1  0.4633410000000  0.5681810000000  0.4671640000000 1.0
C      1  0.4564780000000  0.5313880000000  0.5568180000000 1.0
C      1  0.5605200000000  0.4563330000000  0.4803330000000 1.0
C      1  0.4685090000000  0.4642270000000  0.4941730000000 1.0
C      1  0.5455320000000  0.5219350000000  0.4319650000000 1.0
C      1  0.5480140000000  0.4783240000000  0.4397830000000 1.0
C      1  0.4723140000000  0.5421590000000  0.4566920000000 1.0
C      1  0.5227070000000  0.4506720000000  0.5539300000000 1.0
C      1  0.5201420000000  0.4402610000000  0.5257200000000 1.0
C      1  0.4763290000000  0.5227230000000  0.4835530000000 1.0
C      1  0.4780300000000  0.5692510000000  0.4914500000000 1.0
C      1  0.4637530000000  0.5280470000000  0.5111130000000 1.0
C      1  0.5509220000000  0.4814090000000  0.4675740000000 1.0
C      1  0.4800150000000  0.5221350000000  0.5715650000000 1.0
C      1  0.4311180000000  0.4944830000000  0.4976370000000 1.0
C      1  0.5167810000000  0.5420430000000  0.5310680000000 1.0
C      1  0.5005660000000  0.4530610000000  0.5705700000000 1.0
END
