TITL C-9258-7861-215 -8.41436209057198e-07 125000 -370.473562504586 0 0 60 (C5) n - 1
REM
REM in /home/bkarasulu/CARBON/AIRSS/Generating-Clusters/EDIP-Nigel-Params/Higher-Symm/Box-15A/Only-C60/SD-CG/HFTN-CG
REM
REM
REM
REM
REM
REM ./C.cell (414f73aa93bd7a1190c7fd0f31ff2f98)
REM
REM compiler GCC version 9.2.1 20190827 (Red Hat 9.2.1-1)
REM options -cpp -mtune=generic -march=x86-64 -g -O0 -fpre-include=/usr/include/finclude/math-vector-fortran.h
REM seed -1732110926 770730708 849299961 2054826695 -539275019 -1690650405 1708543297 697899819 1812423987 880636023 -1631181438 2018276141 -556612426 1689911949 78431835 363195319 573668084 1780839115 1889143253 69292450 -155942308 -1522086438 1509651608 -1106238793 2080854620 746366796 -1539367670 -469206600 -1313704545 -1373872787 791435908 790159019 -9152437
REM
CELL 1.54180   50.00000   50.00000   50.00000   90.00000   90.00000   90.00000
LATT -1
SFAC C  
C      1  0.5141100000000  0.5709880000000  0.5533450000000 1.0
C      1  0.5155970000000  0.4712400000000  0.5837480000000 1.0
C      1  0.5157460000000  0.4114950000000  0.4982690000000 1.0
C      1  0.5143510000000  0.4743180000000  0.4150380000000 1.0
C      1  0.5133400000000  0.5728900000000  0.4490770000000 1.0
C      1  0.5340650000000  0.5726000000000  0.4910160000000 1.0
C      1  0.5351280000000  0.5310550000000  0.5656770000000 1.0
C      1  0.5360770000000  0.4472100000000  0.5492290000000 1.0
C      1  0.5356020000000  0.4369350000000  0.4644020000000 1.0
C      1  0.5343580000000  0.5144310000000  0.4284240000000 1.0
C      1  0.4962480000000  0.5236390000000  0.5087900000000 1.0
C      1  0.4966800000000  0.4989410000000  0.5252590000000 1.0
C      1  0.4968450000000  0.4756440000000  0.5068560000000 1.0
C      1  0.4965140000000  0.4859450000000  0.4790130000000 1.0
C      1  0.4961450000000  0.5156070000000  0.4802080000000 1.0
C      1  0.4967480000000  0.4662830000000  0.4339430000000 1.0
C      1  0.4957500000000  0.5523920000000  0.4475790000000 1.0
C      1  0.4961920000000  0.5660410000000  0.5336910000000 1.0
C      1  0.4974630000000  0.4883670000000  0.5732750000000 1.0
C      1  0.4978070000000  0.4267130000000  0.5116270000000 1.0
C      1  0.5155350000000  0.4483670000000  0.5678010000000 1.0
C      1  0.5152130000000  0.4195900000000  0.4715920000000 1.0
C      1  0.5137540000000  0.5021900000000  0.4145000000000 1.0
C      1  0.5131730000000  0.5820160000000  0.4754240000000 1.0
C      1  0.5142740000000  0.5487520000000  0.5701690000000 1.0
C      1  0.5513110000000  0.5192180000000  0.5480290000000 1.0
C      1  0.5519470000000  0.4603670000000  0.5322440000000 1.0
C      1  0.5515530000000  0.4571880000000  0.4713930000000 1.0
C      1  0.5506730000000  0.5140740000000  0.4495710000000 1.0
C      1  0.5505230000000  0.5524110000000  0.4969340000000 1.0
C      1  0.4580600000000  0.4487570000000  0.4932130000000 1.0
C      1  0.4572180000000  0.4905300000000  0.4498900000000 1.0
C      1  0.4567180000000  0.5446430000000  0.4762380000000 1.0
C      1  0.4572500000000  0.5363120000000  0.5358440000000 1.0
C      1  0.4580790000000  0.4770510000000  0.5463350000000 1.0
C      1  0.4885930000000  0.5382860000000  0.5731030000000 1.0
C      1  0.4897160000000  0.4422900000000  0.5591930000000 1.0
C      1  0.4892410000000  0.4258460000000  0.4635930000000 1.0
C      1  0.4878260000000  0.5116790000000  0.4184190000000 1.0
C      1  0.4874260000000  0.5811710000000  0.4861000000000 1.0
C      1  0.5554230000000  0.4801600000000  0.4862050000000 1.0
C      1  0.5550070000000  0.5070960000000  0.4759260000000 1.0
C      1  0.5549370000000  0.5251980000000  0.4983700000000 1.0
C      1  0.5553100000000  0.5094490000000  0.5225210000000 1.0
C      1  0.5556110000000  0.4816140000000  0.5150020000000 1.0
C      1  0.4795600000000  0.5323260000000  0.4602580000000 1.0
C      1  0.4797820000000  0.5477480000000  0.5188040000000 1.0
C      1  0.4806640000000  0.4968370000000  0.5515590000000 1.0
C      1  0.4809870000000  0.4499500000000  0.5132560000000 1.0
C      1  0.4803040000000  0.4718840000000  0.4568290000000 1.0
C      1  0.4699540000000  0.4504070000000  0.5410290000000 1.0
C      1  0.4694790000000  0.4455910000000  0.4660350000000 1.0
C      1  0.4683920000000  0.5154210000000  0.4382860000000 1.0
C      1  0.4681950000000  0.5633960000000  0.4961290000000 1.0
C      1  0.4691610000000  0.5232150000000  0.5596280000000 1.0
C      1  0.4407460000000  0.4952300000000  0.4749560000000 1.0
C      1  0.4405010000000  0.5222250000000  0.4887340000000 1.0
C      1  0.4407760000000  0.5174660000000  0.5186650000000 1.0
C      1  0.4411900000000  0.4875300000000  0.5233860000000 1.0
C      1  0.4411720000000  0.4737880000000  0.4963720000000 1.0
END
