TITL C-9263-351-148 -4.18739003823504e-07 125000 -375.875982220854 0 0 60 (C1) n - 1
REM
REM in /home/bkarasulu/CARBON/AIRSS/Generating-Clusters/EDIP-Nigel-Params/Higher-Symm/Box-15A/Only-C60/SD-CG/HFTN-CG
REM
REM
REM
REM
REM
REM ./C.cell (414f73aa93bd7a1190c7fd0f31ff2f98)
REM
REM compiler GCC version 9.2.1 20190827 (Red Hat 9.2.1-1)
REM options -cpp -mtune=generic -march=x86-64 -g -O0 -fpre-include=/usr/include/finclude/math-vector-fortran.h
REM seed 548440867 1777651570 -1518125820 -489948961 -1191181674 -777028087 906613805 -1661649619 -140301028 1383641319 595299330 475502963 1436226006 -1172758030 150483426 -5057105 -826561400 -77198134 397740005 -1290391787 -1033323808 221571796 -920256693 1191384549 1185187578 320928898 -1891014132 -666165685 1881150316 -636645411 150595191 1037759055 338738951
REM
CELL 1.54180   50.00000   50.00000   50.00000   90.00000   90.00000   90.00000
LATT -1
SFAC C  
C      1  0.5215310000000  0.5381400000000  0.5422060000000 1.0
C      1  0.5427790000000  0.4912170000000  0.5424070000000 1.0
C      1  0.5051840000000  0.4566160000000  0.5425090000000 1.0
C      1  0.4601670000000  0.4816310000000  0.5422890000000 1.0
C      1  0.4702590000000  0.5322560000000  0.5421280000000 1.0
C      1  0.4942710000000  0.5557430000000  0.4927430000000 1.0
C      1  0.5510220000000  0.5223290000000  0.4926060000000 1.0
C      1  0.5368560000000  0.4589520000000  0.4923020000000 1.0
C      1  0.4721670000000  0.4516350000000  0.4926900000000 1.0
C      1  0.4451860000000  0.5117770000000  0.4927630000000 1.0
C      1  0.4872670000000  0.4785280000000  0.4954890000000 1.0
C      1  0.4753490000000  0.5053940000000  0.4955640000000 1.0
C      1  0.4972320000000  0.5250500000000  0.4955160000000 1.0
C      1  0.5226330000000  0.5103080000000  0.4953780000000 1.0
C      1  0.5163910000000  0.4816890000000  0.4955530000000 1.0
C      1  0.5233230000000  0.5108830000000  0.5813900000000 1.0
C      1  0.5173730000000  0.4811850000000  0.5815970000000 1.0
C      1  0.4872830000000  0.4776550000000  0.5814500000000 1.0
C      1  0.4746510000000  0.5051720000000  0.5812590000000 1.0
C      1  0.4969120000000  0.5256960000000  0.5812310000000 1.0
C      1  0.5101120000000  0.4772700000000  0.4328060000000 1.0
C      1  0.4813830000000  0.4834190000000  0.4328420000000 1.0
C      1  0.4783530000000  0.5126440000000  0.4328690000000 1.0
C      1  0.5052190000000  0.5245550000000  0.4328270000000 1.0
C      1  0.5248540000000  0.5026780000000  0.4327370000000 1.0
C      1  0.4849440000000  0.4305650000000  0.5074870000000 1.0
C      1  0.4288580000000  0.4935280000000  0.5078760000000 1.0
C      1  0.4720950000000  0.5659720000000  0.5079960000000 1.0
C      1  0.5542990000000  0.5463740000000  0.5081380000000 1.0
C      1  0.5602320000000  0.4619580000000  0.5086310000000 1.0
C      1  0.4721050000000  0.4448720000000  0.4630140000000 1.0
C      1  0.4387660000000  0.5096220000000  0.4630700000000 1.0
C      1  0.4901630000000  0.5612440000000  0.4630720000000 1.0
C      1  0.5550490000000  0.5282180000000  0.4630100000000 1.0
C      1  0.5439130000000  0.4564170000000  0.4628640000000 1.0
C      1  0.4461290000000  0.4527570000000  0.5047260000000 1.0
C      1  0.4385650000000  0.5370950000000  0.5045270000000 1.0
C      1  0.5165810000000  0.5695230000000  0.5043700000000 1.0
C      1  0.5707700000000  0.5048650000000  0.5038530000000 1.0
C      1  0.5290760000000  0.4347920000000  0.5054180000000 1.0
C      1  0.4950510000000  0.5422690000000  0.5561630000000 1.0
C      1  0.5386190000000  0.5176820000000  0.5563440000000 1.0
C      1  0.5288090000000  0.4687180000000  0.5566790000000 1.0
C      1  0.4791810000000  0.4629300000000  0.5564490000000 1.0
C      1  0.4582530000000  0.5083660000000  0.5562060000000 1.0
C      1  0.4389020000000  0.4826450000000  0.4545630000000 1.0
C      1  0.4645250000000  0.5528190000000  0.4545870000000 1.0
C      1  0.5391550000000  0.5500520000000  0.4545960000000 1.0
C      1  0.5596970000000  0.4782790000000  0.4543640000000 1.0
C      1  0.4977920000000  0.4366540000000  0.4544780000000 1.0
C      1  0.5510770000000  0.5038520000000  0.4459970000000 1.0
C      1  0.5194440000000  0.4526470000000  0.4459140000000 1.0
C      1  0.4609430000000  0.4670690000000  0.4462100000000 1.0
C      1  0.4564960000000  0.5270420000000  0.4462630000000 1.0
C      1  0.5121790000000  0.5497900000000  0.4462170000000 1.0
C      1  0.5641810000000  0.4856090000000  0.5228250000000 1.0
C      1  0.5073590000000  0.4344650000000  0.5231360000000 1.0
C      1  0.4398960000000  0.4730240000000  0.5226460000000 1.0
C      1  0.4559060000000  0.5490790000000  0.5225920000000 1.0
C      1  0.5332310000000  0.5567840000000  0.5225670000000 1.0
END
