TITL C-9263-351-106 2.59285958779062e-06 125000 -344.528716523586 0 0 60 (C1) n - 1
REM
REM in /home/bkarasulu/CARBON/AIRSS/Generating-Clusters/EDIP-Nigel-Params/Higher-Symm/Box-15A/Only-C60/SD-CG/HFTN-CG
REM
REM
REM
REM
REM
REM ./C.cell (414f73aa93bd7a1190c7fd0f31ff2f98)
REM
REM compiler GCC version 9.2.1 20190827 (Red Hat 9.2.1-1)
REM options -cpp -mtune=generic -march=x86-64 -g -O0 -fpre-include=/usr/include/finclude/math-vector-fortran.h
REM seed -1266745792 -1130707840 -1433729664 1796772590 1467155813 -1711067167 2082616946 -1408383386 1722803916 -1490826502 785624677 994085567 -1592329242 -566732571 -1094569077 -1592577909 1533633863 765919867 841525125 -823861274 -642721074 -64877697 -345247043 405219749 310802598 -1323073299 -791220629 462753399 -2013928620 524976647 -1640849497 1550848801 -2144355718
REM
CELL 1.54180   50.00000   50.00000   50.00000   90.00000   90.00000   90.00000
LATT -1
SFAC C  
C      1  0.4811060000000  0.4932330000000  0.5329590000000 1.0
C      1  0.5213870000000  0.5092510000000  0.5291830000000 1.0
C      1  0.4809520000000  0.5241470000000  0.5225840000000 1.0
C      1  0.5208340000000  0.5312600000000  0.5061620000000 1.0
C      1  0.4798650000000  0.5301370000000  0.4914270000000 1.0
C      1  0.5194900000000  0.5219030000000  0.4747240000000 1.0
C      1  0.4788970000000  0.5068950000000  0.4704420000000 1.0
C      1  0.5189690000000  0.4897620000000  0.4679900000000 1.0
C      1  0.4788820000000  0.4766550000000  0.4793120000000 1.0
C      1  0.5197540000000  0.4687450000000  0.4922200000000 1.0
C      1  0.4801610000000  0.4686310000000  0.5109380000000 1.0
C      1  0.5209320000000  0.4788050000000  0.5219710000000 1.0
C      1  0.5144260000000  0.4314170000000  0.5039900000000 1.0
C      1  0.4849190000000  0.4411330000000  0.5388940000000 1.0
C      1  0.5136780000000  0.4694420000000  0.5604800000000 1.0
C      1  0.4850370000000  0.5041470000000  0.5706090000000 1.0
C      1  0.5139600000000  0.5371720000000  0.5571060000000 1.0
C      1  0.4853060000000  0.5623770000000  0.5312860000000 1.0
C      1  0.5146490000000  0.5693390000000  0.4962710000000 1.0
C      1  0.4858690000000  0.5570280000000  0.4627430000000 1.0
C      1  0.5149620000000  0.5316460000000  0.4367770000000 1.0
C      1  0.4861990000000  0.4962630000000  0.4322580000000 1.0
C      1  0.5148580000000  0.4613020000000  0.4410590000000 1.0
C      1  0.4857220000000  0.4386940000000  0.4687160000000 1.0
C      1  0.5328140000000  0.5561990000000  0.5404260000000 1.0
C      1  0.4668360000000  0.5692870000000  0.5067680000000 1.0
C      1  0.5337220000000  0.5633050000000  0.4714580000000 1.0
C      1  0.4673130000000  0.5400690000000  0.4438310000000 1.0
C      1  0.5339150000000  0.5069110000000  0.4304180000000 1.0
C      1  0.4673970000000  0.4715230000000  0.4370560000000 1.0
C      1  0.5336110000000  0.4433740000000  0.4591380000000 1.0
C      1  0.4665210000000  0.4310400000000  0.4928590000000 1.0
C      1  0.5327140000000  0.4369300000000  0.5289400000000 1.0
C      1  0.4659570000000  0.4595130000000  0.5566950000000 1.0
C      1  0.5325040000000  0.4932190000000  0.5687170000000 1.0
C      1  0.4661020000000  0.5286080000000  0.5636660000000 1.0
C      1  0.5130890000000  0.5139780000000  0.5767400000000 1.0
C      1  0.4866280000000  0.5494550000000  0.5587690000000 1.0
C      1  0.5130840000000  0.5732010000000  0.5264470000000 1.0
C      1  0.4869000000000  0.5762520000000  0.4862630000000 1.0
C      1  0.5131650000000  0.5587030000000  0.4505440000000 1.0
C      1  0.4868650000000  0.5261030000000  0.4266610000000 1.0
C      1  0.5133360000000  0.4865080000000  0.4240380000000 1.0
C      1  0.4869100000000  0.4496130000000  0.4403570000000 1.0
C      1  0.5132730000000  0.4277020000000  0.4738730000000 1.0
C      1  0.4868810000000  0.4245730000000  0.5134950000000 1.0
C      1  0.5129710000000  0.4407370000000  0.5505890000000 1.0
C      1  0.4865770000000  0.4738130000000  0.5725080000000 1.0
C      1  0.5451230000000  0.4629330000000  0.5297640000000 1.0
C      1  0.4543310000000  0.4827540000000  0.5437760000000 1.0
C      1  0.5454490000000  0.5075560000000  0.5472050000000 1.0
C      1  0.4544470000000  0.5284090000000  0.5371430000000 1.0
C      1  0.5456420000000  0.5447940000000  0.5170770000000 1.0
C      1  0.4547880000000  0.5467090000000  0.4934510000000 1.0
C      1  0.5459730000000  0.5369320000000  0.4703350000000 1.0
C      1  0.4547490000000  0.5169730000000  0.4557430000000 1.0
C      1  0.5456120000000  0.4934470000000  0.4532850000000 1.0
C      1  0.4545150000000  0.4696810000000  0.4628940000000 1.0
C      1  0.5455740000000  0.4567230000000  0.4818450000000 1.0
C      1  0.4539000000000  0.4530870000000  0.5071240000000 1.0
END
