TITL C-9258-7861-274 0.000221860401294714 125000 -365.278341315726 0 0 60 (C1) n - 1
REM
REM in /home/bkarasulu/CARBON/AIRSS/Generating-Clusters/EDIP-Nigel-Params/Higher-Symm/Box-15A/Only-C60/SD-CG/HFTN-CG
REM
REM
REM
REM
REM
REM ./C.cell (414f73aa93bd7a1190c7fd0f31ff2f98)
REM
REM compiler GCC version 9.2.1 20190827 (Red Hat 9.2.1-1)
REM options -cpp -mtune=generic -march=x86-64 -g -O0 -fpre-include=/usr/include/finclude/math-vector-fortran.h
REM seed -553044761 1256267699 -1109461847 -124999353 -854257431 -1418231484 -653200757 538571052 598614484 -1192106290 -2138584406 809726662 1438433359 823217724 -172054350 -1419877799 -1669998513 -1032256519 1660081426 1739426953 1512699991 54188828 945868736 -1254295975 -986955922 -489436603 -693024086 -189596613 -2002690802 -1220018137 -2064188566 -1680590748 192231976
REM
CELL 1.54180   50.00000   50.00000   50.00000   90.00000   90.00000   90.00000
LATT -1
SFAC C  
C      1  0.5685690000000  0.4526520000000  0.4962280000000 1.0
C      1  0.5483100000000  0.5454990000000  0.5227120000000 1.0
C      1  0.5138530000000  0.4803250000000  0.4363130000000 1.0
C      1  0.4465900000000  0.5011220000000  0.4322040000000 1.0
C      1  0.5451410000000  0.5129110000000  0.5572270000000 1.0
C      1  0.5206160000000  0.5443470000000  0.5323690000000 1.0
C      1  0.5018430000000  0.4879320000000  0.5543770000000 1.0
C      1  0.4456780000000  0.4623320000000  0.5016210000000 1.0
C      1  0.5782900000000  0.4593520000000  0.4709650000000 1.0
C      1  0.4524170000000  0.5090730000000  0.5555670000000 1.0
C      1  0.5137240000000  0.4610710000000  0.5235450000000 1.0
C      1  0.4980530000000  0.5494450000000  0.4457200000000 1.0
C      1  0.5675580000000  0.5186610000000  0.4859870000000 1.0
C      1  0.4700680000000  0.4951740000000  0.4185170000000 1.0
C      1  0.5318120000000  0.4864390000000  0.5546030000000 1.0
C      1  0.4617120000000  0.4717400000000  0.5487060000000 1.0
C      1  0.5565710000000  0.4735500000000  0.4590890000000 1.0
C      1  0.5551960000000  0.5032140000000  0.4614700000000 1.0
C      1  0.4357690000000  0.5066480000000  0.5304770000000 1.0
C      1  0.5414730000000  0.4669670000000  0.5348020000000 1.0
C      1  0.4891400000000  0.5312840000000  0.5154900000000 1.0
C      1  0.4827850000000  0.4521950000000  0.5442640000000 1.0
C      1  0.4682520000000  0.5292910000000  0.4899890000000 1.0
C      1  0.5180750000000  0.5020430000000  0.4885490000000 1.0
C      1  0.4794170000000  0.5025700000000  0.5271560000000 1.0
C      1  0.4985050000000  0.5157240000000  0.5649730000000 1.0
C      1  0.4900480000000  0.5766770000000  0.5147260000000 1.0
C      1  0.4722590000000  0.5565820000000  0.5557540000000 1.0
C      1  0.4602840000000  0.5541360000000  0.4740620000000 1.0
C      1  0.4832090000000  0.4444110000000  0.4715290000000 1.0
C      1  0.5029360000000  0.5659960000000  0.4912440000000 1.0
C      1  0.4446820000000  0.5559280000000  0.5153810000000 1.0
C      1  0.4765770000000  0.4851900000000  0.4997990000000 1.0
C      1  0.4688790000000  0.5032310000000  0.4768180000000 1.0
C      1  0.4437200000000  0.4682740000000  0.4533950000000 1.0
C      1  0.5507450000000  0.5439820000000  0.4936680000000 1.0
C      1  0.4859800000000  0.4761450000000  0.4315480000000 1.0
C      1  0.4730210000000  0.5562460000000  0.5266590000000 1.0
C      1  0.5221420000000  0.5322400000000  0.5588970000000 1.0
C      1  0.4809590000000  0.4325690000000  0.5215920000000 1.0
C      1  0.5236810000000  0.4304740000000  0.4932860000000 1.0
C      1  0.5600710000000  0.4747020000000  0.5134930000000 1.0
C      1  0.4667550000000  0.4424880000000  0.4969380000000 1.0
C      1  0.4730780000000  0.5290790000000  0.5618550000000 1.0
C      1  0.4864090000000  0.5647310000000  0.4665220000000 1.0
C      1  0.5289170000000  0.4621400000000  0.4531350000000 1.0
C      1  0.5082310000000  0.4235020000000  0.5162860000000 1.0
C      1  0.5061920000000  0.4758930000000  0.4968060000000 1.0
C      1  0.5513150000000  0.4307950000000  0.4964420000000 1.0
C      1  0.5256840000000  0.5071950000000  0.4602610000000 1.0
C      1  0.5625710000000  0.5219520000000  0.5341880000000 1.0
C      1  0.4443800000000  0.5706020000000  0.4910790000000 1.0
C      1  0.4363630000000  0.5281640000000  0.5107300000000 1.0
C      1  0.4704970000000  0.4584050000000  0.4490320000000 1.0
C      1  0.5706480000000  0.5026170000000  0.5123000000000 1.0
C      1  0.4447920000000  0.4965390000000  0.4610130000000 1.0
C      1  0.5198380000000  0.5368040000000  0.4574500000000 1.0
C      1  0.5212600000000  0.5411850000000  0.4874690000000 1.0
C      1  0.4429270000000  0.4771670000000  0.5266810000000 1.0
C      1  0.5115310000000  0.4523990000000  0.4770390000000 1.0
END
