TITL C-9258-7861-150 7.25518168553402e-07 125000 -365.304739328321 0 0 60 (C1) n - 1
REM
REM in /home/bkarasulu/CARBON/AIRSS/Generating-Clusters/EDIP-Nigel-Params/Higher-Symm/Box-15A/Only-C60/SD-CG/HFTN-CG
REM
REM
REM
REM
REM
REM ./C.cell (414f73aa93bd7a1190c7fd0f31ff2f98)
REM
REM compiler GCC version 9.2.1 20190827 (Red Hat 9.2.1-1)
REM options -cpp -mtune=generic -march=x86-64 -g -O0 -fpre-include=/usr/include/finclude/math-vector-fortran.h
REM seed 110932548 -905754719 614694212 -184170366 1401256451 -135817246 595076543 -503683004 -984579982 574201381 671586800 621760808 -68184851 573392910 1524844198 -2003641572 -1980923923 535715719 1073865261 339498723 148867077 -1841443236 292307845 1720553443 1073778116 1432924251 1731729652 747988759 -1586028880 1539156200 1270930862 -853102617 808239568
REM
CELL 1.54180   50.00000   50.00000   50.00000   90.00000   90.00000   90.00000
LATT -1
SFAC C  
C      1  0.4829060000000  0.5233550000000  0.5576380000000 1.0
C      1  0.4845610000000  0.4524760000000  0.5400350000000 1.0
C      1  0.4832280000000  0.4468490000000  0.4672610000000 1.0
C      1  0.4831900000000  0.5143980000000  0.4399820000000 1.0
C      1  0.4845150000000  0.5616450000000  0.4956280000000 1.0
C      1  0.4982150000000  0.5105120000000  0.5243860000000 1.0
C      1  0.5003870000000  0.4805430000000  0.5176660000000 1.0
C      1  0.4971670000000  0.4775870000000  0.4866280000000 1.0
C      1  0.4995060000000  0.5058950000000  0.4743680000000 1.0
C      1  0.5011250000000  0.5261920000000  0.4974630000000 1.0
C      1  0.4833090000000  0.4773030000000  0.5580000000000 1.0
C      1  0.4837760000000  0.4365820000000  0.4963250000000 1.0
C      1  0.4829920000000  0.4838810000000  0.4401550000000 1.0
C      1  0.4837690000000  0.5520850000000  0.4664650000000 1.0
C      1  0.4836320000000  0.5489510000000  0.5404040000000 1.0
C      1  0.5333250000000  0.4423490000000  0.4980980000000 1.0
C      1  0.5332380000000  0.4829270000000  0.4440250000000 1.0
C      1  0.5340780000000  0.5482300000000  0.4664070000000 1.0
C      1  0.5335860000000  0.5463720000000  0.5355240000000 1.0
C      1  0.5336970000000  0.4813710000000  0.5553550000000 1.0
C      1  0.5699990000000  0.5247790000000  0.5088820000000 1.0
C      1  0.5676890000000  0.4996950000000  0.5253910000000 1.0
C      1  0.5693230000000  0.4755750000000  0.5071560000000 1.0
C      1  0.5670130000000  0.4859380000000  0.4792270000000 1.0
C      1  0.5684070000000  0.5158580000000  0.4798250000000 1.0
C      1  0.5544460000000  0.4695090000000  0.4582340000000 1.0
C      1  0.5557460000000  0.5311250000000  0.4576700000000 1.0
C      1  0.5558390000000  0.5496580000000  0.5172170000000 1.0
C      1  0.5550300000000  0.5005900000000  0.5521370000000 1.0
C      1  0.5555620000000  0.4503880000000  0.5148450000000 1.0
C      1  0.5056870000000  0.5298650000000  0.4293340000000 1.0
C      1  0.5062570000000  0.5771450000000  0.5074990000000 1.0
C      1  0.5049080000000  0.5168050000000  0.5758280000000 1.0
C      1  0.5067460000000  0.4334780000000  0.5392700000000 1.0
C      1  0.5054300000000  0.4418360000000  0.4488220000000 1.0
C      1  0.5298230000000  0.4764040000000  0.5258190000000 1.0
C      1  0.5270890000000  0.4689500000000  0.4854040000000 1.0
C      1  0.5290620000000  0.5044690000000  0.4647340000000 1.0
C      1  0.5304020000000  0.5344490000000  0.4931760000000 1.0
C      1  0.5279650000000  0.5174080000000  0.5305340000000 1.0
C      1  0.5090890000000  0.5632820000000  0.5325690000000 1.0
C      1  0.5083630000000  0.4890480000000  0.5694680000000 1.0
C      1  0.5093070000000  0.4299350000000  0.5108170000000 1.0
C      1  0.5082020000000  0.4680280000000  0.4373960000000 1.0
C      1  0.5087630000000  0.5492190000000  0.4503440000000 1.0
C      1  0.4080710000000  0.4777680000000  0.5065420000000 1.0
C      1  0.4172480000000  0.4851450000000  0.4803840000000 1.0
C      1  0.4179340000000  0.5160400000000  0.4809560000000 1.0
C      1  0.4089560000000  0.5228300000000  0.5073450000000 1.0
C      1  0.4176760000000  0.4998440000000  0.5221180000000 1.0
C      1  0.4659360000000  0.5299200000000  0.4588720000000 1.0
C      1  0.4675980000000  0.5478330000000  0.5159960000000 1.0
C      1  0.4648320000000  0.4995600000000  0.5512830000000 1.0
C      1  0.4675260000000  0.4513810000000  0.5156480000000 1.0
C      1  0.4648190000000  0.4691690000000  0.4580640000000 1.0
C      1  0.4579160000000  0.4770960000000  0.5067460000000 1.0
C      1  0.4484870000000  0.4835980000000  0.4793650000000 1.0
C      1  0.4492140000000  0.5162280000000  0.4802520000000 1.0
C      1  0.4587040000000  0.5215220000000  0.5079680000000 1.0
C      1  0.4487320000000  0.4991280000000  0.5250480000000 1.0
END
