TITL C-9270-2362-218 -0.00781131834886801 125000 -360.133735930445 0 0 60 (C1) n - 1
REM
REM in /home/bkarasulu/CARBON/AIRSS/Generating-Clusters/EDIP-Nigel-Params/Higher-Symm/Box-15A/Only-C60/SD-CG/HFTN-CG
REM
REM
REM
REM
REM
REM ./C.cell (414f73aa93bd7a1190c7fd0f31ff2f98)
REM
REM compiler GCC version 9.2.1 20190827 (Red Hat 9.2.1-1)
REM options -cpp -mtune=generic -march=x86-64 -g -O0 -fpre-include=/usr/include/finclude/math-vector-fortran.h
REM seed -802309668 -669822599 -526824822 920945229 -1015109015 604749541 1374676178 1275305758 914504854 830143876 1265926138 -491499631 -1484975219 -2086907773 2049486701 1641407248 1038068859 -1175167682 1852626992 1585992279 -2526440 -2059746720 -665824800 -982695538 -893553428 -1588453712 51146477 204863604 1293912058 252278675 -1724802739 303728793 2010933229
REM
CELL 1.54180   50.00000   50.00000   50.00000   90.00000   90.00000   90.00000
LATT -1
SFAC C  
C      1  0.5215200000000  0.5231160000000  0.5628210000000 1.0
C      1  0.4748070000000  0.5180370000000  0.5531440000000 1.0
C      1  0.5042710000000  0.4781230000000  0.5518860000000 1.0
C      1  0.4627230000000  0.5735990000000  0.5181850000000 1.0
C      1  0.4702240000000  0.4402880000000  0.4874560000000 1.0
C      1  0.5660880000000  0.4998080000000  0.4902120000000 1.0
C      1  0.5573390000000  0.5279290000000  0.5285130000000 1.0
C      1  0.4502360000000  0.5314050000000  0.5114080000000 1.0
C      1  0.5009840000000  0.4493140000000  0.5182260000000 1.0
C      1  0.5365500000000  0.5294730000000  0.4564480000000 1.0
C      1  0.4453180000000  0.5223060000000  0.4486000000000 1.0
C      1  0.5015560000000  0.4458790000000  0.4485190000000 1.0
C      1  0.4503610000000  0.4574010000000  0.5004150000000 1.0
C      1  0.5597750000000  0.4735230000000  0.5015350000000 1.0
C      1  0.4864330000000  0.5569720000000  0.5167180000000 1.0
C      1  0.5451400000000  0.5131840000000  0.5498780000000 1.0
C      1  0.4781630000000  0.5264150000000  0.5243060000000 1.0
C      1  0.4839030000000  0.4631840000000  0.5368460000000 1.0
C      1  0.5372710000000  0.4346240000000  0.4833590000000 1.0
C      1  0.5255520000000  0.5632280000000  0.4902580000000 1.0
C      1  0.4235770000000  0.4982470000000  0.4868760000000 1.0
C      1  0.5278620000000  0.5308870000000  0.5199620000000 1.0
C      1  0.4595770000000  0.4724150000000  0.5234990000000 1.0
C      1  0.5223820000000  0.4767100000000  0.5119280000000 1.0
C      1  0.5087220000000  0.5666890000000  0.5348000000000 1.0
C      1  0.4405340000000  0.4907690000000  0.5352890000000 1.0
C      1  0.5485710000000  0.4506120000000  0.5312020000000 1.0
C      1  0.5384680000000  0.4785560000000  0.4586770000000 1.0
C      1  0.4887570000000  0.5452250000000  0.4629040000000 1.0
C      1  0.4543110000000  0.4721210000000  0.4538960000000 1.0
C      1  0.4387680000000  0.4741020000000  0.4794240000000 1.0
C      1  0.5471960000000  0.4607560000000  0.4792030000000 1.0
C      1  0.4977610000000  0.5573380000000  0.4882400000000 1.0
C      1  0.5466280000000  0.5043600000000  0.4684780000000 1.0
C      1  0.4617980000000  0.5432860000000  0.4561430000000 1.0
C      1  0.4748130000000  0.4505590000000  0.4603560000000 1.0
C      1  0.5079240000000  0.5300000000000  0.4461630000000 1.0
C      1  0.4606110000000  0.4989210000000  0.4386750000000 1.0
C      1  0.5125040000000  0.4741390000000  0.4453000000000 1.0
C      1  0.4297000000000  0.5099440000000  0.5144540000000 1.0
C      1  0.5403590000000  0.4311030000000  0.5116280000000 1.0
C      1  0.5317340000000  0.5690160000000  0.5174280000000 1.0
C      1  0.5172990000000  0.4283990000000  0.4643890000000 1.0
C      1  0.5428430000000  0.5526090000000  0.4711640000000 1.0
C      1  0.4238720000000  0.5166460000000  0.4655750000000 1.0
C      1  0.4415950000000  0.5581390000000  0.5115210000000 1.0
C      1  0.4894440000000  0.4278020000000  0.5037640000000 1.0
C      1  0.5739970000000  0.5186890000000  0.5086030000000 1.0
C      1  0.5140590000000  0.5492450000000  0.5560190000000 1.0
C      1  0.4506940000000  0.5047250000000  0.5575520000000 1.0
C      1  0.5316580000000  0.4678820000000  0.5483340000000 1.0
C      1  0.4953400000000  0.5105280000000  0.4261680000000 1.0
C      1  0.5083040000000  0.5062700000000  0.5100530000000 1.0
C      1  0.4914160000000  0.4914340000000  0.4600620000000 1.0
C      1  0.5046970000000  0.4729330000000  0.3969350000000 1.0
C      1  0.4983450000000  0.5044320000000  0.5659510000000 1.0
C      1  0.5117560000000  0.4870390000000  0.4181730000000 1.0
C      1  0.4931280000000  0.4999240000000  0.5935310000000 1.0
C      1  0.4991620000000  0.5069380000000  0.4830360000000 1.0
C      1  0.4903660000000  0.4950860000000  0.6185660000000 1.0
END
