TITL C-9263-351-80 5.21062448107114e-07 125000 -366.425789134677 0 0 60 (D2) n - 1
REM
REM in /home/bkarasulu/CARBON/AIRSS/Generating-Clusters/EDIP-Nigel-Params/Higher-Symm/Box-15A/Only-C60/SD-CG/HFTN-CG
REM
REM
REM
REM
REM
REM ./C.cell (414f73aa93bd7a1190c7fd0f31ff2f98)
REM
REM compiler GCC version 9.2.1 20190827 (Red Hat 9.2.1-1)
REM options -cpp -mtune=generic -march=x86-64 -g -O0 -fpre-include=/usr/include/finclude/math-vector-fortran.h
REM seed 664110550 2039727220 479351326 124241690 1095926478 494332543 -556053474 -1797916698 1972598391 355258875 730111122 -1340740809 748344839 -1157439026 -1709577823 1437263055 2119353809 144030172 -580918856 193999200 -709184277 600854730 -1828787273 2022318012 2080978867 -707169263 586852472 -543128928 -1665178807 -1297607791 -1852603669 1251686638 -955604209
REM
CELL 1.54180   50.00000   50.00000   50.00000   90.00000   90.00000   90.00000
LATT -1
SFAC C  
C      1  0.4753950000000  0.5578130000000  0.4734940000000 1.0
C      1  0.5635420000000  0.5249130000000  0.4773570000000 1.0
C      1  0.5246050000000  0.4421880000000  0.4734920000000 1.0
C      1  0.4364580000000  0.4750880000000  0.4773550000000 1.0
C      1  0.4750710000000  0.4364640000000  0.5229110000000 1.0
C      1  0.5578060000000  0.4753800000000  0.5267750000000 1.0
C      1  0.5249290000000  0.5635350000000  0.5229150000000 1.0
C      1  0.4421940000000  0.5246190000000  0.5267760000000 1.0
C      1  0.5412470000000  0.4850580000000  0.5499980000000 1.0
C      1  0.4850460000000  0.4435680000000  0.5493660000000 1.0
C      1  0.4587520000000  0.5149390000000  0.5499990000000 1.0
C      1  0.5149540000000  0.5564300000000  0.5493690000000 1.0
C      1  0.5564350000000  0.5149410000000  0.4509020000000 1.0
C      1  0.4850700000000  0.5412520000000  0.4502710000000 1.0
C      1  0.4435660000000  0.4850610000000  0.4509010000000 1.0
C      1  0.5149310000000  0.4587500000000  0.4502690000000 1.0
C      1  0.4838030000000  0.4835530000000  0.4851790000000 1.0
C      1  0.4775840000000  0.5148560000000  0.4846350000000 1.0
C      1  0.5161970000000  0.5164470000000  0.4851800000000 1.0
C      1  0.5224160000000  0.4851450000000  0.4846350000000 1.0
C      1  0.4851500000000  0.5224190000000  0.5156340000000 1.0
C      1  0.4835490000000  0.4838070000000  0.5150890000000 1.0
C      1  0.5148500000000  0.4775800000000  0.5156330000000 1.0
C      1  0.5164510000000  0.5161930000000  0.5150900000000 1.0
C      1  0.4806300000000  0.5307960000000  0.5617480000000 1.0
C      1  0.5191670000000  0.5294750000000  0.5606910000000 1.0
C      1  0.5193690000000  0.4692010000000  0.5617460000000 1.0
C      1  0.4808320000000  0.4705220000000  0.5606900000000 1.0
C      1  0.4705190000000  0.4808410000000  0.4395770000000 1.0
C      1  0.5307930000000  0.4806240000000  0.4385210000000 1.0
C      1  0.5294820000000  0.5191620000000  0.4395790000000 1.0
C      1  0.4692080000000  0.5193790000000  0.4385220000000 1.0
C      1  0.4436970000000  0.5139200000000  0.4513880000000 1.0
C      1  0.5147770000000  0.5421430000000  0.4491370000000 1.0
C      1  0.5563040000000  0.4860820000000  0.4513880000000 1.0
C      1  0.4852240000000  0.4578590000000  0.4491340000000 1.0
C      1  0.4578540000000  0.4852330000000  0.5511320000000 1.0
C      1  0.5139040000000  0.4436920000000  0.5488790000000 1.0
C      1  0.5421460000000  0.5147640000000  0.5511340000000 1.0
C      1  0.4860950000000  0.5563060000000  0.5488820000000 1.0
C      1  0.5510440000000  0.4506680000000  0.4853840000000 1.0
C      1  0.4493580000000  0.4507890000000  0.4855320000000 1.0
C      1  0.4489560000000  0.5493330000000  0.4853860000000 1.0
C      1  0.5506420000000  0.5492120000000  0.4855350000000 1.0
C      1  0.5492240000000  0.5506300000000  0.5147360000000 1.0
C      1  0.4506810000000  0.5510560000000  0.5148840000000 1.0
C      1  0.4507760000000  0.4493700000000  0.5147330000000 1.0
C      1  0.5493190000000  0.4489430000000  0.5148830000000 1.0
C      1  0.5214670000000  0.5462430000000  0.4782210000000 1.0
C      1  0.5518790000000  0.4802040000000  0.4805480000000 1.0
C      1  0.4785340000000  0.4537580000000  0.4782180000000 1.0
C      1  0.4481210000000  0.5197970000000  0.4805480000000 1.0
C      1  0.5197840000000  0.4481160000000  0.5197200000000 1.0
C      1  0.5462480000000  0.5214540000000  0.5220500000000 1.0
C      1  0.4802160000000  0.5518830000000  0.5197220000000 1.0
C      1  0.4537520000000  0.4785450000000  0.5220480000000 1.0
C      1  0.5017330000000  0.4355730000000  0.4947760000000 1.0
C      1  0.5644260000000  0.4982510000000  0.5054910000000 1.0
C      1  0.4355730000000  0.5017490000000  0.5054900000000 1.0
C      1  0.4982670000000  0.5644270000000  0.4947790000000 1.0
END
