TITL C-9269-7444-288 4.28602757177787e-05 125000 -360.442257104249 0 0 60 (C1) n - 1
REM
REM in /home/bkarasulu/CARBON/AIRSS/Generating-Clusters/EDIP-Nigel-Params/Higher-Symm/Box-15A/Only-C60/SD-CG/HFTN-CG
REM
REM
REM
REM
REM
REM ./C.cell (414f73aa93bd7a1190c7fd0f31ff2f98)
REM
REM compiler GCC version 9.2.1 20190827 (Red Hat 9.2.1-1)
REM options -cpp -mtune=generic -march=x86-64 -g -O0 -fpre-include=/usr/include/finclude/math-vector-fortran.h
REM seed -1984609912 -494731956 -1190596175 -1557446735 1198714701 684999334 -1633217987 1553273668 -220363340 419319631 610763604 -24382099 -645853610 1711239479 1930212035 -1806072817 1325372955 -2117160647 962130939 -1333861838 1871278125 -2028374449 1581626125 -1153745699 -1922700605 -712585264 707996165 -963670027 1052351673 376857231 -1076202676 -1928081580 891888094
REM
CELL 1.54180   50.00000   50.00000   50.00000   90.00000   90.00000   90.00000
LATT -1
SFAC C  
C      1  0.5210360000000  0.5441490000000  0.5010150000000 1.0
C      1  0.4634310000000  0.4690210000000  0.4612460000000 1.0
C      1  0.5368880000000  0.4302470000000  0.5222090000000 1.0
C      1  0.5495680000000  0.5264650000000  0.4719210000000 1.0
C      1  0.4483520000000  0.5056640000000  0.4798170000000 1.0
C      1  0.4925960000000  0.5748970000000  0.4870460000000 1.0
C      1  0.5581690000000  0.4461010000000  0.5316110000000 1.0
C      1  0.4893250000000  0.4771240000000  0.4732630000000 1.0
C      1  0.5255290000000  0.5080410000000  0.4255870000000 1.0
C      1  0.5687960000000  0.4706310000000  0.5221020000000 1.0
C      1  0.5155420000000  0.5488300000000  0.5436170000000 1.0
C      1  0.4970200000000  0.5086150000000  0.4716550000000 1.0
C      1  0.5183400000000  0.4687880000000  0.5116640000000 1.0
C      1  0.4801540000000  0.4693960000000  0.5519920000000 1.0
C      1  0.4373100000000  0.4715700000000  0.5107420000000 1.0
C      1  0.5338470000000  0.5265710000000  0.5460470000000 1.0
C      1  0.5073020000000  0.4544690000000  0.4616720000000 1.0
C      1  0.4880020000000  0.4735620000000  0.5042790000000 1.0
C      1  0.4711440000000  0.5546820000000  0.5294490000000 1.0
C      1  0.5526920000000  0.4562680000000  0.4769070000000 1.0
C      1  0.5287950000000  0.4753020000000  0.5443290000000 1.0
C      1  0.4468960000000  0.4870230000000  0.4462890000000 1.0
C      1  0.4628490000000  0.4344440000000  0.4961100000000 1.0
C      1  0.4670310000000  0.5364600000000  0.4546440000000 1.0
C      1  0.5081620000000  0.5589620000000  0.4682280000000 1.0
C      1  0.5318880000000  0.4930570000000  0.4489660000000 1.0
C      1  0.5053750000000  0.4558690000000  0.5511870000000 1.0
C      1  0.4828240000000  0.4996070000000  0.5159900000000 1.0
C      1  0.4296480000000  0.4971020000000  0.5014860000000 1.0
C      1  0.4904660000000  0.4261750000000  0.5012650000000 1.0
C      1  0.4939210000000  0.5451580000000  0.4468570000000 1.0
C      1  0.5485790000000  0.5520110000000  0.5081910000000 1.0
C      1  0.5097660000000  0.4305660000000  0.4797390000000 1.0
C      1  0.4338060000000  0.5169250000000  0.5230150000000 1.0
C      1  0.5239570000000  0.5022590000000  0.5584920000000 1.0
C      1  0.4619030000000  0.4575660000000  0.5137510000000 1.0
C      1  0.4534430000000  0.5376050000000  0.5111470000000 1.0
C      1  0.5663310000000  0.5348620000000  0.4941580000000 1.0
C      1  0.5240820000000  0.5160920000000  0.4862210000000 1.0
C      1  0.4877520000000  0.5433000000000  0.5518380000000 1.0
C      1  0.4953210000000  0.5684290000000  0.5164350000000 1.0
C      1  0.4654030000000  0.5793470000000  0.4787040000000 1.0
C      1  0.5341520000000  0.4644810000000  0.4540310000000 1.0
C      1  0.5346950000000  0.4931690000000  0.5043610000000 1.0
C      1  0.5080740000000  0.5289940000000  0.4289210000000 1.0
C      1  0.4384950000000  0.5546100000000  0.4921310000000 1.0
C      1  0.4736750000000  0.5172010000000  0.4938690000000 1.0
C      1  0.4710890000000  0.4962310000000  0.5437840000000 1.0
C      1  0.4524420000000  0.5146750000000  0.4420450000000 1.0
C      1  0.5344150000000  0.4386800000000  0.4934830000000 1.0
C      1  0.5090170000000  0.4324240000000  0.5331450000000 1.0
C      1  0.5557120000000  0.5090740000000  0.4499490000000 1.0
C      1  0.4822260000000  0.5161560000000  0.5629350000000 1.0
C      1  0.5625570000000  0.4930010000000  0.5387240000000 1.0
C      1  0.4503350000000  0.5581300000000  0.4657710000000 1.0
C      1  0.4559410000000  0.4433120000000  0.4698740000000 1.0
C      1  0.5036790000000  0.5055650000000  0.5777240000000 1.0
C      1  0.4424300000000  0.5004290000000  0.5441360000000 1.0
C      1  0.5600400000000  0.4796360000000  0.4947770000000 1.0
C      1  0.5577880000000  0.5210190000000  0.5294570000000 1.0
END
