TITL C-9265-7156-172 -8.40495951269334e-07 125000 -367.852437660128 0 0 60 (C1) n - 1
REM
REM in /home/bkarasulu/CARBON/AIRSS/Generating-Clusters/EDIP-Nigel-Params/Higher-Symm/Box-15A/Only-C60/SD-CG/HFTN-CG
REM
REM
REM
REM
REM
REM ./C.cell (414f73aa93bd7a1190c7fd0f31ff2f98)
REM
REM compiler GCC version 9.2.1 20190827 (Red Hat 9.2.1-1)
REM options -cpp -mtune=generic -march=x86-64 -g -O0 -fpre-include=/usr/include/finclude/math-vector-fortran.h
REM seed 1064410881 1843525436 -573286890 -1672962738 -1846756912 428122206 1318855998 -2050704247 -33159186 1043933669 -730590955 -2070064308 -1726023463 -1260694499 606840566 -588407771 -50204528 2146118589 -222533312 -1501072664 -669760536 -1909144846 -2110673373 -747739777 1082717366 1119452408 978395147 -489904336 -1532583580 1277303523 2032019097 -1286040842 -2088395418
REM
CELL 1.54180   50.00000   50.00000   50.00000   90.00000   90.00000   90.00000
LATT -1
SFAC C  
C      1  0.4235800000000  0.4589320000000  0.5107780000000 1.0
C      1  0.4845460000000  0.4541450000000  0.5593840000000 1.0
C      1  0.5567540000000  0.4545150000000  0.5332230000000 1.0
C      1  0.5335740000000  0.4593770000000  0.4654080000000 1.0
C      1  0.4817530000000  0.4543640000000  0.4414820000000 1.0
C      1  0.5709910000000  0.4584570000000  0.5090980000000 1.0
C      1  0.5138110000000  0.4527730000000  0.5598590000000 1.0
C      1  0.4406930000000  0.4562260000000  0.5330450000000 1.0
C      1  0.4684020000000  0.4583840000000  0.4670880000000 1.0
C      1  0.5196740000000  0.4548870000000  0.4402710000000 1.0
C      1  0.4494980000000  0.5296870000000  0.5454920000000 1.0
C      1  0.5290010000000  0.5278510000000  0.5693540000000 1.0
C      1  0.5631790000000  0.5298810000000  0.4918690000000 1.0
C      1  0.5144830000000  0.5304560000000  0.4222330000000 1.0
C      1  0.4390600000000  0.5256390000000  0.4629040000000 1.0
C      1  0.5491610000000  0.5282630000000  0.5475310000000 1.0
C      1  0.4694870000000  0.5277150000000  0.5674620000000 1.0
C      1  0.4385990000000  0.5276120000000  0.4921960000000 1.0
C      1  0.4834120000000  0.5301120000000  0.4235220000000 1.0
C      1  0.5566520000000  0.5296430000000  0.4623530000000 1.0
C      1  0.5294810000000  0.4792160000000  0.5666920000000 1.0
C      1  0.5730710000000  0.4806040000000  0.4920280000000 1.0
C      1  0.5144880000000  0.4787880000000  0.4240710000000 1.0
C      1  0.4429440000000  0.4767440000000  0.4668630000000 1.0
C      1  0.4410940000000  0.4792180000000  0.5537560000000 1.0
C      1  0.4693090000000  0.4783260000000  0.5669950000000 1.0
C      1  0.4268210000000  0.4802890000000  0.4931190000000 1.0
C      1  0.4852210000000  0.4784240000000  0.4251210000000 1.0
C      1  0.5581860000000  0.4785880000000  0.4653760000000 1.0
C      1  0.5566890000000  0.4788730000000  0.5514280000000 1.0
C      1  0.5134630000000  0.5038090000000  0.5741170000000 1.0
C      1  0.5596450000000  0.5031740000000  0.5061940000000 1.0
C      1  0.5258850000000  0.5045760000000  0.4350000000000 1.0
C      1  0.4446600000000  0.5012420000000  0.4481850000000 1.0
C      1  0.4350030000000  0.5048240000000  0.5373990000000 1.0
C      1  0.4854530000000  0.5028910000000  0.5617240000000 1.0
C      1  0.4414340000000  0.5014130000000  0.5079340000000 1.0
C      1  0.4736790000000  0.5037570000000  0.4369610000000 1.0
C      1  0.5558870000000  0.5035170000000  0.4470110000000 1.0
C      1  0.5634540000000  0.5042310000000  0.5366580000000 1.0
C      1  0.4843220000000  0.5523120000000  0.4456060000000 1.0
C      1  0.4608720000000  0.5460040000000  0.4985660000000 1.0
C      1  0.4861170000000  0.5541040000000  0.5454890000000 1.0
C      1  0.5337480000000  0.5437840000000  0.5282500000000 1.0
C      1  0.5265660000000  0.5373570000000  0.4686740000000 1.0
C      1  0.5150010000000  0.5522860000000  0.4445750000000 1.0
C      1  0.5430750000000  0.5486670000000  0.5015640000000 1.0
C      1  0.5142920000000  0.5554080000000  0.5466110000000 1.0
C      1  0.4695230000000  0.5400350000000  0.5253850000000 1.0
C      1  0.4748210000000  0.5369050000000  0.4702080000000 1.0
C      1  0.4698240000000  0.4883350000000  0.5095560000000 1.0
C      1  0.4907500000000  0.4953460000000  0.5320670000000 1.0
C      1  0.5266620000000  0.4521840000000  0.5321900000000 1.0
C      1  0.5225170000000  0.4851870000000  0.4798080000000 1.0
C      1  0.4854960000000  0.5079530000000  0.4646910000000 1.0
C      1  0.5313010000000  0.4956270000000  0.5053650000000 1.0
C      1  0.5191360000000  0.4838030000000  0.5295810000000 1.0
C      1  0.4695610000000  0.4616410000000  0.5259140000000 1.0
C      1  0.4796140000000  0.4829450000000  0.4816320000000 1.0
C      1  0.5146260000000  0.5086940000000  0.4630860000000 1.0
END
