TITL C-9259-5960-4 1.47478694037925e-05 125000 -347.179786097168 0 0 60 (C1) n - 1
REM
REM in /home/bkarasulu/CARBON/AIRSS/Generating-Clusters/EDIP-Nigel-Params/Higher-Symm/Box-15A/Only-C60/SD-CG/HFTN-CG
REM
REM
REM
REM
REM
REM ./C.cell (414f73aa93bd7a1190c7fd0f31ff2f98)
REM
REM compiler GCC version 9.2.1 20190827 (Red Hat 9.2.1-1)
REM options -cpp -mtune=generic -march=x86-64 -g -O0 -fpre-include=/usr/include/finclude/math-vector-fortran.h
REM seed 1194814763 -917563245 -1519760721 -792259905 1506496055 -1463090021 -1448558862 -518309213 -666895103 1402805910 2033234729 588997839 -1187561914 24231964 -1751271139 316043755 40618209 -132825186 -2043987496 143237163 -684918764 -1642793075 -1064842033 2050626699 -1644895692 824431671 1720311401 -1687648009 602151775 -614596361 -752655794 -1661697868 -328942345
REM
CELL 1.54180   50.00000   50.00000   50.00000   90.00000   90.00000   90.00000
LATT -1
SFAC C  
C      1  0.4484790000000  0.4726860000000  0.4795540000000 1.0
C      1  0.5528740000000  0.4679750000000  0.4860100000000 1.0
C      1  0.5024450000000  0.5633880000000  0.4864240000000 1.0
C      1  0.5717010000000  0.4775370000000  0.4497630000000 1.0
C      1  0.4669400000000  0.5771210000000  0.4422300000000 1.0
C      1  0.4492900000000  0.4373690000000  0.4323360000000 1.0
C      1  0.5207230000000  0.5805200000000  0.5263890000000 1.0
C      1  0.4315490000000  0.4695000000000  0.5224540000000 1.0
C      1  0.5539040000000  0.4500840000000  0.5293480000000 1.0
C      1  0.5380880000000  0.5189710000000  0.5513830000000 1.0
C      1  0.4705610000000  0.5342790000000  0.5526130000000 1.0
C      1  0.4995810000000  0.4506390000000  0.5466820000000 1.0
C      1  0.4938800000000  0.5348000000000  0.4961000000000 1.0
C      1  0.4751170000000  0.4823290000000  0.4902020000000 1.0
C      1  0.5316380000000  0.4881680000000  0.4938980000000 1.0
C      1  0.5266750000000  0.5734300000000  0.5001100000000 1.0
C      1  0.4280390000000  0.4832110000000  0.4983360000000 1.0
C      1  0.5485000000000  0.4429380000000  0.5027500000000 1.0
C      1  0.4559780000000  0.5115080000000  0.5521950000000 1.0
C      1  0.5153960000000  0.4487740000000  0.5694170000000 1.0
C      1  0.5410830000000  0.5378770000000  0.5712860000000 1.0
C      1  0.5179900000000  0.4763250000000  0.5688720000000 1.0
C      1  0.5138920000000  0.5419750000000  0.5712610000000 1.0
C      1  0.4728700000000  0.4901340000000  0.5559190000000 1.0
C      1  0.4950700000000  0.5382280000000  0.4332350000000 1.0
C      1  0.4397220000000  0.4925280000000  0.4246490000000 1.0
C      1  0.5341610000000  0.4583510000000  0.4247350000000 1.0
C      1  0.5253150000000  0.4285380000000  0.4975940000000 1.0
C      1  0.5495920000000  0.5593690000000  0.4941180000000 1.0
C      1  0.4271270000000  0.5108570000000  0.4983060000000 1.0
C      1  0.5796920000000  0.4788120000000  0.4973180000000 1.0
C      1  0.4803290000000  0.5847660000000  0.4879720000000 1.0
C      1  0.4477990000000  0.4425190000000  0.4810640000000 1.0
C      1  0.5134510000000  0.4800500000000  0.5168950000000 1.0
C      1  0.5105740000000  0.5194700000000  0.5172680000000 1.0
C      1  0.4831550000000  0.4998110000000  0.5198640000000 1.0
C      1  0.4914870000000  0.4609980000000  0.5043490000000 1.0
C      1  0.5420690000000  0.5125440000000  0.5078650000000 1.0
C      1  0.4672830000000  0.5394220000000  0.5087110000000 1.0
C      1  0.5517760000000  0.5330080000000  0.4907150000000 1.0
C      1  0.4438380000000  0.5315770000000  0.4958820000000 1.0
C      1  0.4986850000000  0.4341750000000  0.4937350000000 1.0
C      1  0.5279740000000  0.4572840000000  0.4510360000000 1.0
C      1  0.5107150000000  0.5571480000000  0.4449560000000 1.0
C      1  0.4435870000000  0.4827280000000  0.4511210000000 1.0
C      1  0.5727400000000  0.4933580000000  0.5209540000000 1.0
C      1  0.4743880000000  0.5692090000000  0.5135100000000 1.0
C      1  0.4621140000000  0.4340150000000  0.5051720000000 1.0
C      1  0.5553000000000  0.4560920000000  0.4435350000000 1.0
C      1  0.4882040000000  0.5654270000000  0.4290180000000 1.0
C      1  0.4446960000000  0.4644160000000  0.4270260000000 1.0
C      1  0.4542900000000  0.4533800000000  0.5269520000000 1.0
C      1  0.5580040000000  0.4763670000000  0.5387380000000 1.0
C      1  0.4958780000000  0.5705720000000  0.5347920000000 1.0
C      1  0.5833600000000  0.4894390000000  0.4715100000000 1.0
C      1  0.4621740000000  0.5855130000000  0.4671500000000 1.0
C      1  0.4509300000000  0.4284950000000  0.4574810000000 1.0
C      1  0.4957730000000  0.5457070000000  0.5495920000000 1.0
C      1  0.4744870000000  0.4640130000000  0.5448400000000 1.0
C      1  0.5370720000000  0.4902750000000  0.5528130000000 1.0
END
