TITL C-9263-351-27 -2.14643424434665e-06 125000 -366.332736601404 0 0 60 (Ci) n - 1
REM
REM in /home/bkarasulu/CARBON/AIRSS/Generating-Clusters/EDIP-Nigel-Params/Higher-Symm/Box-15A/Only-C60/SD-CG/HFTN-CG
REM
REM
REM
REM
REM
REM ./C.cell (414f73aa93bd7a1190c7fd0f31ff2f98)
REM
REM compiler GCC version 9.2.1 20190827 (Red Hat 9.2.1-1)
REM options -cpp -mtune=generic -march=x86-64 -g -O0 -fpre-include=/usr/include/finclude/math-vector-fortran.h
REM seed -1827076082 -764976079 -588277175 1264778037 -886762460 244171263 -1894723245 -411491078 1284099595 269566314 1091940798 1711506312 1737695739 -363192930 1704989740 461447447 1643695592 731319000 -352061346 -573587269 -878659653 4104643 1995181156 -1429432247 -464150696 -112520406 1120707535 1038858026 -86668111 634777236 2045342560 1373382985 631966878
REM
CELL 1.54180   50.00000   50.00000   50.00000   90.00000   90.00000   90.00000
LATT -1
SFAC C  
C      1  0.4918450000000  0.4949870000000  0.5718340000000 1.0
C      1  0.5081550000000  0.5050130000000  0.4281660000000 1.0
C      1  0.4499010000000  0.5275760000000  0.5489030000000 1.0
C      1  0.5500990000000  0.4724240000000  0.4510970000000 1.0
C      1  0.4770930000000  0.5221040000000  0.5638680000000 1.0
C      1  0.5229070000000  0.4778960000000  0.4361320000000 1.0
C      1  0.5568100000000  0.4693710000000  0.5301530000000 1.0
C      1  0.4431900000000  0.5306290000000  0.4698470000000 1.0
C      1  0.5074480000000  0.4347800000000  0.5231530000000 1.0
C      1  0.4925520000000  0.5652200000000  0.4768470000000 1.0
C      1  0.5652230000000  0.5171890000000  0.5158240000000 1.0
C      1  0.4347770000000  0.4828110000000  0.4841760000000 1.0
C      1  0.4780580000000  0.4808250000000  0.4538960000000 1.0
C      1  0.5219420000000  0.5191750000000  0.5461040000000 1.0
C      1  0.5070260000000  0.4213380000000  0.4984340000000 1.0
C      1  0.4929740000000  0.5786620000000  0.5015660000000 1.0
C      1  0.5805750000000  0.4806960000000  0.4885650000000 1.0
C      1  0.4194250000000  0.5193040000000  0.5114350000000 1.0
C      1  0.4900520000000  0.5439420000000  0.4583470000000 1.0
C      1  0.5099480000000  0.4560580000000  0.5416530000000 1.0
C      1  0.5460080000000  0.4492720000000  0.4690890000000 1.0
C      1  0.4539920000000  0.5507280000000  0.5309110000000 1.0
C      1  0.4594890000000  0.4671940000000  0.5478730000000 1.0
C      1  0.5405110000000  0.5328060000000  0.4521270000000 1.0
C      1  0.4845650000000  0.4275450000000  0.4801310000000 1.0
C      1  0.5154350000000  0.5724550000000  0.5198690000000 1.0
C      1  0.5374100000000  0.4634130000000  0.5494040000000 1.0
C      1  0.4625900000000  0.5365870000000  0.4505960000000 1.0
C      1  0.5272000000000  0.4274410000000  0.4680480000000 1.0
C      1  0.4728000000000  0.5725590000000  0.5319520000000 1.0
C      1  0.5024730000000  0.4856080000000  0.5016000000000 1.0
C      1  0.4975270000000  0.5143920000000  0.4984000000000 1.0
C      1  0.4866560000000  0.4707220000000  0.5546760000000 1.0
C      1  0.5133440000000  0.5292780000000  0.4453240000000 1.0
C      1  0.5706060000000  0.5344150000000  0.4913130000000 1.0
C      1  0.4293940000000  0.4655850000000  0.5086870000000 1.0
C      1  0.4619110000000  0.5196640000000  0.4284810000000 1.0
C      1  0.5380890000000  0.4803360000000  0.5715190000000 1.0
C      1  0.5210380000000  0.5024490000000  0.5700800000000 1.0
C      1  0.4789620000000  0.4975510000000  0.4299200000000 1.0
C      1  0.5620450000000  0.5209840000000  0.4661860000000 1.0
C      1  0.4379550000000  0.4790160000000  0.5338140000000 1.0
C      1  0.5331830000000  0.5498630000000  0.5095190000000 1.0
C      1  0.4668170000000  0.4501370000000  0.4904810000000 1.0
C      1  0.4352680000000  0.5079990000000  0.5321000000000 1.0
C      1  0.5647320000000  0.4920010000000  0.4679000000000 1.0
C      1  0.4988670000000  0.5642060000000  0.5430920000000 1.0
C      1  0.5011330000000  0.4357940000000  0.4569080000000 1.0
C      1  0.4820400000000  0.5268240000000  0.5186090000000 1.0
C      1  0.5179600000000  0.4731760000000  0.4813910000000 1.0
C      1  0.4328590000000  0.5119270000000  0.4879040000000 1.0
C      1  0.5671410000000  0.4880730000000  0.5120960000000 1.0
C      1  0.4428940000000  0.4404070000000  0.5049650000000 1.0
C      1  0.5571060000000  0.5595930000000  0.4950350000000 1.0
C      1  0.5037340000000  0.4660910000000  0.4565400000000 1.0
C      1  0.4962660000000  0.5339090000000  0.5434600000000 1.0
C      1  0.4560950000000  0.4683840000000  0.4684300000000 1.0
C      1  0.5439050000000  0.5316160000000  0.5315700000000 1.0
C      1  0.5181940000000  0.5324120000000  0.4909370000000 1.0
C      1  0.4818060000000  0.4675880000000  0.5090630000000 1.0
END
