TITL C-9268-6400-298 7.27630268228294e-07 125000 -359.657471136004 0 0 60 (D2) n - 1
REM
REM in /home/bkarasulu/CARBON/AIRSS/Generating-Clusters/EDIP-Nigel-Params/Higher-Symm/Box-15A/Only-C60/SD-CG/HFTN-CG
REM
REM
REM
REM
REM
REM ./C.cell (414f73aa93bd7a1190c7fd0f31ff2f98)
REM
REM compiler GCC version 9.2.1 20190827 (Red Hat 9.2.1-1)
REM options -cpp -mtune=generic -march=x86-64 -g -O0 -fpre-include=/usr/include/finclude/math-vector-fortran.h
REM seed -1206028079 -855887369 -430832779 1780428148 -1409323685 -2099712415 704495919 -1064032238 252272197 454002200 1799199882 1753013428 1650830918 1739410599 467461865 596939154 1233687939 1407679874 1837741073 1564303999 1077454332 -845784044 550828828 344225755 178377903 -1483176541 -1772371079 -1636860689 2045217024 1709980867 701246528 864518021 -24137357
REM
CELL 1.54180   50.00000   50.00000   50.00000   90.00000   90.00000   90.00000
LATT -1
SFAC C  
C      1  0.5056510000000  0.4338330000000  0.5296690000000 1.0
C      1  0.4934520000000  0.5666650000000  0.5283390000000 1.0
C      1  0.4933510000000  0.4334320000000  0.4714560000000 1.0
C      1  0.5075450000000  0.5660690000000  0.4705360000000 1.0
C      1  0.4710530000000  0.4854470000000  0.4419530000000 1.0
C      1  0.5307300000000  0.5135610000000  0.4426340000000 1.0
C      1  0.5287320000000  0.4860000000000  0.5582890000000 1.0
C      1  0.4694850000000  0.5149920000000  0.5571240000000 1.0
C      1  0.5542270000000  0.4250260000000  0.5324650000000 1.0
C      1  0.4448150000000  0.5755060000000  0.5294820000000 1.0
C      1  0.4446470000000  0.4253100000000  0.4688040000000 1.0
C      1  0.5563100000000  0.5741580000000  0.4692500000000 1.0
C      1  0.5517900000000  0.5101360000000  0.5116660000000 1.0
C      1  0.4478720000000  0.4900520000000  0.5102330000000 1.0
C      1  0.4483670000000  0.5107150000000  0.4881570000000 1.0
C      1  0.5519710000000  0.4890970000000  0.4899440000000 1.0
C      1  0.4590110000000  0.4946280000000  0.5383160000000 1.0
C      1  0.5397870000000  0.5060400000000  0.5394660000000 1.0
C      1  0.5408980000000  0.4933640000000  0.4617850000000 1.0
C      1  0.4603030000000  0.5059680000000  0.4604320000000 1.0
C      1  0.5368820000000  0.5407010000000  0.4436230000000 1.0
C      1  0.4648660000000  0.4583270000000  0.4432180000000 1.0
C      1  0.4637410000000  0.5422000000000  0.5556750000000 1.0
C      1  0.5345100000000  0.4587720000000  0.5574850000000 1.0
C      1  0.5110580000000  0.4951570000000  0.5776850000000 1.0
C      1  0.4865490000000  0.5061740000000  0.5772120000000 1.0
C      1  0.4888610000000  0.4940080000000  0.4224060000000 1.0
C      1  0.5135320000000  0.5046610000000  0.4226960000000 1.0
C      1  0.4707810000000  0.5323330000000  0.4515160000000 1.0
C      1  0.5306940000000  0.4668470000000  0.4530040000000 1.0
C      1  0.5297080000000  0.5327070000000  0.5479330000000 1.0
C      1  0.4688170000000  0.4681140000000  0.5475470000000 1.0
C      1  0.4496020000000  0.5399670000000  0.4926490000000 1.0
C      1  0.5505910000000  0.4599260000000  0.4948970000000 1.0
C      1  0.5509940000000  0.5393240000000  0.5066790000000 1.0
C      1  0.4488130000000  0.4607830000000  0.5057750000000 1.0
C      1  0.4977810000000  0.4782000000000  0.4868290000000 1.0
C      1  0.5026310000000  0.5215710000000  0.4865310000000 1.0
C      1  0.5018930000000  0.4783960000000  0.5135390000000 1.0
C      1  0.4976960000000  0.5218330000000  0.5131010000000 1.0
C      1  0.4980900000000  0.4627860000000  0.5372230000000 1.0
C      1  0.5007690000000  0.5378480000000  0.5366200000000 1.0
C      1  0.5013460000000  0.4621360000000  0.4634130000000 1.0
C      1  0.4997950000000  0.5372300000000  0.4627440000000 1.0
C      1  0.5307660000000  0.4338750000000  0.5450430000000 1.0
C      1  0.4678740000000  0.5668810000000  0.5429290000000 1.0
C      1  0.4682370000000  0.4335910000000  0.4560800000000 1.0
C      1  0.5331220000000  0.5656530000000  0.4559480000000 1.0
C      1  0.4569200000000  0.4473730000000  0.5305480000000 1.0
C      1  0.5421300000000  0.5531550000000  0.5309560000000 1.0
C      1  0.5422800000000  0.4462210000000  0.4703540000000 1.0
C      1  0.4586700000000  0.5532500000000  0.4681420000000 1.0
C      1  0.4372850000000  0.4450510000000  0.4858610000000 1.0
C      1  0.5631360000000  0.5547150000000  0.4868630000000 1.0
C      1  0.5618830000000  0.4443620000000  0.5150760000000 1.0
C      1  0.4376950000000  0.5558730000000  0.5122000000000 1.0
C      1  0.5212290000000  0.5725870000000  0.5301520000000 1.0
C      1  0.4778300000000  0.4279360000000  0.5307240000000 1.0
C      1  0.4798610000000  0.5723760000000  0.4686200000000 1.0
C      1  0.5210800000000  0.4271010000000  0.4705050000000 1.0
END
