TITL C-9258-7861-22 -2.77749663908032e-06 125000 -359.195270949605 0 0 60 (C1) n - 1
REM
REM in /home/bkarasulu/CARBON/AIRSS/Generating-Clusters/EDIP-Nigel-Params/Higher-Symm/Box-15A/Only-C60/SD-CG/HFTN-CG
REM
REM
REM
REM
REM
REM ./C.cell (414f73aa93bd7a1190c7fd0f31ff2f98)
REM
REM compiler GCC version 9.2.1 20190827 (Red Hat 9.2.1-1)
REM options -cpp -mtune=generic -march=x86-64 -g -O0 -fpre-include=/usr/include/finclude/math-vector-fortran.h
REM seed 1110713107 -1779158731 -1069388845 1302612766 449957401 -1904510054 -180971745 361025057 -1201027753 1814854234 -1093675009 -1117002495 1468488420 -1083591767 203432721 194575979 1512745711 373569188 -1044676900 1972465479 -551501572 257215972 -295674262 1919542164 -837132575 1265629646 -194837703 1173084022 -1918185422 -1050482140 1446976032 -909780472 1063451804
REM
CELL 1.54180   50.00000   50.00000   50.00000   90.00000   90.00000   90.00000
LATT -1
SFAC C  
C      1  0.4368720000000  0.5522850000000  0.4772440000000 1.0
C      1  0.5232700000000  0.4481550000000  0.4387840000000 1.0
C      1  0.5610100000000  0.5510230000000  0.5223080000000 1.0
C      1  0.4774990000000  0.4455160000000  0.5641270000000 1.0
C      1  0.5293420000000  0.4817850000000  0.5618310000000 1.0
C      1  0.4397200000000  0.5169440000000  0.5288220000000 1.0
C      1  0.4725860000000  0.4851260000000  0.4404030000000 1.0
C      1  0.5580200000000  0.5177260000000  0.4702510000000 1.0
C      1  0.5106680000000  0.4375580000000  0.4898990000000 1.0
C      1  0.5090900000000  0.5642050000000  0.5111150000000 1.0
C      1  0.4881350000000  0.4345150000000  0.5102490000000 1.0
C      1  0.4887900000000  0.5648550000000  0.4879630000000 1.0
C      1  0.5116780000000  0.5048610000000  0.5635390000000 1.0
C      1  0.4436020000000  0.4942150000000  0.5103180000000 1.0
C      1  0.4919380000000  0.5085020000000  0.4407480000000 1.0
C      1  0.5591160000000  0.4939680000000  0.4891190000000 1.0
C      1  0.5458930000000  0.5260740000000  0.5279780000000 1.0
C      1  0.4707590000000  0.4705050000000  0.5493640000000 1.0
C      1  0.4513670000000  0.5276630000000  0.4689770000000 1.0
C      1  0.5297510000000  0.4725720000000  0.4544010000000 1.0
C      1  0.5402230000000  0.4573080000000  0.5260060000000 1.0
C      1  0.4746160000000  0.5419650000000  0.5398620000000 1.0
C      1  0.4608060000000  0.4608220000000  0.4762940000000 1.0
C      1  0.5235250000000  0.5445800000000  0.4581410000000 1.0
C      1  0.4755070000000  0.5353530000000  0.4453930000000 1.0
C      1  0.5504710000000  0.4673570000000  0.4769470000000 1.0
C      1  0.5225280000000  0.5293410000000  0.5491620000000 1.0
C      1  0.4496790000000  0.4673870000000  0.5259830000000 1.0
C      1  0.5003140000000  0.5096940000000  0.4702850000000 1.0
C      1  0.5225160000000  0.4901270000000  0.5023040000000 1.0
C      1  0.4954540000000  0.5062490000000  0.5228430000000 1.0
C      1  0.4733690000000  0.4951950000000  0.5014050000000 1.0
C      1  0.5171690000000  0.4614550000000  0.5441920000000 1.0
C      1  0.4569000000000  0.5379220000000  0.5167830000000 1.0
C      1  0.4841580000000  0.4643890000000  0.4586180000000 1.0
C      1  0.5398860000000  0.5376970000000  0.4821820000000 1.0
C      1  0.5375890000000  0.4490980000000  0.4972770000000 1.0
C      1  0.5029860000000  0.5474790000000  0.5356860000000 1.0
C      1  0.4640310000000  0.4520970000000  0.5046960000000 1.0
C      1  0.4956370000000  0.5529760000000  0.4605650000000 1.0
C      1  0.5577280000000  0.4783580000000  0.5363100000000 1.0
C      1  0.4640830000000  0.5205550000000  0.5570150000000 1.0
C      1  0.4430640000000  0.4806930000000  0.4630990000000 1.0
C      1  0.5455520000000  0.5169030000000  0.4432340000000 1.0
C      1  0.5616560000000  0.5009090000000  0.5194330000000 1.0
C      1  0.4812550000000  0.4982610000000  0.5635120000000 1.0
C      1  0.4355650000000  0.5025430000000  0.4798180000000 1.0
C      1  0.5256040000000  0.4974500000000  0.4368340000000 1.0
C      1  0.4771800000000  0.5224170000000  0.4871000000000 1.0
C      1  0.5071630000000  0.4793660000000  0.4745870000000 1.0
C      1  0.5243060000000  0.5230470000000  0.5055230000000 1.0
C      1  0.4936660000000  0.4740240000000  0.5288670000000 1.0
C      1  0.5553550000000  0.5598840000000  0.4951720000000 1.0
C      1  0.5049930000000  0.4377870000000  0.5580320000000 1.0
C      1  0.4426110000000  0.5606220000000  0.5044020000000 1.0
C      1  0.4957000000000  0.4406700000000  0.4440110000000 1.0
C      1  0.4927500000000  0.4226400000000  0.5367430000000 1.0
C      1  0.4627340000000  0.5770100000000  0.4921530000000 1.0
C      1  0.5071800000000  0.4241840000000  0.4645020000000 1.0
C      1  0.5353890000000  0.5761340000000  0.5075930000000 1.0
END
