TITL C-9257-5531-276 6.72558992641156e-06 125000 -357.736923385072 0 0 60 (C2) n - 1
REM
REM in /home/bkarasulu/CARBON/AIRSS/Generating-Clusters/EDIP-Nigel-Params/Higher-Symm/Box-15A/Only-C60/SD-CG/HFTN-CG
REM
REM
REM
REM
REM
REM ./C.cell (414f73aa93bd7a1190c7fd0f31ff2f98)
REM
REM compiler GCC version 9.2.1 20190827 (Red Hat 9.2.1-1)
REM options -cpp -mtune=generic -march=x86-64 -g -O0 -fpre-include=/usr/include/finclude/math-vector-fortran.h
REM seed 1653174856 260423405 -1467328591 2114997187 -269494520 1412639693 -1180321016 1778880469 751395964 740348230 -50903913 2057414039 -1198468152 -1729638452 1711149679 1865594726 1556276203 982161300 -1070665935 -684236643 -1285315131 -1361312196 971714270 -157735012 403599502 563914102 -777397980 -862504838 -1335651575 -298363960 -974021547 831921763 -1819312420
REM
CELL 1.54180   50.00000   50.00000   50.00000   90.00000   90.00000   90.00000
LATT -1
SFAC C  
C      1  0.4356460000000  0.5365010000000  0.5446240000000 1.0
C      1  0.5245540000000  0.5554860000000  0.5461210000000 1.0
C      1  0.5643580000000  0.4634940000000  0.5446140000000 1.0
C      1  0.4754510000000  0.4445090000000  0.5461180000000 1.0
C      1  0.4429980000000  0.4694770000000  0.4495210000000 1.0
C      1  0.5235950000000  0.4444850000000  0.4514940000000 1.0
C      1  0.5569970000000  0.5305290000000  0.4495190000000 1.0
C      1  0.4764000000000  0.5555200000000  0.4515020000000 1.0
C      1  0.4830920000000  0.5332060000000  0.4319470000000 1.0
C      1  0.5354290000000  0.5226630000000  0.4292810000000 1.0
C      1  0.5169020000000  0.4668010000000  0.4319420000000 1.0
C      1  0.4645640000000  0.4773440000000  0.4292830000000 1.0
C      1  0.4853750000000  0.4672690000000  0.5649810000000 1.0
C      1  0.5479600000000  0.4677130000000  0.5689870000000 1.0
C      1  0.5146310000000  0.5327240000000  0.5649830000000 1.0
C      1  0.4520470000000  0.5322800000000  0.5689950000000 1.0
C      1  0.5343290000000  0.4912190000000  0.4370900000000 1.0
C      1  0.4919100000000  0.4801440000000  0.4436750000000 1.0
C      1  0.4656650000000  0.5087870000000  0.4370950000000 1.0
C      1  0.5080850000000  0.5198610000000  0.4436760000000 1.0
C      1  0.5263830000000  0.5074450000000  0.5537430000000 1.0
C      1  0.4786430000000  0.5209970000000  0.5606850000000 1.0
C      1  0.4736220000000  0.4925490000000  0.5537440000000 1.0
C      1  0.5213630000000  0.4789970000000  0.5606810000000 1.0
C      1  0.5334070000000  0.4602020000000  0.4767610000000 1.0
C      1  0.4584290000000  0.4683700000000  0.4767160000000 1.0
C      1  0.4665910000000  0.5398010000000  0.4767680000000 1.0
C      1  0.5415680000000  0.5316330000000  0.4767150000000 1.0
C      1  0.5317110000000  0.5380440000000  0.5218190000000 1.0
C      1  0.4546840000000  0.5361250000000  0.5206440000000 1.0
C      1  0.4682910000000  0.4619530000000  0.5218180000000 1.0
C      1  0.5453180000000  0.4638730000000  0.5206360000000 1.0
C      1  0.5703140000000  0.4923460000000  0.5500460000000 1.0
C      1  0.5038630000000  0.4383310000000  0.5454900000000 1.0
C      1  0.4296910000000  0.5076490000000  0.5500540000000 1.0
C      1  0.4961420000000  0.5616640000000  0.5454970000000 1.0
C      1  0.5741190000000  0.5075200000000  0.4521720000000 1.0
C      1  0.5034770000000  0.5634910000000  0.4589290000000 1.0
C      1  0.4258760000000  0.4924850000000  0.4521780000000 1.0
C      1  0.4965190000000  0.4365140000000  0.4589230000000 1.0
C      1  0.5499470000000  0.5100350000000  0.5352520000000 1.0
C      1  0.5170960000000  0.4623440000000  0.5341180000000 1.0
C      1  0.4500570000000  0.4899620000000  0.5352550000000 1.0
C      1  0.4829070000000  0.5376520000000  0.5341230000000 1.0
C      1  0.5533770000000  0.4879430000000  0.4610850000000 1.0
C      1  0.5130500000000  0.5367440000000  0.4678410000000 1.0
C      1  0.4466190000000  0.5120610000000  0.4610920000000 1.0
C      1  0.4869470000000  0.4632590000000  0.4678390000000 1.0
C      1  0.5065860000000  0.4708210000000  0.4874550000000 1.0
C      1  0.4571990000000  0.4973510000000  0.4849780000000 1.0
C      1  0.4934130000000  0.5291800000000  0.4874590000000 1.0
C      1  0.5427990000000  0.5026510000000  0.4849740000000 1.0
C      1  0.5032610000000  0.5288560000000  0.5144840000000 1.0
C      1  0.4519520000000  0.5077340000000  0.5115830000000 1.0
C      1  0.4967400000000  0.4711430000000  0.5144810000000 1.0
C      1  0.5480490000000  0.4922650000000  0.5115770000000 1.0
C      1  0.5479620000000  0.4458540000000  0.4976590000000 1.0
C      1  0.4530870000000  0.4506840000000  0.4993500000000 1.0
C      1  0.4520370000000  0.5541460000000  0.4976690000000 1.0
C      1  0.5469130000000  0.5493160000000  0.4993510000000 1.0
END
