TITL C-9267-1554-67 7.07049772210373e-05 125000 -357.541825468746 0 0 60 (C1) n - 1
REM
REM in /home/bkarasulu/CARBON/AIRSS/Generating-Clusters/EDIP-Nigel-Params/Higher-Symm/Box-15A/Only-C60/SD-CG/HFTN-CG
REM
REM
REM
REM
REM
REM ./C.cell (414f73aa93bd7a1190c7fd0f31ff2f98)
REM
REM compiler GCC version 9.2.1 20190827 (Red Hat 9.2.1-1)
REM options -cpp -mtune=generic -march=x86-64 -g -O0 -fpre-include=/usr/include/finclude/math-vector-fortran.h
REM seed -150820082 1882744304 -1050648949 552601387 1903794724 121251723 -1878062471 -196216998 -450016372 1028637071 -851549871 -1062436786 796254685 488794564 -183072211 -968166256 236154311 2084594440 1233157288 1723514297 -1582490935 -342225109 -623257438 370641793 -545180776 2116779829 1469239393 -924007330 1348435680 1918005379 1373313441 1191726195 766657426
REM
CELL 1.54180   50.00000   50.00000   50.00000   90.00000   90.00000   90.00000
LATT -1
SFAC C  
C      1  0.4500950000000  0.5049120000000  0.5410040000000 1.0
C      1  0.5477700000000  0.5068780000000  0.5548110000000 1.0
C      1  0.4457340000000  0.5157260000000  0.5139430000000 1.0
C      1  0.5559580000000  0.5131270000000  0.5171600000000 1.0
C      1  0.5223690000000  0.5209020000000  0.5562280000000 1.0
C      1  0.4694760000000  0.5222410000000  0.5560490000000 1.0
C      1  0.5196630000000  0.5737280000000  0.4877120000000 1.0
C      1  0.4761730000000  0.5808310000000  0.4900940000000 1.0
C      1  0.4910680000000  0.4972910000000  0.5262350000000 1.0
C      1  0.5386840000000  0.4787090000000  0.5198570000000 1.0
C      1  0.5501570000000  0.4801740000000  0.5457370000000 1.0
C      1  0.4600870000000  0.4783400000000  0.5392220000000 1.0
C      1  0.5417630000000  0.5387510000000  0.5151420000000 1.0
C      1  0.4517320000000  0.5444820000000  0.5140280000000 1.0
C      1  0.4421550000000  0.4577650000000  0.5366270000000 1.0
C      1  0.5755810000000  0.4690880000000  0.5458210000000 1.0
C      1  0.5829050000000  0.4797590000000  0.4921450000000 1.0
C      1  0.4267670000000  0.4734980000000  0.4933490000000 1.0
C      1  0.4503860000000  0.5484870000000  0.4641870000000 1.0
C      1  0.5478420000000  0.5407210000000  0.4661910000000 1.0
C      1  0.5222420000000  0.5422860000000  0.5362270000000 1.0
C      1  0.4695350000000  0.5481700000000  0.5389590000000 1.0
C      1  0.6049670000000  0.4820460000000  0.5087940000000 1.0
C      1  0.4042590000000  0.4687140000000  0.5087790000000 1.0
C      1  0.5632820000000  0.5009530000000  0.4900910000000 1.0
C      1  0.4393210000000  0.4991100000000  0.4900790000000 1.0
C      1  0.5351250000000  0.5198920000000  0.4525680000000 1.0
C      1  0.4666330000000  0.5264260000000  0.4576360000000 1.0
C      1  0.4192140000000  0.4507210000000  0.5234550000000 1.0
C      1  0.5930070000000  0.4632440000000  0.5252210000000 1.0
C      1  0.4575090000000  0.5011090000000  0.4676080000000 1.0
C      1  0.5404800000000  0.4969710000000  0.4703680000000 1.0
C      1  0.5299300000000  0.5453680000000  0.4889420000000 1.0
C      1  0.4599870000000  0.5572970000000  0.4888450000000 1.0
C      1  0.5013330000000  0.4543180000000  0.5033370000000 1.0
C      1  0.4921960000000  0.4859180000000  0.4650500000000 1.0
C      1  0.4880480000000  0.4342820000000  0.4508270000000 1.0
C      1  0.4978440000000  0.5587900000000  0.5306330000000 1.0
C      1  0.5114830000000  0.4810500000000  0.5096320000000 1.0
C      1  0.4979170000000  0.5551880000000  0.4169300000000 1.0
C      1  0.5057210000000  0.5261320000000  0.4864940000000 1.0
C      1  0.4920770000000  0.4539980000000  0.4312860000000 1.0
C      1  0.4825100000000  0.4171060000000  0.4826840000000 1.0
C      1  0.4963970000000  0.5046440000000  0.5556900000000 1.0
C      1  0.4943930000000  0.4297340000000  0.5468680000000 1.0
C      1  0.5016300000000  0.4613580000000  0.5942620000000 1.0
C      1  0.5038650000000  0.5785740000000  0.4635640000000 1.0
C      1  0.4979570000000  0.4468300000000  0.5697680000000 1.0
C      1  0.4967520000000  0.4778300000000  0.5716300000000 1.0
C      1  0.4826140000000  0.4132060000000  0.5115850000000 1.0
C      1  0.4974680000000  0.5032050000000  0.4210810000000 1.0
C      1  0.5028580000000  0.5565860000000  0.4446420000000 1.0
C      1  0.4931620000000  0.4435740000000  0.4779010000000 1.0
C      1  0.4986110000000  0.4804930000000  0.4377620000000 1.0
C      1  0.4993140000000  0.5794100000000  0.5081390000000 1.0
C      1  0.4889060000000  0.4372430000000  0.5218450000000 1.0
C      1  0.4886150000000  0.5255860000000  0.5129110000000 1.0
C      1  0.5131300000000  0.4963440000000  0.4834410000000 1.0
C      1  0.4973000000000  0.5284500000000  0.4110390000000 1.0
C      1  0.4975100000000  0.5292770000000  0.4552330000000 1.0
END
