TITL C-9266-5713-8 -6.12800324741284e-07 125000 -374.590567466896 0 0 60 (C1) n - 1
REM
REM in /home/bkarasulu/CARBON/AIRSS/Generating-Clusters/EDIP-Nigel-Params/Higher-Symm/Box-15A/Only-C60/SD-CG/HFTN-CG
REM
REM
REM
REM
REM
REM ./C.cell (414f73aa93bd7a1190c7fd0f31ff2f98)
REM
REM compiler GCC version 9.2.1 20190827 (Red Hat 9.2.1-1)
REM options -cpp -mtune=generic -march=x86-64 -g -O0 -fpre-include=/usr/include/finclude/math-vector-fortran.h
REM seed 488690180 892941396 -1891440050 2039398571 -500988086 2129668682 349375445 -2066248874 1209891624 1335761994 864848563 -965095718 -1933244518 346145538 1011448490 -1832302326 1045306712 1798534662 1007336996 1658195901 389666534 55146554 -1476500936 -784645198 1146729442 -339091491 1237442521 -422290524 -909705087 -1146426811 977667682 -2068157350 1672305535
REM
CELL 1.54180   50.00000   50.00000   50.00000   90.00000   90.00000   90.00000
LATT -1
SFAC C  
C      1  0.5204290000000  0.5065300000000  0.5118350000000 1.0
C      1  0.4940270000000  0.5076400000000  0.5231020000000 1.0
C      1  0.4739310000000  0.5080700000000  0.5018910000000 1.0
C      1  0.4892300000000  0.5071700000000  0.4771680000000 1.0
C      1  0.5174630000000  0.5069530000000  0.4833060000000 1.0
C      1  0.5074010000000  0.4654290000000  0.4408270000000 1.0
C      1  0.5588990000000  0.4653460000000  0.4885330000000 1.0
C      1  0.5297830000000  0.4649530000000  0.5525770000000 1.0
C      1  0.4569710000000  0.4619060000000  0.5488160000000 1.0
C      1  0.4460770000000  0.4666670000000  0.4756830000000 1.0
C      1  0.5096020000000  0.5571130000000  0.4565000000000 1.0
C      1  0.5437290000000  0.5568580000000  0.4957600000000 1.0
C      1  0.5175280000000  0.5562440000000  0.5409700000000 1.0
C      1  0.4662100000000  0.5558630000000  0.5300760000000 1.0
C      1  0.4616350000000  0.5573210000000  0.4768570000000 1.0
C      1  0.4894180000000  0.5071730000000  0.5519420000000 1.0
C      1  0.4441230000000  0.5117890000000  0.5037840000000 1.0
C      1  0.4782450000000  0.5095740000000  0.4502780000000 1.0
C      1  0.5394770000000  0.5090760000000  0.4642450000000 1.0
C      1  0.5456180000000  0.5089950000000  0.5266120000000 1.0
C      1  0.4613810000000  0.5116140000000  0.5596870000000 1.0
C      1  0.4283510000000  0.5150430000000  0.4789990000000 1.0
C      1  0.4960350000000  0.5140320000000  0.4267160000000 1.0
C      1  0.5675420000000  0.5139350000000  0.4735080000000 1.0
C      1  0.5460790000000  0.5135400000000  0.5562810000000 1.0
C      1  0.5496750000000  0.4494620000000  0.5113960000000 1.0
C      1  0.5056500000000  0.4482450000000  0.5510820000000 1.0
C      1  0.4560940000000  0.4532360000000  0.5207710000000 1.0
C      1  0.4673040000000  0.4506240000000  0.4633510000000 1.0
C      1  0.5260640000000  0.4498760000000  0.4573390000000 1.0
C      1  0.5758920000000  0.4891790000000  0.4914010000000 1.0
C      1  0.5322630000000  0.4885610000000  0.5700090000000 1.0
C      1  0.4470180000000  0.4870170000000  0.5570020000000 1.0
C      1  0.4336030000000  0.4894450000000  0.4614470000000 1.0
C      1  0.5154840000000  0.4890260000000  0.4249760000000 1.0
C      1  0.4905640000000  0.5638590000000  0.5412780000000 1.0
C      1  0.4590060000000  0.5644080000000  0.5041540000000 1.0
C      1  0.4834440000000  0.5659980000000  0.4614220000000 1.0
C      1  0.5311620000000  0.5657010000000  0.4722770000000 1.0
C      1  0.5354930000000  0.5651880000000  0.5212920000000 1.0
C      1  0.5254330000000  0.4338090000000  0.5058240000000 1.0
C      1  0.5032700000000  0.4336310000000  0.5257680000000 1.0
C      1  0.4776050000000  0.4360170000000  0.5112130000000 1.0
C      1  0.4838450000000  0.4359170000000  0.4824250000000 1.0
C      1  0.5131260000000  0.4346800000000  0.4788310000000 1.0
C      1  0.5336380000000  0.5133330000000  0.4354720000000 1.0
C      1  0.5711430000000  0.5132690000000  0.5119650000000 1.0
C      1  0.5109980000000  0.5124430000000  0.5721370000000 1.0
C      1  0.4301800000000  0.5220710000000  0.5260540000000 1.0
C      1  0.4491550000000  0.5136100000000  0.4465290000000 1.0
C      1  0.5146880000000  0.5389690000000  0.4336110000000 1.0
C      1  0.5670040000000  0.5388180000000  0.4933780000000 1.0
C      1  0.5271890000000  0.5382590000000  0.5623140000000 1.0
C      1  0.4502940000000  0.5333210000000  0.5420020000000 1.0
C      1  0.4414180000000  0.5397140000000  0.4637520000000 1.0
C      1  0.4804640000000  0.4541140000000  0.5619510000000 1.0
C      1  0.4365800000000  0.4593460000000  0.5014280000000 1.0
C      1  0.4805220000000  0.4569160000000  0.4393620000000 1.0
C      1  0.5528830000000  0.4564730000000  0.4624480000000 1.0
C      1  0.5526630000000  0.4566340000000  0.5383860000000 1.0
END
