TITL C-9258-7861-253 -8.53646660126083e-07 125000 -367.064166239166 0 0 60 (C1) n - 1
REM
REM in /home/bkarasulu/CARBON/AIRSS/Generating-Clusters/EDIP-Nigel-Params/Higher-Symm/Box-15A/Only-C60/SD-CG/HFTN-CG
REM
REM
REM
REM
REM
REM ./C.cell (414f73aa93bd7a1190c7fd0f31ff2f98)
REM
REM compiler GCC version 9.2.1 20190827 (Red Hat 9.2.1-1)
REM options -cpp -mtune=generic -march=x86-64 -g -O0 -fpre-include=/usr/include/finclude/math-vector-fortran.h
REM seed -2143176709 236553494 -971140921 1569582508 1052614200 959153192 -1831100340 -1338543968 -290356885 -1138533338 1127311885 -1067091361 -1656167302 -1230888994 -151003297 216448206 -897592960 811861125 1948679498 1402780599 1804315190 2104035809 -1701134884 1569550788 808800760 1471347905 -1342650688 -1885453371 -1019579970 -515519056 583590448 -1750734703 1015257053
REM
CELL 1.54180   50.00000   50.00000   50.00000   90.00000   90.00000   90.00000
LATT -1
SFAC C  
C      1  0.5234240000000  0.5255950000000  0.5006210000000 1.0
C      1  0.5250430000000  0.4723450000000  0.4961800000000 1.0
C      1  0.5443960000000  0.4909840000000  0.4460680000000 1.0
C      1  0.5380600000000  0.5066740000000  0.5539460000000 1.0
C      1  0.4990850000000  0.4288810000000  0.4997190000000 1.0
C      1  0.4951720000000  0.5627560000000  0.4930520000000 1.0
C      1  0.5111000000000  0.4853670000000  0.5201010000000 1.0
C      1  0.5114510000000  0.5129280000000  0.4747180000000 1.0
C      1  0.5835480000000  0.5064290000000  0.4694450000000 1.0
C      1  0.5797830000000  0.4925960000000  0.5348460000000 1.0
C      1  0.4889290000000  0.5623660000000  0.5428330000000 1.0
C      1  0.4869800000000  0.4410370000000  0.4548700000000 1.0
C      1  0.5080490000000  0.4492270000000  0.4399700000000 1.0
C      1  0.5075820000000  0.5491190000000  0.5569320000000 1.0
C      1  0.4483240000000  0.5557130000000  0.5146990000000 1.0
C      1  0.4529630000000  0.4461290000000  0.4927390000000 1.0
C      1  0.5228290000000  0.5556420000000  0.4990730000000 1.0
C      1  0.5263020000000  0.4414420000000  0.4985960000000 1.0
C      1  0.4893610000000  0.5443190000000  0.4469930000000 1.0
C      1  0.4777190000000  0.4555410000000  0.5367660000000 1.0
C      1  0.4995550000000  0.5661870000000  0.4631420000000 1.0
C      1  0.4960300000000  0.4327850000000  0.5292550000000 1.0
C      1  0.4227030000000  0.5280230000000  0.4821300000000 1.0
C      1  0.4284190000000  0.4671270000000  0.5282930000000 1.0
C      1  0.5073960000000  0.5150050000000  0.5219730000000 1.0
C      1  0.5101580000000  0.4834200000000  0.4737970000000 1.0
C      1  0.4801490000000  0.4418950000000  0.4820060000000 1.0
C      1  0.4770580000000  0.5642610000000  0.5175790000000 1.0
C      1  0.4397330000000  0.5296610000000  0.5267640000000 1.0
C      1  0.4387330000000  0.4687030000000  0.4799090000000 1.0
C      1  0.4531740000000  0.4808140000000  0.4583890000000 1.0
C      1  0.4442380000000  0.5229600000000  0.5536180000000 1.0
C      1  0.5688880000000  0.5269850000000  0.4824430000000 1.0
C      1  0.5669580000000  0.4715680000000  0.5206720000000 1.0
C      1  0.5513830000000  0.5142710000000  0.5041850000000 1.0
C      1  0.5524520000000  0.4842550000000  0.4965140000000 1.0
C      1  0.4966430000000  0.4734550000000  0.5604810000000 1.0
C      1  0.5090950000000  0.5258220000000  0.4310270000000 1.0
C      1  0.4410850000000  0.5493770000000  0.4865960000000 1.0
C      1  0.4498730000000  0.4493240000000  0.5228680000000 1.0
C      1  0.4249230000000  0.5130740000000  0.5062760000000 1.0
C      1  0.4270840000000  0.4826940000000  0.5044110000000 1.0
C      1  0.4834940000000  0.4780130000000  0.5182090000000 1.0
C      1  0.4826040000000  0.5212740000000  0.4665280000000 1.0
C      1  0.4676160000000  0.5001160000000  0.5092320000000 1.0
C      1  0.4654490000000  0.5226350000000  0.4910500000000 1.0
C      1  0.5508500000000  0.5406410000000  0.4625050000000 1.0
C      1  0.5470100000000  0.4577900000000  0.5390780000000 1.0
C      1  0.5106020000000  0.5209570000000  0.5511800000000 1.0
C      1  0.5148700000000  0.4770450000000  0.4451280000000 1.0
C      1  0.5335690000000  0.4354340000000  0.5265090000000 1.0
C      1  0.5358080000000  0.5627800000000  0.4742190000000 1.0
C      1  0.5252500000000  0.4780720000000  0.5466020000000 1.0
C      1  0.5312150000000  0.5193190000000  0.4518900000000 1.0
C      1  0.5646450000000  0.4852670000000  0.4681250000000 1.0
C      1  0.5602220000000  0.5132090000000  0.5340420000000 1.0
C      1  0.4708580000000  0.5005450000000  0.4478750000000 1.0
C      1  0.4638200000000  0.5104780000000  0.5668550000000 1.0
C      1  0.4958130000000  0.4971330000000  0.4305020000000 1.0
C      1  0.4904780000000  0.5025320000000  0.5659750000000 1.0
END
