TITL C-9260-5597-15 -2.17673480618851e-06 125000 -355.459166048163 0 0 60 (C2) n - 1
REM
REM in /home/bkarasulu/CARBON/AIRSS/Generating-Clusters/EDIP-Nigel-Params/Higher-Symm/Box-15A/Only-C60/SD-CG/HFTN-CG
REM
REM
REM
REM
REM
REM ./C.cell (414f73aa93bd7a1190c7fd0f31ff2f98)
REM
REM compiler GCC version 9.2.1 20190827 (Red Hat 9.2.1-1)
REM options -cpp -mtune=generic -march=x86-64 -g -O0 -fpre-include=/usr/include/finclude/math-vector-fortran.h
REM seed -304580993 2018726440 -213415253 -1794374721 946311220 919282361 817353430 901642753 -1317053113 -955087410 2020341640 2025170542 1433781740 949305126 -1191646879 -1335899615 829134577 -2135301217 906183685 -1591111636 684240247 837815060 1538749485 1080276000 -1996940415 -1930767063 -674488181 -1343938790 997844239 -117459531 -1342171858 59844475 266855756
REM
CELL 1.54180   50.00000   50.00000   50.00000   90.00000   90.00000   90.00000
LATT -1
SFAC C  
C      1  0.5000370000000  0.4383920000000  0.4614220000000 1.0
C      1  0.5000090000000  0.4382500000000  0.5383500000000 1.0
C      1  0.5095390000000  0.4340730000000  0.5110270000000 1.0
C      1  0.4905100000000  0.4341070000000  0.4887290000000 1.0
C      1  0.4436530000000  0.5146990000000  0.4490870000000 1.0
C      1  0.5563360000000  0.5145520000000  0.5509670000000 1.0
C      1  0.4267350000000  0.5175050000000  0.4700480000000 1.0
C      1  0.5732520000000  0.5174490000000  0.5300170000000 1.0
C      1  0.4695150000000  0.5454700000000  0.5554620000000 1.0
C      1  0.5304510000000  0.5456970000000  0.4447070000000 1.0
C      1  0.4284330000000  0.5112200000000  0.4973460000000 1.0
C      1  0.5715590000000  0.5112630000000  0.5026960000000 1.0
C      1  0.4725300000000  0.4356390000000  0.5430910000000 1.0
C      1  0.5275170000000  0.4358190000000  0.4566710000000 1.0
C      1  0.5736370000000  0.4607620000000  0.5174320000000 1.0
C      1  0.4263920000000  0.4607720000000  0.4824230000000 1.0
C      1  0.4706670000000  0.5207600000000  0.4453910000000 1.0
C      1  0.5293180000000  0.5205790000000  0.5546850000000 1.0
C      1  0.4783980000000  0.5470120000000  0.4548200000000 1.0
C      1  0.5215670000000  0.5468610000000  0.5453530000000 1.0
C      1  0.4530330000000  0.5546920000000  0.5003780000000 1.0
C      1  0.5469270000000  0.5547280000000  0.4998250000000 1.0
C      1  0.4343550000000  0.4829720000000  0.5001520000000 1.0
C      1  0.5656570000000  0.4830220000000  0.4997850000000 1.0
C      1  0.5368280000000  0.4309700000000  0.5065600000000 1.0
C      1  0.4632230000000  0.4309680000000  0.4931840000000 1.0
C      1  0.4801970000000  0.5766580000000  0.5350420000000 1.0
C      1  0.5197460000000  0.5768020000000  0.4652420000000 1.0
C      1  0.5023810000000  0.4765760000000  0.5735840000000 1.0
C      1  0.4976360000000  0.4768460000000  0.4263300000000 1.0
C      1  0.4721490000000  0.4780170000000  0.5708460000000 1.0
C      1  0.5278670000000  0.4783000000000  0.4290740000000 1.0
C      1  0.5377450000000  0.4543280000000  0.4396680000000 1.0
C      1  0.4622890000000  0.4540770000000  0.5601630000000 1.0
C      1  0.4525730000000  0.5245050000000  0.5441370000000 1.0
C      1  0.5474080000000  0.5247040000000  0.4559540000000 1.0
C      1  0.5402480000000  0.5761170000000  0.4834330000000 1.0
C      1  0.4596960000000  0.5760260000000  0.5168480000000 1.0
C      1  0.4902270000000  0.5051040000000  0.4309560000000 1.0
C      1  0.5097700000000  0.5048560000000  0.5690620000000 1.0
C      1  0.4873820000000  0.4959180000000  0.5259910000000 1.0
C      1  0.5126210000000  0.4960240000000  0.4739940000000 1.0
C      1  0.4933560000000  0.5518540000000  0.5401280000000 1.0
C      1  0.5066050000000  0.5520070000000  0.4600640000000 1.0
C      1  0.4927420000000  0.5172290000000  0.4831010000000 1.0
C      1  0.5072450000000  0.5171710000000  0.5169620000000 1.0
C      1  0.4373670000000  0.4387930000000  0.4993990000000 1.0
C      1  0.5626780000000  0.4388380000000  0.5003740000000 1.0
C      1  0.4499860000000  0.5267110000000  0.5124880000000 1.0
C      1  0.5499950000000  0.5267940000000  0.4876110000000 1.0
C      1  0.4750800000000  0.5030610000000  0.5515590000000 1.0
C      1  0.5249180000000  0.5032700000000  0.4484530000000 1.0
C      1  0.4360400000000  0.4607190000000  0.5197420000000 1.0
C      1  0.5639890000000  0.4608400000000  0.4801130000000 1.0
C      1  0.5281240000000  0.5064460000000  0.4973950000000 1.0
C      1  0.4718710000000  0.5064160000000  0.5026280000000 1.0
C      1  0.4875350000000  0.4562850000000  0.4434370000000 1.0
C      1  0.5124980000000  0.4560850000000  0.5564010000000 1.0
C      1  0.4606130000000  0.5572290000000  0.4736920000000 1.0
C      1  0.5393440000000  0.5571610000000  0.5265190000000 1.0
END
