TITL C-9259-5960-333 -5.13131179364698e-06 125000 -359.978585383374 0 0 60 (Ci) n - 1
REM
REM in /home/bkarasulu/CARBON/AIRSS/Generating-Clusters/EDIP-Nigel-Params/Higher-Symm/Box-15A/Only-C60/SD-CG/HFTN-CG
REM
REM
REM
REM
REM
REM ./C.cell (414f73aa93bd7a1190c7fd0f31ff2f98)
REM
REM compiler GCC version 9.2.1 20190827 (Red Hat 9.2.1-1)
REM options -cpp -mtune=generic -march=x86-64 -g -O0 -fpre-include=/usr/include/finclude/math-vector-fortran.h
REM seed -82574369 1040470833 -735983397 -1909759948 -842947277 -1923480189 288311539 -1821910442 1637312409 -1836501866 1132216209 -579895422 38323614 -77214470 1193364234 485845585 447208908 1178699044 -1382408769 1531149263 -198917302 -1489194632 381245964 538823812 1660326787 1067465828 -644067930 -1117512085 1432038811 -769951458 1724355932 -1226254443 -169773327
REM
CELL 1.54180   50.00000   50.00000   50.00000   90.00000   90.00000   90.00000
LATT -1
SFAC C  
C      1  0.4584140000000  0.5213760000000  0.4632780000000 1.0
C      1  0.5415860000000  0.4786240000000  0.5367220000000 1.0
C      1  0.4860800000000  0.5333250000000  0.4230580000000 1.0
C      1  0.5139200000000  0.4666750000000  0.5769420000000 1.0
C      1  0.4824780000000  0.4434690000000  0.4742120000000 1.0
C      1  0.5175220000000  0.5565310000000  0.5257880000000 1.0
C      1  0.5060830000000  0.5110090000000  0.4320210000000 1.0
C      1  0.4939170000000  0.4889910000000  0.5679790000000 1.0
C      1  0.5224420000000  0.4946290000000  0.4502000000000 1.0
C      1  0.4775580000000  0.5053710000000  0.5498000000000 1.0
C      1  0.5453060000000  0.5065130000000  0.4648450000000 1.0
C      1  0.4546940000000  0.4934870000000  0.5351550000000 1.0
C      1  0.5067480000000  0.4304110000000  0.4854830000000 1.0
C      1  0.4932520000000  0.5695890000000  0.5145170000000 1.0
C      1  0.5693210000000  0.5055300000000  0.5347460000000 1.0
C      1  0.4306790000000  0.4944700000000  0.4652540000000 1.0
C      1  0.4855550000000  0.4602320000000  0.5720490000000 1.0
C      1  0.5144450000000  0.5397680000000  0.4279510000000 1.0
C      1  0.4297380000000  0.5337630000000  0.4859400000000 1.0
C      1  0.5702620000000  0.4662370000000  0.5140600000000 1.0
C      1  0.4904330000000  0.4572370000000  0.4497190000000 1.0
C      1  0.5095670000000  0.5427630000000  0.5502810000000 1.0
C      1  0.4646100000000  0.5478870000000  0.4513790000000 1.0
C      1  0.5353900000000  0.4521130000000  0.5486210000000 1.0
C      1  0.5085200000000  0.4270890000000  0.5162040000000 1.0
C      1  0.4914800000000  0.5729110000000  0.4837960000000 1.0
C      1  0.5183670000000  0.4649640000000  0.4523790000000 1.0
C      1  0.4816330000000  0.5350360000000  0.5476210000000 1.0
C      1  0.5435640000000  0.4977780000000  0.4930540000000 1.0
C      1  0.4564360000000  0.5022220000000  0.5069460000000 1.0
C      1  0.5701050000000  0.4943600000000  0.5078940000000 1.0
C      1  0.4298950000000  0.5056400000000  0.4921060000000 1.0
C      1  0.5046240000000  0.5495020000000  0.4702510000000 1.0
C      1  0.4953760000000  0.4504980000000  0.5297490000000 1.0
C      1  0.4997390000000  0.5250130000000  0.4883040000000 1.0
C      1  0.5002610000000  0.4749870000000  0.5116960000000 1.0
C      1  0.5272540000000  0.4717640000000  0.4948240000000 1.0
C      1  0.4727460000000  0.5282360000000  0.5051760000000 1.0
C      1  0.5312590000000  0.5543610000000  0.4585200000000 1.0
C      1  0.4687410000000  0.4456390000000  0.5414800000000 1.0
C      1  0.4426660000000  0.4573670000000  0.5052470000000 1.0
C      1  0.5573340000000  0.5426330000000  0.4947530000000 1.0
C      1  0.5479710000000  0.4497770000000  0.5042170000000 1.0
C      1  0.4520290000000  0.5502230000000  0.4957830000000 1.0
C      1  0.4695820000000  0.5573800000000  0.5298160000000 1.0
C      1  0.5304180000000  0.4426200000000  0.4701840000000 1.0
C      1  0.4538470000000  0.4525140000000  0.4792560000000 1.0
C      1  0.5461530000000  0.5474860000000  0.5207440000000 1.0
C      1  0.4472910000000  0.4722670000000  0.4579000000000 1.0
C      1  0.5527090000000  0.5277330000000  0.5421000000000 1.0
C      1  0.5247380000000  0.5171930000000  0.5075200000000 1.0
C      1  0.4752620000000  0.4828070000000  0.4924800000000 1.0
C      1  0.5159860000000  0.4971110000000  0.5304550000000 1.0
C      1  0.4840140000000  0.5028890000000  0.4695450000000 1.0
C      1  0.4716960000000  0.4780250000000  0.4431630000000 1.0
C      1  0.5283040000000  0.5219750000000  0.5568370000000 1.0
C      1  0.4485260000000  0.4639920000000  0.5319970000000 1.0
C      1  0.5514740000000  0.5360080000000  0.4680030000000 1.0
C      1  0.5360820000000  0.4331580000000  0.5260510000000 1.0
C      1  0.4639180000000  0.5668420000000  0.4739490000000 1.0
END
