TITL C-9256-7861-328 1.66735395403399e-06 125000 -360.145868567196 0 0 60 (C1) n - 1
REM
REM in /home/bkarasulu/CARBON/AIRSS/Generating-Clusters/EDIP-Nigel-Params/Higher-Symm/Box-15A/Only-C60/SD-CG/HFTN-CG
REM
REM
REM
REM
REM
REM ./C.cell (414f73aa93bd7a1190c7fd0f31ff2f98)
REM
REM compiler GCC version 9.2.1 20190827 (Red Hat 9.2.1-1)
REM options -cpp -mtune=generic -march=x86-64 -g -O0 -fpre-include=/usr/include/finclude/math-vector-fortran.h
REM seed -1918559846 1029399021 463410775 2069583323 1847573911 883799626 -1906414001 -1515068640 -2140233870 1671628251 -1256400660 2049892803 -1010334289 -2130592319 1413912465 -1613188669 1720972991 1741794206 1393792441 -1480597532 -1145568370 1863204974 -148099890 -125090210 -287681938 177028078 1764951082 1198587715 1060612225 1788236697 1829156264 2017154575 81450504
REM
CELL 1.54180   50.00000   50.00000   50.00000   90.00000   90.00000   90.00000
LATT -1
SFAC C  
C      1  0.5655180000000  0.4802500000000  0.5366870000000 1.0
C      1  0.4539220000000  0.5396020000000  0.4662110000000 1.0
C      1  0.5210440000000  0.5201350000000  0.4391730000000 1.0
C      1  0.4424070000000  0.5308510000000  0.5395660000000 1.0
C      1  0.5500100000000  0.4994350000000  0.5547660000000 1.0
C      1  0.4865810000000  0.5423710000000  0.5528360000000 1.0
C      1  0.5211560000000  0.4995100000000  0.5221400000000 1.0
C      1  0.4933880000000  0.4957720000000  0.4258260000000 1.0
C      1  0.5455620000000  0.5606930000000  0.4689890000000 1.0
C      1  0.4994250000000  0.4464580000000  0.5468550000000 1.0
C      1  0.5797110000000  0.4949450000000  0.5151690000000 1.0
C      1  0.4867810000000  0.4544680000000  0.4509610000000 1.0
C      1  0.4707920000000  0.5129740000000  0.4352220000000 1.0
C      1  0.5140290000000  0.4458450000000  0.4538700000000 1.0
C      1  0.4732960000000  0.5017540000000  0.5647780000000 1.0
C      1  0.5175440000000  0.5616630000000  0.4684660000000 1.0
C      1  0.4851760000000  0.5330540000000  0.5229920000000 1.0
C      1  0.4433870000000  0.4786600000000  0.4553700000000 1.0
C      1  0.5441850000000  0.4604660000000  0.5268300000000 1.0
C      1  0.4586490000000  0.4784580000000  0.5563560000000 1.0
C      1  0.5424990000000  0.5497060000000  0.5280480000000 1.0
C      1  0.5321170000000  0.4775130000000  0.5029810000000 1.0
C      1  0.5057920000000  0.5687630000000  0.4949720000000 1.0
C      1  0.5050540000000  0.5361880000000  0.4586390000000 1.0
C      1  0.4610400000000  0.5020470000000  0.4634870000000 1.0
C      1  0.4772100000000  0.5639540000000  0.5017060000000 1.0
C      1  0.4736860000000  0.4549530000000  0.5521780000000 1.0
C      1  0.5247550000000  0.5670100000000  0.5160710000000 1.0
C      1  0.4532240000000  0.4651890000000  0.5023900000000 1.0
C      1  0.4455320000000  0.4562400000000  0.4752170000000 1.0
C      1  0.5428810000000  0.5248830000000  0.5417920000000 1.0
C      1  0.5082400000000  0.5322110000000  0.5688540000000 1.0
C      1  0.5250890000000  0.4584530000000  0.5505710000000 1.0
C      1  0.5320620000000  0.4689540000000  0.4512130000000 1.0
C      1  0.4811070000000  0.4551930000000  0.5086190000000 1.0
C      1  0.4748490000000  0.5021390000000  0.5150940000000 1.0
C      1  0.4852360000000  0.4967800000000  0.4854080000000 1.0
C      1  0.5671870000000  0.4902350000000  0.4800560000000 1.0
C      1  0.4775070000000  0.4695210000000  0.4281520000000 1.0
C      1  0.5719870000000  0.5228520000000  0.5088200000000 1.0
C      1  0.5649970000000  0.5424860000000  0.4762590000000 1.0
C      1  0.4401670000000  0.5297650000000  0.5120720000000 1.0
C      1  0.4556180000000  0.5460980000000  0.4937010000000 1.0
C      1  0.4852100000000  0.4298470000000  0.4900730000000 1.0
C      1  0.5128670000000  0.4331440000000  0.4799750000000 1.0
C      1  0.5054000000000  0.5180910000000  0.4824310000000 1.0
C      1  0.5153940000000  0.4930390000000  0.4469900000000 1.0
C      1  0.4680770000000  0.4380650000000  0.4663770000000 1.0
C      1  0.5130020000000  0.5276190000000  0.5099610000000 1.0
C      1  0.4944810000000  0.4835340000000  0.5312040000000 1.0
C      1  0.4441490000000  0.4913630000000  0.5163950000000 1.0
C      1  0.4346620000000  0.4835930000000  0.5428120000000 1.0
C      1  0.5250200000000  0.4855470000000  0.5635050000000 1.0
C      1  0.5023310000000  0.5043530000000  0.5690740000000 1.0
C      1  0.5520400000000  0.4679860000000  0.4718490000000 1.0
C      1  0.4614510000000  0.5284370000000  0.5600030000000 1.0
C      1  0.5561760000000  0.5168020000000  0.4849110000000 1.0
C      1  0.4491690000000  0.4711680000000  0.4284460000000 1.0
C      1  0.4767250000000  0.5396060000000  0.4473440000000 1.0
C      1  0.5034490000000  0.4693130000000  0.4892870000000 1.0
END
