TITL C-9265-7156-46 6.06017480080206e-07 125000 -352.863369959462 0 0 60 (C5) n - 1
REM
REM in /home/bkarasulu/CARBON/AIRSS/Generating-Clusters/EDIP-Nigel-Params/Higher-Symm/Box-15A/Only-C60/SD-CG/HFTN-CG
REM
REM
REM
REM
REM
REM ./C.cell (414f73aa93bd7a1190c7fd0f31ff2f98)
REM
REM compiler GCC version 9.2.1 20190827 (Red Hat 9.2.1-1)
REM options -cpp -mtune=generic -march=x86-64 -g -O0 -fpre-include=/usr/include/finclude/math-vector-fortran.h
REM seed 147475885 -1375914612 2042264058 1315227033 -737715078 -179208761 -1702003920 830839984 -1124489552 -774997638 690840307 702536352 967616311 -1517796640 1530279962 -1203092781 1322309596 1931806480 -375767704 1351969928 1275722110 -192410156 1370915511 -1718639496 -1051169713 -1082010788 850042669 -1823752229 1141349868 -223359442 41315233 1328422236 2036000793
REM
CELL 1.54180   50.00000   50.00000   50.00000   90.00000   90.00000   90.00000
LATT -1
SFAC C  
C      1  0.4862840000000  0.5417890000000  0.5647830000000 1.0
C      1  0.4341490000000  0.5417890000000  0.5069740000000 1.0
C      1  0.4730180000000  0.5417890000000  0.4395270000000 1.0
C      1  0.5491750000000  0.5417890000000  0.4556520000000 1.0
C      1  0.5573740000000  0.5417890000000  0.5330640000000 1.0
C      1  0.4154780000000  0.4959810000000  0.4841800000000 1.0
C      1  0.4889270000000  0.4959810000000  0.4147260000000 1.0
C      1  0.5776790000000  0.4959820000000  0.4631180000000 1.0
C      1  0.5590810000000  0.4959810000000  0.5624790000000 1.0
C      1  0.4588360000000  0.4959810000000  0.5754970000000 1.0
C      1  0.5683760000000  0.5334230000000  0.5074730000000 1.0
C      1  0.5140220000000  0.5334230000000  0.5673390000000 1.0
C      1  0.4402900000000  0.5334230000000  0.5341450000000 1.0
C      1  0.4490750000000  0.5334230000000  0.4537640000000 1.0
C      1  0.5282370000000  0.5334230000000  0.4372800000000 1.0
C      1  0.4488600000000  0.4592200000000  0.4762460000000 1.0
C      1  0.5067880000000  0.4592210000000  0.4440220000000 1.0
C      1  0.5553350000000  0.4592210000000  0.4891570000000 1.0
C      1  0.5274110000000  0.4592200000000  0.5492760000000 1.0
C      1  0.4616060000000  0.4592200000000  0.5412970000000 1.0
C      1  0.5335710000000  0.4828410000000  0.5677030000000 1.0
C      1  0.4459850000000  0.4828400000000  0.5528490000000 1.0
C      1  0.4330460000000  0.4828410000000  0.4649600000000 1.0
C      1  0.5126350000000  0.4828410000000  0.4254950000000 1.0
C      1  0.5747630000000  0.4828410000000  0.4889930000000 1.0
C      1  0.4855070000000  0.4929590000000  0.5862990000000 1.0
C      1  0.4134460000000  0.4929590000000  0.5128840000000 1.0
C      1  0.4610000000000  0.4929600000000  0.4216640000000 1.0
C      1  0.5624500000000  0.4929600000000  0.4387010000000 1.0
C      1  0.5775970000000  0.4929600000000  0.5404510000000 1.0
C      1  0.4708660000000  0.4514870000000  0.4581830000000 1.0
C      1  0.5307670000000  0.4514870000000  0.4593700000000 1.0
C      1  0.5481490000000  0.4514870000000  0.5167060000000 1.0
C      1  0.4989910000000  0.4514870000000  0.5509550000000 1.0
C      1  0.4512270000000  0.4514870000000  0.5147860000000 1.0
C      1  0.5001490000000  0.5382450000000  0.4486410000000 1.0
C      1  0.5488910000000  0.5382450000000  0.4842710000000 1.0
C      1  0.5300670000000  0.5382450000000  0.5416380000000 1.0
C      1  0.4696910000000  0.5382440000000  0.5414630000000 1.0
C      1  0.4512010000000  0.5382450000000  0.4839870000000 1.0
C      1  0.4622870000000  0.4723930000000  0.4991750000000 1.0
C      1  0.4891300000000  0.4723940000000  0.4638770000000 1.0
C      1  0.5309960000000  0.4723940000000  0.4785000000000 1.0
C      1  0.5300260000000  0.4723940000000  0.5228340000000 1.0
C      1  0.4875620000000  0.4723930000000  0.5356130000000 1.0
C      1  0.5102570000000  0.5027550000000  0.5709370000000 1.0
C      1  0.4357040000000  0.5027550000000  0.5316760000000 1.0
C      1  0.4500060000000  0.5027550000000  0.4486390000000 1.0
C      1  0.5333980000000  0.5027550000000  0.4365810000000 1.0
C      1  0.5706350000000  0.5027550000000  0.5121660000000 1.0
C      1  0.5229860000000  0.5302470000000  0.4927690000000 1.0
C      1  0.5139800000000  0.5302460000000  0.5196260000000 1.0
C      1  0.4856540000000  0.5302460000000  0.5193610000000 1.0
C      1  0.4771540000000  0.5302460000000  0.4923390000000 1.0
C      1  0.5002260000000  0.5302470000000  0.4759050000000 1.0
C      1  0.4864100000000  0.4986590000000  0.5493690000000 1.0
C      1  0.4488480000000  0.4986590000000  0.5023310000000 1.0
C      1  0.4819770000000  0.4986590000000  0.4520720000000 1.0
C      1  0.5400130000000  0.4986590000000  0.4680480000000 1.0
C      1  0.5427530000000  0.4986590000000  0.5281810000000 1.0
END
