TITL C-9268-6400-333 -2.76326825072244e-05 125000 -358.83702924835 0 0 60 (C1) n - 1
REM
REM in /home/bkarasulu/CARBON/AIRSS/Generating-Clusters/EDIP-Nigel-Params/Higher-Symm/Box-15A/Only-C60/SD-CG/HFTN-CG
REM
REM
REM
REM
REM
REM ./C.cell (414f73aa93bd7a1190c7fd0f31ff2f98)
REM
REM compiler GCC version 9.2.1 20190827 (Red Hat 9.2.1-1)
REM options -cpp -mtune=generic -march=x86-64 -g -O0 -fpre-include=/usr/include/finclude/math-vector-fortran.h
REM seed 1212248908 -599331893 -10809329 1128340046 1797897432 -1648414394 -321301328 -865414589 -1585734093 -814211140 1414118848 666224297 1824036123 98863313 -5385363 -1020614966 -983430824 2140772142 1244393634 224042940 454694707 -1781505340 1231284109 -824829242 -1602842232 -1497695376 614901125 -2099138531 -1218614590 250229143 -1710041898 1763065561 -1733343222
REM
CELL 1.54180   50.00000   50.00000   50.00000   90.00000   90.00000   90.00000
LATT -1
SFAC C  
C      1  0.5490880000000  0.4545270000000  0.4710730000000 1.0
C      1  0.5205190000000  0.5702790000000  0.4817920000000 1.0
C      1  0.4458690000000  0.4831290000000  0.4876620000000 1.0
C      1  0.5561430000000  0.5555770000000  0.4829000000000 1.0
C      1  0.5281150000000  0.4230410000000  0.4737970000000 1.0
C      1  0.4250630000000  0.5139730000000  0.4762890000000 1.0
C      1  0.5584220000000  0.5193740000000  0.4409150000000 1.0
C      1  0.4656490000000  0.5356550000000  0.4468750000000 1.0
C      1  0.4918990000000  0.4570270000000  0.4666690000000 1.0
C      1  0.5604640000000  0.4899520000000  0.4384740000000 1.0
C      1  0.4637380000000  0.4562530000000  0.4572800000000 1.0
C      1  0.4896080000000  0.5528890000000  0.4471540000000 1.0
C      1  0.4726610000000  0.4935430000000  0.4985680000000 1.0
C      1  0.5220300000000  0.4811990000000  0.5034340000000 1.0
C      1  0.5085770000000  0.5268010000000  0.4950520000000 1.0
C      1  0.4807020000000  0.5217220000000  0.5065000000000 1.0
C      1  0.5285340000000  0.5053920000000  0.4884040000000 1.0
C      1  0.4939100000000  0.4722430000000  0.4957170000000 1.0
C      1  0.5062790000000  0.5422680000000  0.5408960000000 1.0
C      1  0.4503830000000  0.4827980000000  0.5305490000000 1.0
C      1  0.5238140000000  0.4926430000000  0.5307730000000 1.0
C      1  0.4731190000000  0.4603710000000  0.5266040000000 1.0
C      1  0.4832460000000  0.5249030000000  0.5362720000000 1.0
C      1  0.5332680000000  0.5228150000000  0.5357990000000 1.0
C      1  0.4501390000000  0.5280480000000  0.4716920000000 1.0
C      1  0.4998090000000  0.4275010000000  0.4685260000000 1.0
C      1  0.5633230000000  0.5319950000000  0.4673230000000 1.0
C      1  0.4502280000000  0.4533370000000  0.4823860000000 1.0
C      1  0.4940850000000  0.5708600000000  0.4694140000000 1.0
C      1  0.5685260000000  0.4737030000000  0.4616720000000 1.0
C      1  0.5262130000000  0.5115570000000  0.4220900000000 1.0
C      1  0.4755510000000  0.5150430000000  0.4281780000000 1.0
C      1  0.5012950000000  0.4757460000000  0.4443420000000 1.0
C      1  0.5247380000000  0.4838770000000  0.4296410000000 1.0
C      1  0.4757210000000  0.4874230000000  0.4378640000000 1.0
C      1  0.5020110000000  0.5266680000000  0.4223380000000 1.0
C      1  0.4666440000000  0.4390380000000  0.5047160000000 1.0
C      1  0.5757400000000  0.4901110000000  0.4831820000000 1.0
C      1  0.4740070000000  0.5657280000000  0.4882570000000 1.0
C      1  0.4612410000000  0.5417000000000  0.4950260000000 1.0
C      1  0.5577440000000  0.5115210000000  0.4874390000000 1.0
C      1  0.4903690000000  0.4233970000000  0.4961720000000 1.0
C      1  0.5486200000000  0.5475680000000  0.5112180000000 1.0
C      1  0.4141250000000  0.5100850000000  0.5020290000000 1.0
C      1  0.5273980000000  0.4314690000000  0.5024030000000 1.0
C      1  0.5400850000000  0.4574690000000  0.4985720000000 1.0
C      1  0.4267000000000  0.4862180000000  0.5107390000000 1.0
C      1  0.5196230000000  0.5522310000000  0.5057320000000 1.0
C      1  0.4477810000000  0.4976150000000  0.5568280000000 1.0
C      1  0.5169600000000  0.4737810000000  0.5517940000000 1.0
C      1  0.5152850000000  0.5456720000000  0.5698870000000 1.0
C      1  0.4627420000000  0.5231330000000  0.5567830000000 1.0
C      1  0.5388610000000  0.5273840000000  0.5666670000000 1.0
C      1  0.4920940000000  0.4573430000000  0.5507620000000 1.0
C      1  0.5290940000000  0.5070540000000  0.5862400000000 1.0
C      1  0.4729990000000  0.5219570000000  0.5841020000000 1.0
C      1  0.4818140000000  0.4658740000000  0.5774040000000 1.0
C      1  0.5162020000000  0.4826840000000  0.5789210000000 1.0
C      1  0.4614870000000  0.4858970000000  0.5805190000000 1.0
C      1  0.4996490000000  0.5309370000000  0.5896900000000 1.0
END
