TITL C-9263-351-117 3.29470668413447e-05 125000 -356.46347464449 0 0 60 (Cs) n - 1
REM
REM in /home/bkarasulu/CARBON/AIRSS/Generating-Clusters/EDIP-Nigel-Params/Higher-Symm/Box-15A/Only-C60/SD-CG/HFTN-CG
REM
REM
REM
REM
REM
REM ./C.cell (414f73aa93bd7a1190c7fd0f31ff2f98)
REM
REM compiler GCC version 9.2.1 20190827 (Red Hat 9.2.1-1)
REM options -cpp -mtune=generic -march=x86-64 -g -O0 -fpre-include=/usr/include/finclude/math-vector-fortran.h
REM seed 1603746353 889274770 109803325 -981319068 1388728963 720999746 1787059751 -1409471550 641465936 -259622972 290276516 -1036723689 -133496542 -1045018849 -1477844470 -299013311 1237534333 137062933 826334956 1609880261 1969973266 632983103 -342523700 -515013806 38524109 518918472 -1804603936 2056284589 1694910713 -308514862 -738729370 149396375 265242733
REM
CELL 1.54180   50.00000   50.00000   50.00000   90.00000   90.00000   90.00000
LATT -1
SFAC C  
C      1  0.4976700000000  0.4831290000000  0.4486720000000 1.0
C      1  0.5499810000000  0.4833880000000  0.4806130000000 1.0
C      1  0.5335960000000  0.4826700000000  0.5415020000000 1.0
C      1  0.4715820000000  0.4831610000000  0.5436710000000 1.0
C      1  0.4507510000000  0.4828770000000  0.4865310000000 1.0
C      1  0.4976690000000  0.5168780000000  0.4486750000000 1.0
C      1  0.5499800000000  0.5166200000000  0.4806150000000 1.0
C      1  0.5335940000000  0.5173280000000  0.5415040000000 1.0
C      1  0.4715810000000  0.5168300000000  0.5436730000000 1.0
C      1  0.4507490000000  0.5171200000000  0.4865330000000 1.0
C      1  0.5204920000000  0.5613690000000  0.5520600000000 1.0
C      1  0.4583810000000  0.5611640000000  0.5357110000000 1.0
C      1  0.4531180000000  0.5614310000000  0.4715520000000 1.0
C      1  0.5115970000000  0.5608430000000  0.4442290000000 1.0
C      1  0.5486640000000  0.5596030000000  0.4956510000000 1.0
C      1  0.5204980000000  0.4386260000000  0.5520530000000 1.0
C      1  0.4583870000000  0.4388280000000  0.5357030000000 1.0
C      1  0.4531240000000  0.4385680000000  0.4715440000000 1.0
C      1  0.5116030000000  0.4391660000000  0.4442210000000 1.0
C      1  0.5486700000000  0.4404020000000  0.4956440000000 1.0
C      1  0.5161100000000  0.4778140000000  0.5187520000000 1.0
C      1  0.4879040000000  0.4776960000000  0.5202710000000 1.0
C      1  0.4778800000000  0.4759260000000  0.4941110000000 1.0
C      1  0.4998410000000  0.4749990000000  0.4765200000000 1.0
C      1  0.5241310000000  0.4714400000000  0.4918340000000 1.0
C      1  0.5161080000000  0.5221850000000  0.5187550000000 1.0
C      1  0.4879020000000  0.5223000000000  0.5202740000000 1.0
C      1  0.4778780000000  0.5240730000000  0.4941140000000 1.0
C      1  0.4998390000000  0.5250040000000  0.4765230000000 1.0
C      1  0.5241280000000  0.5285630000000  0.4918380000000 1.0
C      1  0.5413900000000  0.4399120000000  0.4659760000000 1.0
C      1  0.5431820000000  0.4377700000000  0.5333800000000 1.0
C      1  0.4830000000000  0.4385730000000  0.5525290000000 1.0
C      1  0.4454930000000  0.4384110000000  0.5003120000000 1.0
C      1  0.4818270000000  0.4392610000000  0.4469030000000 1.0
C      1  0.5413840000000  0.5600970000000  0.4659840000000 1.0
C      1  0.5431760000000  0.5622300000000  0.5333880000000 1.0
C      1  0.4829940000000  0.5614190000000  0.5525370000000 1.0
C      1  0.4454870000000  0.5615840000000  0.5003200000000 1.0
C      1  0.4818210000000  0.5607440000000  0.4469110000000 1.0
C      1  0.5568020000000  0.5356770000000  0.5316990000000 1.0
C      1  0.4877310000000  0.5339200000000  0.5635950000000 1.0
C      1  0.4366120000000  0.5341120000000  0.5080530000000 1.0
C      1  0.4723540000000  0.5329730000000  0.4413760000000 1.0
C      1  0.5475510000000  0.5329390000000  0.4540490000000 1.0
C      1  0.5568050000000  0.4643240000000  0.5316940000000 1.0
C      1  0.4877350000000  0.4660710000000  0.5635900000000 1.0
C      1  0.4366150000000  0.4658810000000  0.5080490000000 1.0
C      1  0.4723570000000  0.4670320000000  0.4413720000000 1.0
C      1  0.5475540000000  0.4670720000000  0.4540450000000 1.0
C      1  0.5216190000000  0.5327660000000  0.4377380000000 1.0
C      1  0.5665920000000  0.5337810000000  0.5025640000000 1.0
C      1  0.5181010000000  0.5336090000000  0.5629950000000 1.0
C      1  0.4466770000000  0.5336720000000  0.5364050000000 1.0
C      1  0.4493670000000  0.5338670000000  0.4607530000000 1.0
C      1  0.5216220000000  0.4672440000000  0.4377330000000 1.0
C      1  0.5665960000000  0.4662250000000  0.5025590000000 1.0
C      1  0.5181040000000  0.4663850000000  0.5629900000000 1.0
C      1  0.4466810000000  0.4663180000000  0.5364010000000 1.0
C      1  0.4493700000000  0.4661330000000  0.4607490000000 1.0
END
