TITL C-9255-4564-61 -9.06214094719774e-07 125000 -371.779756940438 0 0 60 (Ci) n - 1
REM
REM in /home/bkarasulu/CARBON/AIRSS/Generating-Clusters/EDIP-Nigel-Params/Higher-Symm/Box-15A/Only-C60/SD-CG/HFTN-CG
REM
REM
REM
REM
REM
REM ./C.cell (414f73aa93bd7a1190c7fd0f31ff2f98)
REM
REM compiler GCC version 9.2.1 20190827 (Red Hat 9.2.1-1)
REM options -cpp -mtune=generic -march=x86-64 -g -O0 -fpre-include=/usr/include/finclude/math-vector-fortran.h
REM seed -110873695 1389045467 -1605330581 -1522310334 -951711781 1645532191 -1288708401 -1620758488 1661308080 384465739 -1670291442 147343401 2005406291 -484509646 -863331642 70022545 1526849086 953923738 -1917326164 -426763617 -673546154 1726954900 1824500938 276650500 628839413 1801629669 -1241668834 977734916 1831555607 -1631860850 993312603 -155416330 32381534
REM
CELL 1.54180   50.00000   50.00000   50.00000   90.00000   90.00000   90.00000
LATT -1
SFAC C  
C      1  0.4441060000000  0.4526030000000  0.5092870000000 1.0
C      1  0.4794250000000  0.5487750000000  0.5535550000000 1.0
C      1  0.5366830000000  0.4508170000000  0.5450840000000 1.0
C      1  0.5558940000000  0.5473970000000  0.4907130000000 1.0
C      1  0.5205750000000  0.4512250000000  0.4464450000000 1.0
C      1  0.4633170000000  0.5491830000000  0.4549160000000 1.0
C      1  0.4585330000000  0.4927960000000  0.4535880000000 1.0
C      1  0.4376910000000  0.5076700000000  0.5128880000000 1.0
C      1  0.4804050000000  0.4919640000000  0.5597890000000 1.0
C      1  0.5414670000000  0.5072040000000  0.5464120000000 1.0
C      1  0.5623090000000  0.4923300000000  0.4871120000000 1.0
C      1  0.5195950000000  0.5080360000000  0.4402110000000 1.0
C      1  0.4741780000000  0.5045700000000  0.4311110000000 1.0
C      1  0.4270910000000  0.4957990000000  0.4876600000000 1.0
C      1  0.4533200000000  0.5043150000000  0.5566070000000 1.0
C      1  0.5258220000000  0.4954300000000  0.5688890000000 1.0
C      1  0.5729090000000  0.5042010000000  0.5123400000000 1.0
C      1  0.5466800000000  0.4956850000000  0.4433930000000 1.0
C      1  0.4533500000000  0.5341230000000  0.5484320000000 1.0
C      1  0.5191880000000  0.4654180000000  0.5654660000000 1.0
C      1  0.5655620000000  0.5338770000000  0.5159620000000 1.0
C      1  0.5466500000000  0.4658770000000  0.4515680000000 1.0
C      1  0.4808120000000  0.5345820000000  0.4345340000000 1.0
C      1  0.4344380000000  0.4661230000000  0.4840380000000 1.0
C      1  0.5280600000000  0.5559310000000  0.4939780000000 1.0
C      1  0.5094410000000  0.4421330000000  0.4723140000000 1.0
C      1  0.4799600000000  0.5586930000000  0.4775180000000 1.0
C      1  0.4719400000000  0.4440690000000  0.5060220000000 1.0
C      1  0.4905590000000  0.5578670000000  0.5276860000000 1.0
C      1  0.5200400000000  0.4413070000000  0.5224820000000 1.0
C      1  0.4892590000000  0.4631670000000  0.5585220000000 1.0
C      1  0.5443050000000  0.5356900000000  0.5377770000000 1.0
C      1  0.5547410000000  0.4638740000000  0.4810650000000 1.0
C      1  0.5107410000000  0.5368330000000  0.4414780000000 1.0
C      1  0.4556950000000  0.4643100000000  0.4622230000000 1.0
C      1  0.4452590000000  0.5361260000000  0.5189350000000 1.0
C      1  0.5645340000000  0.5084080000000  0.4630350000000 1.0
C      1  0.5002360000000  0.4918070000000  0.4259580000000 1.0
C      1  0.4361210000000  0.5086850000000  0.4627380000000 1.0
C      1  0.4354660000000  0.4915920000000  0.5369650000000 1.0
C      1  0.4997640000000  0.5081930000000  0.5740420000000 1.0
C      1  0.5638790000000  0.4913150000000  0.5372620000000 1.0
C      1  0.4920120000000  0.4523420000000  0.5283480000000 1.0
C      1  0.5193760000000  0.5471360000000  0.5219500000000 1.0
C      1  0.5281260000000  0.4529990000000  0.4941960000000 1.0
C      1  0.5079880000000  0.5476580000000  0.4716520000000 1.0
C      1  0.4806240000000  0.4528640000000  0.4780500000000 1.0
C      1  0.4718740000000  0.5470010000000  0.5058040000000 1.0
C      1  0.4975150000000  0.5359020000000  0.5709650000000 1.0
C      1  0.5608540000000  0.4635450000000  0.5379730000000 1.0
C      1  0.5636050000000  0.5361990000000  0.4660170000000 1.0
C      1  0.5024850000000  0.4640980000000  0.4290350000000 1.0
C      1  0.4391460000000  0.5364550000000  0.4620270000000 1.0
C      1  0.4363950000000  0.4638010000000  0.5339830000000 1.0
C      1  0.5035370000000  0.5181950000000  0.4800660000000 1.0
C      1  0.4910350000000  0.4818170000000  0.4814290000000 1.0
C      1  0.4830780000000  0.5197310000000  0.5024360000000 1.0
C      1  0.4964630000000  0.4818050000000  0.5199340000000 1.0
C      1  0.5089650000000  0.5181830000000  0.5185710000000 1.0
C      1  0.5169220000000  0.4802690000000  0.4975640000000 1.0
END
