TITL C-9265-7156-85 -2.59895933959515e-07 125000 -363.991518585667 0 0 60 (C1) n - 1
REM
REM in /home/bkarasulu/CARBON/AIRSS/Generating-Clusters/EDIP-Nigel-Params/Higher-Symm/Box-15A/Only-C60/SD-CG/HFTN-CG
REM
REM
REM
REM
REM
REM ./C.cell (414f73aa93bd7a1190c7fd0f31ff2f98)
REM
REM compiler GCC version 9.2.1 20190827 (Red Hat 9.2.1-1)
REM options -cpp -mtune=generic -march=x86-64 -g -O0 -fpre-include=/usr/include/finclude/math-vector-fortran.h
REM seed -503129458 200504741 -80329024 -1329807865 -643650524 -935526569 -420055283 -1646047697 -1532308565 -619642027 1580912273 -1128490200 1911786985 -894508036 -1821004025 145721120 -419519213 1794036286 -1167566334 -75919089 -371654497 345459556 -691882078 -1296260289 1740147748 -772969455 -593091885 2121696864 -810786599 42725006 -1338893465 -236690248 -750468843
REM
CELL 1.54180   50.00000   50.00000   50.00000   90.00000   90.00000   90.00000
LATT -1
SFAC C  
C      1  0.4327450000000  0.4591380000000  0.4963800000000 1.0
C      1  0.4323020000000  0.5167620000000  0.5378440000000 1.0
C      1  0.4340000000000  0.5231000000000  0.4672340000000 1.0
C      1  0.5661580000000  0.4598040000000  0.5034340000000 1.0
C      1  0.5677300000000  0.5168410000000  0.4621900000000 1.0
C      1  0.5661020000000  0.5232320000000  0.5329440000000 1.0
C      1  0.5428860000000  0.4455460000000  0.5165270000000 1.0
C      1  0.5432840000000  0.5420110000000  0.5391580000000 1.0
C      1  0.5477230000000  0.5103430000000  0.4413620000000 1.0
C      1  0.4551460000000  0.4437590000000  0.4824130000000 1.0
C      1  0.4569910000000  0.5416600000000  0.4611630000000 1.0
C      1  0.4522810000000  0.5104210000000  0.5587000000000 1.0
C      1  0.5437490000000  0.4616000000000  0.4562490000000 1.0
C      1  0.5436390000000  0.4817030000000  0.5554070000000 1.0
C      1  0.5434370000000  0.5565600000000  0.4879480000000 1.0
C      1  0.4564550000000  0.4617970000000  0.5433780000000 1.0
C      1  0.4565410000000  0.4815760000000  0.4450220000000 1.0
C      1  0.4566680000000  0.5565300000000  0.5122010000000 1.0
C      1  0.5102630000000  0.4742610000000  0.5093360000000 1.0
C      1  0.5099460000000  0.5208680000000  0.5196350000000 1.0
C      1  0.5120700000000  0.5085580000000  0.4671500000000 1.0
C      1  0.4891710000000  0.4704980000000  0.4909060000000 1.0
C      1  0.4903610000000  0.5206750000000  0.4808190000000 1.0
C      1  0.4881930000000  0.5089360000000  0.5333180000000 1.0
C      1  0.5191010000000  0.4392440000000  0.4960570000000 1.0
C      1  0.5196540000000  0.5282750000000  0.5560120000000 1.0
C      1  0.5185330000000  0.5334500000000  0.4498240000000 1.0
C      1  0.4814000000000  0.4421010000000  0.5029940000000 1.0
C      1  0.4805420000000  0.5279400000000  0.4444110000000 1.0
C      1  0.4815700000000  0.5336280000000  0.5505230000000 1.0
C      1  0.4797560000000  0.4455520000000  0.5336280000000 1.0
C      1  0.4801470000000  0.5574140000000  0.5315400000000 1.0
C      1  0.4790790000000  0.4988050000000  0.4341630000000 1.0
C      1  0.5207890000000  0.4444650000000  0.4657910000000 1.0
C      1  0.5199420000000  0.5573440000000  0.4686980000000 1.0
C      1  0.5211560000000  0.4990780000000  0.5663860000000 1.0
C      1  0.5323400000000  0.4551540000000  0.5447070000000 1.0
C      1  0.5327990000000  0.5611540000000  0.5165190000000 1.0
C      1  0.5340030000000  0.4837620000000  0.4374970000000 1.0
C      1  0.4672810000000  0.4547400000000  0.4552440000000 1.0
C      1  0.4673600000000  0.5609970000000  0.4836510000000 1.0
C      1  0.4659770000000  0.4838100000000  0.5624120000000 1.0
C      1  0.5042200000000  0.4640940000000  0.5364080000000 1.0
C      1  0.5045600000000  0.5494590000000  0.5143160000000 1.0
C      1  0.5046660000000  0.4873620000000  0.4476740000000 1.0
C      1  0.4962120000000  0.4628500000000  0.4629790000000 1.0
C      1  0.4956090000000  0.5493430000000  0.4859600000000 1.0
C      1  0.4955510000000  0.4876750000000  0.5527340000000 1.0
C      1  0.4397980000000  0.4716750000000  0.5214610000000 1.0
C      1  0.4410130000000  0.5317420000000  0.5144550000000 1.0
C      1  0.4392390000000  0.4951210000000  0.4643660000000 1.0
C      1  0.5608520000000  0.4714940000000  0.4778360000000 1.0
C      1  0.5589480000000  0.5317160000000  0.4856320000000 1.0
C      1  0.5603400000000  0.4953150000000  0.5355390000000 1.0
C      1  0.4203520000000  0.4935430000000  0.5220090000000 1.0
C      1  0.4216030000000  0.5217850000000  0.4948160000000 1.0
C      1  0.4203450000000  0.4840590000000  0.4838760000000 1.0
C      1  0.5799400000000  0.4937320000000  0.4779200000000 1.0
C      1  0.5783890000000  0.5218560000000  0.5052290000000 1.0
C      1  0.5790930000000  0.4840890000000  0.5160140000000 1.0
END
