TITL C-9255-4564-301 1.47449281831495e-05 125000 -362.852541555066 0 0 60 (S4) n - 1
REM
REM in /home/bkarasulu/CARBON/AIRSS/Generating-Clusters/EDIP-Nigel-Params/Higher-Symm/Box-15A/Only-C60/SD-CG/HFTN-CG
REM
REM
REM
REM
REM
REM ./C.cell (414f73aa93bd7a1190c7fd0f31ff2f98)
REM
REM compiler GCC version 9.2.1 20190827 (Red Hat 9.2.1-1)
REM options -cpp -mtune=generic -march=x86-64 -g -O0 -fpre-include=/usr/include/finclude/math-vector-fortran.h
REM seed -301468259 -1086272280 -1884445019 277916741 -2049922638 -1113614036 -1280060381 -646991249 -1375701833 -885853495 -1982708957 905331535 -212765385 328992655 -828744252 -1040534383 -254880843 1096522343 -426370720 -834041137 408980653 -500489710 -256115321 1325513332 -889042545 1600742017 557810340 1426271028 1696628755 -1197602313 -1564409785 -650971810 -78886138
REM
CELL 1.54180   50.00000   50.00000   50.00000   90.00000   90.00000   90.00000
LATT -1
SFAC C  
C      1  0.5091830000000  0.4912410000000  0.4134600000000 1.0
C      1  0.5091800000000  0.5087590000000  0.5865410000000 1.0
C      1  0.4885530000000  0.4910150000000  0.5871270000000 1.0
C      1  0.4885560000000  0.5089850000000  0.4128730000000 1.0
C      1  0.5114460000000  0.4128730000000  0.4910150000000 1.0
C      1  0.5114450000000  0.5871270000000  0.5089850000000 1.0
C      1  0.4908190000000  0.5865400000000  0.4912410000000 1.0
C      1  0.4908190000000  0.4134590000000  0.5087590000000 1.0
C      1  0.4844950000000  0.4693430000000  0.5695540000000 1.0
C      1  0.4844980000000  0.5306570000000  0.4304450000000 1.0
C      1  0.5142630000000  0.4696990000000  0.4309310000000 1.0
C      1  0.5142600000000  0.5303010000000  0.5690690000000 1.0
C      1  0.4857390000000  0.5690690000000  0.4696990000000 1.0
C      1  0.4857380000000  0.4309310000000  0.5303010000000 1.0
C      1  0.5155040000000  0.4304450000000  0.4693430000000 1.0
C      1  0.5155030000000  0.5695550000000  0.5306570000000 1.0
C      1  0.4492540000000  0.5033060000000  0.4556250000000 1.0
C      1  0.4492530000000  0.4966940000000  0.5443730000000 1.0
C      1  0.5494010000000  0.5019790000000  0.5436590000000 1.0
C      1  0.5494030000000  0.4980220000000  0.4563430000000 1.0
C      1  0.4505980000000  0.4563420000000  0.5019780000000 1.0
C      1  0.4505980000000  0.5436580000000  0.4980210000000 1.0
C      1  0.5507470000000  0.5443740000000  0.5033070000000 1.0
C      1  0.5507470000000  0.4556260000000  0.4966950000000 1.0
C      1  0.4633100000000  0.4716550000000  0.5486990000000 1.0
C      1  0.4633110000000  0.5283450000000  0.4513000000000 1.0
C      1  0.5360280000000  0.4722020000000  0.4512610000000 1.0
C      1  0.5360260000000  0.5277980000000  0.5487410000000 1.0
C      1  0.4639730000000  0.5487400000000  0.4722010000000 1.0
C      1  0.4639730000000  0.4512600000000  0.5277980000000 1.0
C      1  0.5366900000000  0.4513000000000  0.4716560000000 1.0
C      1  0.5366890000000  0.5487000000000  0.5283460000000 1.0
C      1  0.5700210000000  0.4996270000000  0.4778430000000 1.0
C      1  0.5700210000000  0.5003740000000  0.5221600000000 1.0
C      1  0.4302330000000  0.4996260000000  0.5221910000000 1.0
C      1  0.4302340000000  0.5003730000000  0.4778070000000 1.0
C      1  0.5697670000000  0.4778080000000  0.4996280000000 1.0
C      1  0.5697660000000  0.5221920000000  0.5003750000000 1.0
C      1  0.4299790000000  0.5221580000000  0.4996250000000 1.0
C      1  0.4299790000000  0.4778420000000  0.5003720000000 1.0
C      1  0.5111480000000  0.5544520000000  0.4655090000000 1.0
C      1  0.5111470000000  0.4455480000000  0.5344920000000 1.0
C      1  0.4897810000000  0.5552450000000  0.5335670000000 1.0
C      1  0.4897830000000  0.4447550000000  0.4664330000000 1.0
C      1  0.5102170000000  0.4664330000000  0.5552450000000 1.0
C      1  0.5102190000000  0.5335670000000  0.4447550000000 1.0
C      1  0.4888520000000  0.5344920000000  0.5544520000000 1.0
C      1  0.4888540000000  0.4655080000000  0.4455480000000 1.0
C      1  0.4854150000000  0.4914560000000  0.4610000000000 1.0
C      1  0.4854140000000  0.5085440000000  0.5389990000000 1.0
C      1  0.5122400000000  0.4919590000000  0.5390760000000 1.0
C      1  0.5122420000000  0.5080410000000  0.4609240000000 1.0
C      1  0.4877590000000  0.4609240000000  0.4919580000000 1.0
C      1  0.4877590000000  0.5390760000000  0.5080410000000 1.0
C      1  0.5145850000000  0.5390000000000  0.4914560000000 1.0
C      1  0.5145850000000  0.4610000000000  0.5085450000000 1.0
C      1  0.5287910000000  0.4890360000000  0.5118580000000 1.0
C      1  0.5287910000000  0.5109640000000  0.4881430000000 1.0
C      1  0.4712090000000  0.4881420000000  0.4890360000000 1.0
C      1  0.4712090000000  0.5118570000000  0.5109630000000 1.0
END
