TITL C-9264-7143-80 -1.02313008389663e-08 125000 -367.562820834923 0 0 60 (C1) n - 1
REM
REM in /home/bkarasulu/CARBON/AIRSS/Generating-Clusters/EDIP-Nigel-Params/Higher-Symm/Box-15A/Only-C60/SD-CG/HFTN-CG
REM
REM
REM
REM
REM
REM ./C.cell (414f73aa93bd7a1190c7fd0f31ff2f98)
REM
REM compiler GCC version 9.2.1 20190827 (Red Hat 9.2.1-1)
REM options -cpp -mtune=generic -march=x86-64 -g -O0 -fpre-include=/usr/include/finclude/math-vector-fortran.h
REM seed 375038821 1136975964 1123696199 -727132737 -1402379981 898517817 -256484119 -700894270 -1735653756 -990677962 -624073279 193670316 666825161 653846734 -965432023 -94951739 -1217533862 -1168533146 -1862621808 -1788910300 577407819 -231491631 1950515774 233600445 609268343 -1655447428 1402342211 -861113405 1397873112 1809373707 1869326340 -620069455 -1418815663
REM
CELL 1.54180   50.00000   50.00000   50.00000   90.00000   90.00000   90.00000
LATT -1
SFAC C  
C      1  0.5099190000000  0.5475520000000  0.5306310000000 1.0
C      1  0.5545440000000  0.5325460000000  0.5112920000000 1.0
C      1  0.5345200000000  0.5149170000000  0.5588920000000 1.0
C      1  0.4832820000000  0.4431380000000  0.5389210000000 1.0
C      1  0.5166960000000  0.4417840000000  0.4695270000000 1.0
C      1  0.4900170000000  0.5463800000000  0.4733840000000 1.0
C      1  0.4454250000000  0.4669880000000  0.5124060000000 1.0
C      1  0.5604480000000  0.4628690000000  0.4869490000000 1.0
C      1  0.4474300000000  0.5287790000000  0.4926570000000 1.0
C      1  0.4583220000000  0.4842060000000  0.5572140000000 1.0
C      1  0.5357550000000  0.4860110000000  0.4506560000000 1.0
C      1  0.4620140000000  0.5148460000000  0.4470060000000 1.0
C      1  0.5622700000000  0.5150480000000  0.5339770000000 1.0
C      1  0.5331790000000  0.5520180000000  0.5133980000000 1.0
C      1  0.5127140000000  0.5333730000000  0.5557570000000 1.0
C      1  0.4447350000000  0.4884680000000  0.5318670000000 1.0
C      1  0.4430200000000  0.5120880000000  0.4692380000000 1.0
C      1  0.5567850000000  0.4869840000000  0.4702680000000 1.0
C      1  0.4609700000000  0.4427950000000  0.5184940000000 1.0
C      1  0.4672460000000  0.5493700000000  0.4913270000000 1.0
C      1  0.5425130000000  0.4396180000000  0.4844440000000 1.0
C      1  0.4844860000000  0.4695090000000  0.5555910000000 1.0
C      1  0.4888710000000  0.5258660000000  0.4530250000000 1.0
C      1  0.5168520000000  0.4631530000000  0.4476550000000 1.0
C      1  0.5183530000000  0.4336080000000  0.5263120000000 1.0
C      1  0.4309810000000  0.5346070000000  0.5160890000000 1.0
C      1  0.5360610000000  0.5116430000000  0.4359510000000 1.0
C      1  0.4856570000000  0.5626890000000  0.5363560000000 1.0
C      1  0.5134650000000  0.5627200000000  0.4671560000000 1.0
C      1  0.4943100000000  0.4522840000000  0.4868350000000 1.0
C      1  0.5773490000000  0.4569830000000  0.5106650000000 1.0
C      1  0.4371060000000  0.4639830000000  0.4845040000000 1.0
C      1  0.5695130000000  0.5361760000000  0.4861930000000 1.0
C      1  0.4589050000000  0.4892000000000  0.4321530000000 1.0
C      1  0.5303340000000  0.4879550000000  0.5477900000000 1.0
C      1  0.4561920000000  0.5105210000000  0.5718520000000 1.0
C      1  0.4295030000000  0.5133530000000  0.5364080000000 1.0
C      1  0.5421250000000  0.4258090000000  0.5110980000000 1.0
C      1  0.5128300000000  0.5310150000000  0.4358670000000 1.0
C      1  0.5780070000000  0.4795730000000  0.5287250000000 1.0
C      1  0.5691080000000  0.5140910000000  0.4655710000000 1.0
C      1  0.4297050000000  0.4857290000000  0.4654660000000 1.0
C      1  0.4638880000000  0.5645200000000  0.5163420000000 1.0
C      1  0.4693340000000  0.4343440000000  0.4912620000000 1.0
C      1  0.5355890000000  0.5648030000000  0.4867460000000 1.0
C      1  0.4803040000000  0.4721400000000  0.4419940000000 1.0
C      1  0.4794380000000  0.5283210000000  0.5731240000000 1.0
C      1  0.5043030000000  0.4812360000000  0.5367130000000 1.0
C      1  0.4322340000000  0.5233150000000  0.5629850000000 1.0
C      1  0.5221340000000  0.5577140000000  0.4404900000000 1.0
C      1  0.5509010000000  0.4882700000000  0.5275250000000 1.0
C      1  0.4329220000000  0.4782240000000  0.4379900000000 1.0
C      1  0.5614250000000  0.5242090000000  0.4398680000000 1.0
C      1  0.5079800000000  0.4589140000000  0.5148730000000 1.0
C      1  0.4764690000000  0.5541890000000  0.5619660000000 1.0
C      1  0.4874800000000  0.4754280000000  0.4697820000000 1.0
C      1  0.5674660000000  0.4327940000000  0.5224840000000 1.0
C      1  0.4377030000000  0.5601950000000  0.5271560000000 1.0
C      1  0.5617760000000  0.5615880000000  0.4754000000000 1.0
C      1  0.4471360000000  0.4395460000000  0.4737310000000 1.0
END
