TITL C-9257-5531-142 -3.05699985306605e-05 125000 -358.769735359155 0 0 60 (C1) n - 1
REM
REM in /home/bkarasulu/CARBON/AIRSS/Generating-Clusters/EDIP-Nigel-Params/Higher-Symm/Box-15A/Only-C60/SD-CG/HFTN-CG
REM
REM
REM
REM
REM
REM ./C.cell (414f73aa93bd7a1190c7fd0f31ff2f98)
REM
REM compiler GCC version 9.2.1 20190827 (Red Hat 9.2.1-1)
REM options -cpp -mtune=generic -march=x86-64 -g -O0 -fpre-include=/usr/include/finclude/math-vector-fortran.h
REM seed -1450918758 -272080634 1187799775 938589898 817617534 1002308349 645549952 677950417 1294463308 -859132800 658930340 -312084211 -716148564 -1546320278 -846159622 1165422927 1696998403 1961633183 -1115433989 1614291861 338163539 -132434444 1161008008 1520282440 1339774904 -895621037 -504402911 1316444354 -1798130162 -12811185 -59299725 968408849 145865897
REM
CELL 1.54180   50.00000   50.00000   50.00000   90.00000   90.00000   90.00000
LATT -1
SFAC C  
C      1  0.4610690000000  0.5275040000000  0.5646800000000 1.0
C      1  0.5570460000000  0.4584050000000  0.5196010000000 1.0
C      1  0.5159180000000  0.5582560000000  0.4520370000000 1.0
C      1  0.4600580000000  0.4841840000000  0.4419540000000 1.0
C      1  0.5380330000000  0.4759170000000  0.5617570000000 1.0
C      1  0.5472520000000  0.5180780000000  0.4444280000000 1.0
C      1  0.5553320000000  0.5437030000000  0.4798220000000 1.0
C      1  0.4434320000000  0.5434960000000  0.5190750000000 1.0
C      1  0.4369760000000  0.4558020000000  0.4797160000000 1.0
C      1  0.5221830000000  0.4333770000000  0.5444210000000 1.0
C      1  0.4933050000000  0.4454060000000  0.4518740000000 1.0
C      1  0.4814060000000  0.5670870000000  0.5430750000000 1.0
C      1  0.4563600000000  0.5656580000000  0.5305330000000 1.0
C      1  0.5677130000000  0.5320940000000  0.4575390000000 1.0
C      1  0.5157250000000  0.4560560000000  0.5616200000000 1.0
C      1  0.4605900000000  0.4414820000000  0.4873990000000 1.0
C      1  0.5329040000000  0.5629510000000  0.4765070000000 1.0
C      1  0.5465060000000  0.4352830000000  0.5315690000000 1.0
C      1  0.5551790000000  0.4823350000000  0.5378740000000 1.0
C      1  0.4443710000000  0.5198780000000  0.5403890000000 1.0
C      1  0.4383430000000  0.4768630000000  0.4613620000000 1.0
C      1  0.5200760000000  0.5303470000000  0.4412060000000 1.0
C      1  0.4870200000000  0.4687960000000  0.4351000000000 1.0
C      1  0.4853800000000  0.5441060000000  0.5636410000000 1.0
C      1  0.4465190000000  0.4745450000000  0.5123630000000 1.0
C      1  0.5225900000000  0.4463600000000  0.4519460000000 1.0
C      1  0.4595300000000  0.5133450000000  0.4483040000000 1.0
C      1  0.4504010000000  0.5400730000000  0.4900140000000 1.0
C      1  0.5503100000000  0.5357660000000  0.5080680000000 1.0
C      1  0.5495220000000  0.4616050000000  0.4914280000000 1.0
C      1  0.5063280000000  0.5539510000000  0.5257900000000 1.0
C      1  0.4857980000000  0.5550110000000  0.4548220000000 1.0
C      1  0.4897580000000  0.4434980000000  0.5260980000000 1.0
C      1  0.4627920000000  0.4753950000000  0.5584430000000 1.0
C      1  0.5460810000000  0.4901720000000  0.4518500000000 1.0
C      1  0.5370870000000  0.5206960000000  0.5519050000000 1.0
C      1  0.4459940000000  0.5124290000000  0.4762030000000 1.0
C      1  0.5246450000000  0.4739390000000  0.4409180000000 1.0
C      1  0.4610350000000  0.4456840000000  0.5160480000000 1.0
C      1  0.4436870000000  0.4875930000000  0.5396420000000 1.0
C      1  0.5510100000000  0.5124410000000  0.5278520000000 1.0
C      1  0.5598480000000  0.4831060000000  0.4758710000000 1.0
C      1  0.5127450000000  0.5364200000000  0.5496830000000 1.0
C      1  0.4880050000000  0.4612320000000  0.5505420000000 1.0
C      1  0.4812950000000  0.5298700000000  0.4416560000000 1.0
C      1  0.4716170000000  0.5583800000000  0.4804560000000 1.0
C      1  0.5333130000000  0.4415560000000  0.4787770000000 1.0
C      1  0.5335590000000  0.5590910000000  0.5151960000000 1.0
C      1  0.5296180000000  0.5009890000000  0.4915560000000 1.0
C      1  0.4921670000000  0.5375250000000  0.5043320000000 1.0
C      1  0.5131480000000  0.4846240000000  0.5101390000000 1.0
C      1  0.4628330000000  0.4957950000000  0.4961260000000 1.0
C      1  0.4755020000000  0.5144290000000  0.5162460000000 1.0
C      1  0.4858640000000  0.4555570000000  0.4790490000000 1.0
C      1  0.5067200000000  0.4559420000000  0.5022740000000 1.0
C      1  0.5138240000000  0.5297090000000  0.4847450000000 1.0
C      1  0.5064200000000  0.5031020000000  0.4660200000000 1.0
C      1  0.4840790000000  0.5041760000000  0.5446270000000 1.0
C      1  0.5127900000000  0.4936980000000  0.5389740000000 1.0
C      1  0.4813910000000  0.4852330000000  0.4748560000000 1.0
END
