TITL C-9259-5960-140 1.59317738123534e-06 125000 -370.228684119105 0 0 60 (C1) n - 1
REM
REM in /home/bkarasulu/CARBON/AIRSS/Generating-Clusters/EDIP-Nigel-Params/Higher-Symm/Box-15A/Only-C60/SD-CG/HFTN-CG
REM
REM
REM
REM
REM
REM ./C.cell (414f73aa93bd7a1190c7fd0f31ff2f98)
REM
REM compiler GCC version 9.2.1 20190827 (Red Hat 9.2.1-1)
REM options -cpp -mtune=generic -march=x86-64 -g -O0 -fpre-include=/usr/include/finclude/math-vector-fortran.h
REM seed -8948688 -656978511 1101942917 -1566302677 1978862262 -146511065 2111530170 -2068325777 1405337917 -1942577358 -172510268 -642661170 257862283 823021380 -1908030325 -412048587 -467896385 -1074248159 1748811073 561872693 405921783 -690892283 112820537 312324924 1570946488 2125300547 1873246800 -1886635483 309024907 -188651593 -196876553 1893849787 2133091531
REM
CELL 1.54180   50.00000   50.00000   50.00000   90.00000   90.00000   90.00000
LATT -1
SFAC C  
C      1  0.5463010000000  0.4646360000000  0.4863930000000 1.0
C      1  0.4539800000000  0.5366310000000  0.4872080000000 1.0
C      1  0.5684980000000  0.4765970000000  0.4700030000000 1.0
C      1  0.4329000000000  0.5237990000000  0.4703380000000 1.0
C      1  0.4648850000000  0.5644610000000  0.5245390000000 1.0
C      1  0.5363560000000  0.4369470000000  0.5244870000000 1.0
C      1  0.4992050000000  0.5443710000000  0.4977120000000 1.0
C      1  0.4951930000000  0.4455470000000  0.4997880000000 1.0
C      1  0.4448580000000  0.5149860000000  0.4441190000000 1.0
C      1  0.5556900000000  0.4845720000000  0.4435010000000 1.0
C      1  0.4426780000000  0.5204560000000  0.5327500000000 1.0
C      1  0.5577160000000  0.4812120000000  0.5324570000000 1.0
C      1  0.5444680000000  0.5408130000000  0.4825250000000 1.0
C      1  0.4548980000000  0.4598670000000  0.4823060000000 1.0
C      1  0.5207980000000  0.4312610000000  0.5012150000000 1.0
C      1  0.4812180000000  0.5686370000000  0.5016560000000 1.0
C      1  0.5371820000000  0.4368530000000  0.4759780000000 1.0
C      1  0.4637640000000  0.5637650000000  0.4765800000000 1.0
C      1  0.4790640000000  0.5179290000000  0.4887730000000 1.0
C      1  0.5239880000000  0.4856080000000  0.4863070000000 1.0
C      1  0.4707850000000  0.4931140000000  0.5062910000000 1.0
C      1  0.5305220000000  0.5060440000000  0.5062760000000 1.0
C      1  0.4968210000000  0.4507340000000  0.4503450000000 1.0
C      1  0.5029920000000  0.5492950000000  0.4490120000000 1.0
C      1  0.5467310000000  0.5465040000000  0.5118620000000 1.0
C      1  0.4508830000000  0.4541360000000  0.5114940000000 1.0
C      1  0.4810960000000  0.4482940000000  0.4744070000000 1.0
C      1  0.5170980000000  0.5489110000000  0.4741700000000 1.0
C      1  0.5319360000000  0.4912670000000  0.5540270000000 1.0
C      1  0.4685990000000  0.5082970000000  0.5529950000000 1.0
C      1  0.4259090000000  0.4995790000000  0.4854420000000 1.0
C      1  0.5754340000000  0.5018040000000  0.4851390000000 1.0
C      1  0.5139460000000  0.4958150000000  0.4615160000000 1.0
C      1  0.4869590000000  0.5065190000000  0.4625240000000 1.0
C      1  0.4596220000000  0.4813280000000  0.5639160000000 1.0
C      1  0.5393020000000  0.5190280000000  0.5637160000000 1.0
C      1  0.4746220000000  0.5236350000000  0.4420650000000 1.0
C      1  0.5253750000000  0.4760890000000  0.4428300000000 1.0
C      1  0.5624510000000  0.5302800000000  0.5530610000000 1.0
C      1  0.4362370000000  0.4708120000000  0.5530510000000 1.0
C      1  0.4938730000000  0.5147300000000  0.5706900000000 1.0
C      1  0.5053700000000  0.4853540000000  0.5707090000000 1.0
C      1  0.5648920000000  0.5237930000000  0.4678400000000 1.0
C      1  0.4360740000000  0.4781060000000  0.4677430000000 1.0
C      1  0.5186510000000  0.5381600000000  0.5215990000000 1.0
C      1  0.4790330000000  0.4585620000000  0.5219590000000 1.0
C      1  0.4864830000000  0.5010960000000  0.5292370000000 1.0
C      1  0.5155300000000  0.4950100000000  0.5287770000000 1.0
C      1  0.5606350000000  0.5041760000000  0.5124460000000 1.0
C      1  0.4405960000000  0.4973510000000  0.5125850000000 1.0
C      1  0.4409090000000  0.4869200000000  0.4412440000000 1.0
C      1  0.5590840000000  0.5130370000000  0.4420540000000 1.0
C      1  0.5223810000000  0.4387800000000  0.4509760000000 1.0
C      1  0.4770070000000  0.5606550000000  0.4507120000000 1.0
C      1  0.5672470000000  0.5304640000000  0.5256440000000 1.0
C      1  0.4317680000000  0.4716260000000  0.5255720000000 1.0
C      1  0.4847190000000  0.4671500000000  0.5577930000000 1.0
C      1  0.5141950000000  0.5328960000000  0.5583050000000 1.0
C      1  0.4472880000000  0.5439130000000  0.5159270000000 1.0
C      1  0.5533080000000  0.4577920000000  0.5154160000000 1.0
END
