TITL C-9261-551-201 -1.65797209314482e-05 125000 -354.488232510512 0 0 60 (C1) n - 1
REM
REM in /home/bkarasulu/CARBON/AIRSS/Generating-Clusters/EDIP-Nigel-Params/Higher-Symm/Box-15A/Only-C60/SD-CG/HFTN-CG
REM
REM
REM
REM
REM
REM ./C.cell (414f73aa93bd7a1190c7fd0f31ff2f98)
REM
REM compiler GCC version 9.2.1 20190827 (Red Hat 9.2.1-1)
REM options -cpp -mtune=generic -march=x86-64 -g -O0 -fpre-include=/usr/include/finclude/math-vector-fortran.h
REM seed -1064569833 2035853222 -1903948934 -396041219 -278697779 -298224616 704226573 -900393323 -591008194 2143236963 -425615883 1236636641 -1876974122 641213319 877176783 748708491 -956138535 -742010734 -1399696834 1180180544 -1050382895 -474335531 -1920564096 1448243261 -1255754586 583555597 292729017 1371718548 -524989692 -707528349 1675423090 455899983 1589535398
REM
CELL 1.54180   50.00000   50.00000   50.00000   90.00000   90.00000   90.00000
LATT -1
SFAC C  
C      1  0.4248200000000  0.4976740000000  0.5281200000000 1.0
C      1  0.5450930000000  0.4268520000000  0.5159230000000 1.0
C      1  0.5055030000000  0.5325890000000  0.4303840000000 1.0
C      1  0.4273930000000  0.4908990000000  0.4628540000000 1.0
C      1  0.5694260000000  0.5002320000000  0.5369760000000 1.0
C      1  0.5782420000000  0.5205780000000  0.4772060000000 1.0
C      1  0.5094510000000  0.5912020000000  0.4695180000000 1.0
C      1  0.4857180000000  0.5987360000000  0.5426620000000 1.0
C      1  0.4780140000000  0.4330070000000  0.4812940000000 1.0
C      1  0.5002320000000  0.4647270000000  0.5688930000000 1.0
C      1  0.5024890000000  0.4675420000000  0.4280290000000 1.0
C      1  0.4863750000000  0.5278190000000  0.5718150000000 1.0
C      1  0.4243180000000  0.5263490000000  0.5016460000000 1.0
C      1  0.5351200000000  0.5072470000000  0.4319770000000 1.0
C      1  0.5182400000000  0.4238450000000  0.5289820000000 1.0
C      1  0.4290360000000  0.4622680000000  0.4892760000000 1.0
C      1  0.5653850000000  0.5392400000000  0.4950960000000 1.0
C      1  0.5737710000000  0.4742510000000  0.5078860000000 1.0
C      1  0.5255370000000  0.4942520000000  0.5732580000000 1.0
C      1  0.4613610000000  0.4979680000000  0.5681730000000 1.0
C      1  0.4723250000000  0.4922750000000  0.4263120000000 1.0
C      1  0.4918970000000  0.5700190000000  0.4659720000000 1.0
C      1  0.5030710000000  0.4265080000000  0.4703260000000 1.0
C      1  0.4879290000000  0.5708400000000  0.5347650000000 1.0
C      1  0.5203330000000  0.4505780000000  0.4714660000000 1.0
C      1  0.4733510000000  0.5058490000000  0.4512530000000 1.0
C      1  0.4523960000000  0.4675640000000  0.5047610000000 1.0
C      1  0.4922600000000  0.5434210000000  0.5225200000000 1.0
C      1  0.4950440000000  0.5432080000000  0.4782220000000 1.0
C      1  0.5006960000000  0.4562490000000  0.5177290000000 1.0
C      1  0.4730840000000  0.4962860000000  0.5412380000000 1.0
C      1  0.5226070000000  0.5002450000000  0.4577550000000 1.0
C      1  0.5183260000000  0.4995240000000  0.5452160000000 1.0
C      1  0.4516940000000  0.5167610000000  0.4963250000000 1.0
C      1  0.5401470000000  0.5266090000000  0.5029340000000 1.0
C      1  0.5456810000000  0.4812240000000  0.5027530000000 1.0
C      1  0.5119460000000  0.4726670000000  0.4544870000000 1.0
C      1  0.4762000000000  0.4519190000000  0.5015520000000 1.0
C      1  0.4509670000000  0.5055920000000  0.4689860000000 1.0
C      1  0.4935700000000  0.5205380000000  0.5441300000000 1.0
C      1  0.4975620000000  0.4758610000000  0.5416940000000 1.0
C      1  0.4984840000000  0.5205680000000  0.4564110000000 1.0
C      1  0.4719700000000  0.5384290000000  0.4990870000000 1.0
C      1  0.5269810000000  0.4563330000000  0.5004340000000 1.0
C      1  0.5158440000000  0.5437300000000  0.5015330000000 1.0
C      1  0.4522050000000  0.4940350000000  0.5178790000000 1.0
C      1  0.5423910000000  0.5025920000000  0.5253800000000 1.0
C      1  0.5437830000000  0.5032680000000  0.4804500000000 1.0
C      1  0.5153630000000  0.5127810000000  0.4111740000000 1.0
C      1  0.5033580000000  0.4849900000000  0.5898560000000 1.0
C      1  0.4803400000000  0.5049960000000  0.5892370000000 1.0
C      1  0.4060910000000  0.5038880000000  0.5065350000000 1.0
C      1  0.5272410000000  0.4035930000000  0.5083470000000 1.0
C      1  0.4958560000000  0.4890570000000  0.4088950000000 1.0
C      1  0.4082640000000  0.4828410000000  0.4839730000000 1.0
C      1  0.5912600000000  0.4947550000000  0.5186050000000 1.0
C      1  0.5957930000000  0.5163260000000  0.4995980000000 1.0
C      1  0.4931260000000  0.5985560000000  0.4907510000000 1.0
C      1  0.4997580000000  0.5934760000000  0.5184310000000 1.0
C      1  0.5152830000000  0.4047690000000  0.4830600000000 1.0
END
