TITL C-9258-7861-49 2.32708287914681e-05 125000 -365.197161441463 0 0 60 (C1) n - 1
REM
REM in /home/bkarasulu/CARBON/AIRSS/Generating-Clusters/EDIP-Nigel-Params/Higher-Symm/Box-15A/Only-C60/SD-CG/HFTN-CG
REM
REM
REM
REM
REM
REM ./C.cell (414f73aa93bd7a1190c7fd0f31ff2f98)
REM
REM compiler GCC version 9.2.1 20190827 (Red Hat 9.2.1-1)
REM options -cpp -mtune=generic -march=x86-64 -g -O0 -fpre-include=/usr/include/finclude/math-vector-fortran.h
REM seed -1811382477 1808484444 750721421 -1731677132 -1989718787 -612657132 -275083280 -2108540875 89746766 392972904 13942135 728928836 2098709474 290923168 -674265224 1522551570 -1663160078 2093604090 1230920385 985454820 -51085014 -1663424232 1561718546 1313379501 1878186364 -1205484759 1940294158 1196635037 2105106782 -1444956393 2106461527 -1782292684 -2693958
REM
CELL 1.54180   50.00000   50.00000   50.00000   90.00000   90.00000   90.00000
LATT -1
SFAC C  
C      1  0.4944740000000  0.4437530000000  0.4709020000000 1.0
C      1  0.5053620000000  0.4441110000000  0.5294250000000 1.0
C      1  0.4515080000000  0.4570790000000  0.4787900000000 1.0
C      1  0.5478960000000  0.4586200000000  0.5212760000000 1.0
C      1  0.4852370000000  0.4912660000000  0.5183120000000 1.0
C      1  0.5162710000000  0.4924280000000  0.4803100000000 1.0
C      1  0.4972060000000  0.5490800000000  0.4445520000000 1.0
C      1  0.5065960000000  0.5492780000000  0.5567780000000 1.0
C      1  0.5736510000000  0.4802870000000  0.4851580000000 1.0
C      1  0.4268800000000  0.4825890000000  0.5141840000000 1.0
C      1  0.5175020000000  0.4940690000000  0.4313500000000 1.0
C      1  0.4851100000000  0.4941830000000  0.5673500000000 1.0
C      1  0.5334790000000  0.4908490000000  0.4551310000000 1.0
C      1  0.4682420000000  0.4915180000000  0.5438780000000 1.0
C      1  0.4703340000000  0.5393220000000  0.4418510000000 1.0
C      1  0.5334820000000  0.5397190000000  0.5571670000000 1.0
C      1  0.4237350000000  0.5299980000000  0.5019330000000 1.0
C      1  0.5797480000000  0.5246830000000  0.4985840000000 1.0
C      1  0.5515080000000  0.4928930000000  0.5566910000000 1.0
C      1  0.4511650000000  0.4930110000000  0.4457160000000 1.0
C      1  0.5383950000000  0.4679120000000  0.5470630000000 1.0
C      1  0.4605790000000  0.4656770000000  0.4523390000000 1.0
C      1  0.4245650000000  0.5106500000000  0.5243990000000 1.0
C      1  0.5761690000000  0.5082740000000  0.4761510000000 1.0
C      1  0.4296700000000  0.4625280000000  0.5335720000000 1.0
C      1  0.5700020000000  0.4605480000000  0.4655870000000 1.0
C      1  0.4293640000000  0.5042190000000  0.4595410000000 1.0
C      1  0.5730020000000  0.5043530000000  0.5424730000000 1.0
C      1  0.4612290000000  0.5311360000000  0.5114310000000 1.0
C      1  0.5331010000000  0.5344470000000  0.4808880000000 1.0
C      1  0.5419850000000  0.4617050000000  0.4606170000000 1.0
C      1  0.4576900000000  0.4627720000000  0.5389710000000 1.0
C      1  0.4933250000000  0.5009390000000  0.4216070000000 1.0
C      1  0.5087720000000  0.5023070000000  0.5779700000000 1.0
C      1  0.4356030000000  0.5259620000000  0.4759330000000 1.0
C      1  0.5680430000000  0.5244780000000  0.5238150000000 1.0
C      1  0.4853760000000  0.4531640000000  0.4456040000000 1.0
C      1  0.5145840000000  0.4539370000000  0.5547290000000 1.0
C      1  0.4711850000000  0.5068790000000  0.4947260000000 1.0
C      1  0.5307480000000  0.5089770000000  0.5051600000000 1.0
C      1  0.5070030000000  0.5095100000000  0.5251030000000 1.0
C      1  0.4930080000000  0.5095370000000  0.4737520000000 1.0
C      1  0.4726960000000  0.4409680000000  0.4908510000000 1.0
C      1  0.5271240000000  0.4419990000000  0.5093310000000 1.0
C      1  0.5460980000000  0.5422870000000  0.5297190000000 1.0
C      1  0.4529570000000  0.5465390000000  0.4650110000000 1.0
C      1  0.5218230000000  0.4491380000000  0.4805880000000 1.0
C      1  0.4776750000000  0.4484240000000  0.5196900000000 1.0
C      1  0.4632380000000  0.5661730000000  0.4825570000000 1.0
C      1  0.5309090000000  0.5533230000000  0.5061540000000 1.0
C      1  0.4942590000000  0.5317380000000  0.5388350000000 1.0
C      1  0.5054540000000  0.5356200000000  0.4685080000000 1.0
C      1  0.5038650000000  0.5625210000000  0.5095010000000 1.0
C      1  0.4755750000000  0.5584880000000  0.5065400000000 1.0
C      1  0.4528510000000  0.4791810000000  0.4995380000000 1.0
C      1  0.5475850000000  0.4795850000000  0.4997980000000 1.0
C      1  0.4508250000000  0.5165070000000  0.5386620000000 1.0
C      1  0.5510670000000  0.5152740000000  0.4622560000000 1.0
C      1  0.4688660000000  0.5112880000000  0.4310010000000 1.0
C      1  0.5343490000000  0.5123000000000  0.5706920000000 1.0
END
