TITL C-9259-5960-351 -5.32233365342796e-07 125000 -391.467711235593 0 0 60 (Ih) n - 1
REM
REM in /home/bkarasulu/CARBON/AIRSS/Generating-Clusters/EDIP-Nigel-Params/Higher-Symm/Box-15A/Only-C60/SD-CG/HFTN-CG
REM
REM
REM
REM
REM
REM ./C.cell (414f73aa93bd7a1190c7fd0f31ff2f98)
REM
REM compiler GCC version 9.2.1 20190827 (Red Hat 9.2.1-1)
REM options -cpp -mtune=generic -march=x86-64 -g -O0 -fpre-include=/usr/include/finclude/math-vector-fortran.h
REM seed 1024461322 -709592561 1291569771 -328302839 -1978819001 1329034648 -1397390471 642621203 -1262053795 -801085445 -1643704033 -602102624 -1982945762 857253659 1320664230 -1768760677 -2085766260 -1511340545 -1658949967 -2058735527 531540311 -1357600101 9649670 576794142 -1695617984 522255878 831167226 657189142 -1493392731 1683833592 -196444009 829023119 520192788
REM
CELL 1.54180   50.00000   50.00000   50.00000   90.00000   90.00000   90.00000
LATT -1
SFAC C  
C      1  0.5538710000000  0.5481690000000  0.5148940000000 1.0
C      1  0.5148950000000  0.5538700000000  0.5481700000000 1.0
C      1  0.5481700000000  0.5148940000000  0.5538700000000 1.0
C      1  0.5538700000000  0.4518300000000  0.4851050000000 1.0
C      1  0.4461300000000  0.4518310000000  0.5148940000000 1.0
C      1  0.4461300000000  0.5481700000000  0.4851060000000 1.0
C      1  0.5148940000000  0.4461300000000  0.4518300000000 1.0
C      1  0.4851050000000  0.4461300000000  0.5481700000000 1.0
C      1  0.4851060000000  0.5538700000000  0.4518300000000 1.0
C      1  0.5481700000000  0.4851050000000  0.4461300000000 1.0
C      1  0.4518300000000  0.4851060000000  0.5538700000000 1.0
C      1  0.4518300000000  0.5148950000000  0.4461300000000 1.0
C      1  0.4461300000000  0.5481700000000  0.5148950000000 1.0
C      1  0.4851060000000  0.5538700000000  0.5481700000000 1.0
C      1  0.4518300000000  0.5148950000000  0.5538700000000 1.0
C      1  0.4461290000000  0.4518310000000  0.4851060000000 1.0
C      1  0.5538700000000  0.4518300000000  0.5148940000000 1.0
C      1  0.5538700000000  0.5481690000000  0.4851060000000 1.0
C      1  0.4851050000000  0.4461300000000  0.4518300000000 1.0
C      1  0.5148940000000  0.4461300000000  0.5481700000000 1.0
C      1  0.5148950000000  0.5538700000000  0.4518300000000 1.0
C      1  0.4518300000000  0.4851060000000  0.4461300000000 1.0
C      1  0.5481700000000  0.4851050000000  0.5538700000000 1.0
C      1  0.5481700000000  0.5148940000000  0.4461300000000 1.0
C      1  0.4759000000000  0.4702300000000  0.4369360000000 1.0
C      1  0.4369360000000  0.4759010000000  0.4702290000000 1.0
C      1  0.4702290000000  0.4369360000000  0.4759000000000 1.0
C      1  0.4759010000000  0.5297710000000  0.5630640000000 1.0
C      1  0.5241000000000  0.5297710000000  0.4369360000000 1.0
C      1  0.5240990000000  0.4702290000000  0.5630640000000 1.0
C      1  0.4369360000000  0.5241000000000  0.5297710000000 1.0
C      1  0.5630640000000  0.5240990000000  0.4702290000000 1.0
C      1  0.5630640000000  0.4759000000000  0.5297700000000 1.0
C      1  0.4702300000000  0.5630640000000  0.5241000000000 1.0
C      1  0.5297710000000  0.5630640000000  0.4759010000000 1.0
C      1  0.5297700000000  0.4369360000000  0.5240990000000 1.0
C      1  0.5240990000000  0.4702290000000  0.4369360000000 1.0
C      1  0.5630640000000  0.4759000000000  0.4702290000000 1.0
C      1  0.5297700000000  0.4369360000000  0.4759000000000 1.0
C      1  0.5241000000000  0.5297700000000  0.5630640000000 1.0
C      1  0.4759010000000  0.5297710000000  0.4369360000000 1.0
C      1  0.4759000000000  0.4702290000000  0.5630640000000 1.0
C      1  0.5630640000000  0.5240990000000  0.5297710000000 1.0
C      1  0.4369360000000  0.5241000000000  0.4702300000000 1.0
C      1  0.4369360000000  0.4759010000000  0.5297710000000 1.0
C      1  0.5297710000000  0.5630640000000  0.5241000000000 1.0
C      1  0.4702300000000  0.5630640000000  0.4759010000000 1.0
C      1  0.4702290000000  0.4369360000000  0.5240990000000 1.0
C      1  0.4277310000000  0.5000010000000  0.5148760000000 1.0
C      1  0.5148760000000  0.4277300000000  0.5000000000000 1.0
C      1  0.5000000000000  0.5148760000000  0.4277310000000 1.0
C      1  0.4277310000000  0.5000010000000  0.4851240000000 1.0
C      1  0.5722690000000  0.4999990000000  0.5148760000000 1.0
C      1  0.5722690000000  0.4999990000000  0.4851240000000 1.0
C      1  0.5148770000000  0.5722690000000  0.5000000000000 1.0
C      1  0.4851240000000  0.5722700000000  0.5000000000000 1.0
C      1  0.4851230000000  0.4277310000000  0.5000000000000 1.0
C      1  0.5000000000000  0.4851240000000  0.5722690000000 1.0
C      1  0.5000000000000  0.4851240000000  0.4277310000000 1.0
C      1  0.5000000000000  0.5148760000000  0.5722690000000 1.0
END
