TITL C-9268-6400-149 -7.35204721917825e-07 125000 -364.105750489649 0 0 60 (C1) n - 1
REM
REM in /home/bkarasulu/CARBON/AIRSS/Generating-Clusters/EDIP-Nigel-Params/Higher-Symm/Box-15A/Only-C60/SD-CG/HFTN-CG
REM
REM
REM
REM
REM
REM ./C.cell (414f73aa93bd7a1190c7fd0f31ff2f98)
REM
REM compiler GCC version 9.2.1 20190827 (Red Hat 9.2.1-1)
REM options -cpp -mtune=generic -march=x86-64 -g -O0 -fpre-include=/usr/include/finclude/math-vector-fortran.h
REM seed -100308909 610920474 284467975 1552058923 187316477 -1808244261 1996226398 881158989 -593003462 -1898623113 -170192048 39908557 -1587661862 -584188786 990990453 886044327 -690022404 -1909304988 50820260 -1647203003 -1899700822 -1275136104 -1970050297 -1647193708 -534901851 1420782178 527479906 1977850698 -365786630 -1345420914 334534223 -1323956261 -1132884022
REM
CELL 1.54180   50.00000   50.00000   50.00000   90.00000   90.00000   90.00000
LATT -1
SFAC C  
C      1  0.5357350000000  0.4577010000000  0.4539950000000 1.0
C      1  0.5364700000000  0.5197180000000  0.4403330000000 1.0
C      1  0.5381140000000  0.5619860000000  0.4873980000000 1.0
C      1  0.5362310000000  0.5430210000000  0.5458360000000 1.0
C      1  0.5367760000000  0.4800910000000  0.5601320000000 1.0
C      1  0.5379530000000  0.4382060000000  0.5126990000000 1.0
C      1  0.5683780000000  0.4774050000000  0.5201600000000 1.0
C      1  0.5692130000000  0.4711540000000  0.4905260000000 1.0
C      1  0.5675400000000  0.4937030000000  0.4705250000000 1.0
C      1  0.5682650000000  0.5223840000000  0.4800070000000 1.0
C      1  0.5692910000000  0.5285740000000  0.5095800000000 1.0
C      1  0.5681010000000  0.5060950000000  0.5296700000000 1.0
C      1  0.4879870000000  0.5587680000000  0.5346820000000 1.0
C      1  0.4883240000000  0.4962910000000  0.5675440000000 1.0
C      1  0.4910890000000  0.4371290000000  0.5334860000000 1.0
C      1  0.4881780000000  0.4418500000000  0.4651040000000 1.0
C      1  0.4883650000000  0.5034520000000  0.4327170000000 1.0
C      1  0.4912450000000  0.5630080000000  0.4663330000000 1.0
C      1  0.5004890000000  0.5512770000000  0.4425980000000 1.0
C      1  0.4986190000000  0.5738340000000  0.5137030000000 1.0
C      1  0.4972650000000  0.5228510000000  0.5684880000000 1.0
C      1  0.5004310000000  0.4486150000000  0.5573250000000 1.0
C      1  0.4987940000000  0.4266300000000  0.4860350000000 1.0
C      1  0.4970950000000  0.4768350000000  0.4309860000000 1.0
C      1  0.5433250000000  0.5365670000000  0.4681210000000 1.0
C      1  0.5471410000000  0.5491200000000  0.5158370000000 1.0
C      1  0.5434800000000  0.5100820000000  0.5483380000000 1.0
C      1  0.5434470000000  0.4633900000000  0.5322360000000 1.0
C      1  0.5469380000000  0.4506540000000  0.4842540000000 1.0
C      1  0.5422980000000  0.4900130000000  0.4525590000000 1.0
C      1  0.4512160000000  0.5272210000000  0.5157330000000 1.0
C      1  0.4512080000000  0.4937920000000  0.5305680000000 1.0
C      1  0.4605440000000  0.4721340000000  0.5123280000000 1.0
C      1  0.4510640000000  0.4732720000000  0.4840420000000 1.0
C      1  0.4512130000000  0.5064830000000  0.4692970000000 1.0
C      1  0.4603180000000  0.5284020000000  0.4873570000000 1.0
C      1  0.4095680000000  0.4782240000000  0.5096940000000 1.0
C      1  0.4204450000000  0.4760320000000  0.4835640000000 1.0
C      1  0.4207120000000  0.5033320000000  0.4714670000000 1.0
C      1  0.4097100000000  0.5211590000000  0.4906230000000 1.0
C      1  0.4208300000000  0.5232670000000  0.5166630000000 1.0
C      1  0.4205720000000  0.4960580000000  0.5288500000000 1.0
C      1  0.4674320000000  0.4476140000000  0.5234190000000 1.0
C      1  0.4624510000000  0.4525070000000  0.4675630000000 1.0
C      1  0.4627180000000  0.5079810000000  0.4428590000000 1.0
C      1  0.4673900000000  0.5528620000000  0.4762590000000 1.0
C      1  0.4621720000000  0.5484920000000  0.5318770000000 1.0
C      1  0.4628080000000  0.4919540000000  0.5569530000000 1.0
C      1  0.5067630000000  0.4552660000000  0.4465580000000 1.0
C      1  0.5082010000000  0.5258170000000  0.4331000000000 1.0
C      1  0.5098760000000  0.5718230000000  0.4878620000000 1.0
C      1  0.5066970000000  0.5426420000000  0.5505820000000 1.0
C      1  0.5082820000000  0.4739840000000  0.5670150000000 1.0
C      1  0.5097760000000  0.4283620000000  0.5120120000000 1.0
C      1  0.5161320000000  0.5274350000000  0.5097940000000 1.0
C      1  0.5191020000000  0.5059980000000  0.5285920000000 1.0
C      1  0.5204670000000  0.4786000000000  0.5186640000000 1.0
C      1  0.5165340000000  0.4728850000000  0.4910090000000 1.0
C      1  0.5189190000000  0.4943360000000  0.4724040000000 1.0
C      1  0.5203050000000  0.5216620000000  0.4820800000000 1.0
END
