TITL C-9268-6400-248 7.05683998970852e-07 125000 -374.464594615004 0 0 60 (C1) n - 1
REM
REM in /home/bkarasulu/CARBON/AIRSS/Generating-Clusters/EDIP-Nigel-Params/Higher-Symm/Box-15A/Only-C60/SD-CG/HFTN-CG
REM
REM
REM
REM
REM
REM ./C.cell (414f73aa93bd7a1190c7fd0f31ff2f98)
REM
REM compiler GCC version 9.2.1 20190827 (Red Hat 9.2.1-1)
REM options -cpp -mtune=generic -march=x86-64 -g -O0 -fpre-include=/usr/include/finclude/math-vector-fortran.h
REM seed -801467414 -1715108667 -1102957299 2003792884 191863010 -1119873461 -1525276856 -288959693 614432720 -139708513 -356471389 -1714417343 751087397 949464244 -116345784 1907453202 -715859020 779016429 544670478 14966180 1857901288 -467741717 1908133098 -1267796764 1261968222 -1115802134 -1279803872 -1307380463 237550314 1495663698 -1930846430 -377032809 1055473724
REM
CELL 1.54180   50.00000   50.00000   50.00000   90.00000   90.00000   90.00000
LATT -1
SFAC C  
C      1  0.5415470000000  0.4910700000000  0.4342400000000 1.0
C      1  0.5349040000000  0.5197540000000  0.4405360000000 1.0
C      1  0.5014900000000  0.5397420000000  0.4406540000000 1.0
C      1  0.4747140000000  0.5245430000000  0.4335420000000 1.0
C      1  0.4691210000000  0.4945120000000  0.4331940000000 1.0
C      1  0.4886530000000  0.4725450000000  0.4351790000000 1.0
C      1  0.5184190000000  0.4708750000000  0.4342150000000 1.0
C      1  0.4998340000000  0.4388380000000  0.4677320000000 1.0
C      1  0.5429270000000  0.4655650000000  0.4709240000000 1.0
C      1  0.5714630000000  0.5056330000000  0.4710310000000 1.0
C      1  0.5506200000000  0.5501410000000  0.4773280000000 1.0
C      1  0.4656480000000  0.5561440000000  0.4701210000000 1.0
C      1  0.4424920000000  0.5138510000000  0.4686930000000 1.0
C      1  0.4575020000000  0.4644060000000  0.4696130000000 1.0
C      1  0.4721950000000  0.4696760000000  0.4958430000000 1.0
C      1  0.4962370000000  0.4469430000000  0.4972070000000 1.0
C      1  0.5253440000000  0.4943300000000  0.4994600000000 1.0
C      1  0.5487230000000  0.5130540000000  0.5011660000000 1.0
C      1  0.5060630000000  0.5436430000000  0.4899110000000 1.0
C      1  0.4538420000000  0.5173720000000  0.4966540000000 1.0
C      1  0.4340490000000  0.5085820000000  0.5176150000000 1.0
C      1  0.5404730000000  0.5355870000000  0.5202720000000 1.0
C      1  0.4868760000000  0.5517890000000  0.5110390000000 1.0
C      1  0.4442680000000  0.5385500000000  0.5487360000000 1.0
C      1  0.4481610000000  0.4880300000000  0.5334650000000 1.0
C      1  0.4725280000000  0.4450540000000  0.5346780000000 1.0
C      1  0.5225070000000  0.4521690000000  0.5112620000000 1.0
C      1  0.5657440000000  0.4835230000000  0.5309270000000 1.0
C      1  0.4540090000000  0.4627950000000  0.5191520000000 1.0
C      1  0.4833220000000  0.4272000000000  0.5146880000000 1.0
C      1  0.5456130000000  0.4611870000000  0.4982890000000 1.0
C      1  0.5732210000000  0.4988360000000  0.5090220000000 1.0
C      1  0.5329100000000  0.5536800000000  0.4982150000000 1.0
C      1  0.4605950000000  0.5472570000000  0.4987910000000 1.0
C      1  0.4239650000000  0.5294510000000  0.5335260000000 1.0
C      1  0.4535940000000  0.5358400000000  0.4519720000000 1.0
C      1  0.4484130000000  0.4885300000000  0.4537880000000 1.0
C      1  0.4773440000000  0.4507330000000  0.4518460000000 1.0
C      1  0.5247380000000  0.4500320000000  0.4545080000000 1.0
C      1  0.5607670000000  0.4824770000000  0.4557420000000 1.0
C      1  0.5554510000000  0.5285530000000  0.4607870000000 1.0
C      1  0.4954940000000  0.5565070000000  0.4648230000000 1.0
C      1  0.5368350000000  0.4941400000000  0.5706840000000 1.0
C      1  0.5268610000000  0.5217530000000  0.5671380000000 1.0
C      1  0.5060110000000  0.5268510000000  0.5855110000000 1.0
C      1  0.4784990000000  0.5222020000000  0.5812530000000 1.0
C      1  0.4716060000000  0.4937240000000  0.5814450000000 1.0
C      1  0.4912370000000  0.4736930000000  0.5751360000000 1.0
C      1  0.5165810000000  0.4808130000000  0.5849560000000 1.0
C      1  0.4744780000000  0.4997660000000  0.5433270000000 1.0
C      1  0.4939880000000  0.4618020000000  0.5481450000000 1.0
C      1  0.5216270000000  0.4594360000000  0.5387440000000 1.0
C      1  0.5416620000000  0.4801340000000  0.5453150000000 1.0
C      1  0.5177500000000  0.5258570000000  0.5384350000000 1.0
C      1  0.4930240000000  0.5430960000000  0.5382390000000 1.0
C      1  0.4711340000000  0.5290880000000  0.5528500000000 1.0
C      1  0.5058320000000  0.4983410000000  0.5274030000000 1.0
C      1  0.5054820000000  0.5090310000000  0.4522230000000 1.0
C      1  0.4795710000000  0.4997950000000  0.4995340000000 1.0
C      1  0.5042090000000  0.5115300000000  0.4837770000000 1.0
END
