TITL C-9264-7143-178 7.01974700292189e-06 125000 -362.510622023497 0 0 60 (C1) n - 1
REM
REM in /home/bkarasulu/CARBON/AIRSS/Generating-Clusters/EDIP-Nigel-Params/Higher-Symm/Box-15A/Only-C60/SD-CG/HFTN-CG
REM
REM
REM
REM
REM
REM ./C.cell (414f73aa93bd7a1190c7fd0f31ff2f98)
REM
REM compiler GCC version 9.2.1 20190827 (Red Hat 9.2.1-1)
REM options -cpp -mtune=generic -march=x86-64 -g -O0 -fpre-include=/usr/include/finclude/math-vector-fortran.h
REM seed 1813381568 164121923 -1235694762 -566668638 1413499457 1124086140 -987307119 -901885083 -1251442297 323379776 1629264057 -1754406419 -1248152807 2017880123 -1458818446 1238970429 -1417856361 -1146396716 673874041 213766534 -403892662 37813209 1731542903 61275717 -1420278568 -332694897 684677776 404321315 -1445864249 405666799 1073544748 -1418689524 1024318830
REM
CELL 1.54180   50.00000   50.00000   50.00000   90.00000   90.00000   90.00000
LATT -1
SFAC C  
C      1  0.5170820000000  0.5046180000000  0.4847760000000 1.0
C      1  0.5164520000000  0.4966060000000  0.5156310000000 1.0
C      1  0.5510760000000  0.5183870000000  0.5319890000000 1.0
C      1  0.5509040000000  0.4818510000000  0.4678930000000 1.0
C      1  0.4737580000000  0.4844730000000  0.4959990000000 1.0
C      1  0.4729820000000  0.5148440000000  0.5025460000000 1.0
C      1  0.4617270000000  0.4570050000000  0.5437860000000 1.0
C      1  0.4628660000000  0.5429130000000  0.4564690000000 1.0
C      1  0.4987280000000  0.4375910000000  0.5198730000000 1.0
C      1  0.4980530000000  0.5540950000000  0.4795460000000 1.0
C      1  0.4862740000000  0.5063380000000  0.4377290000000 1.0
C      1  0.4863110000000  0.4937250000000  0.5612480000000 1.0
C      1  0.4423670000000  0.5249740000000  0.4965930000000 1.0
C      1  0.4388160000000  0.4741670000000  0.5041200000000 1.0
C      1  0.5330020000000  0.5231200000000  0.4480960000000 1.0
C      1  0.5325310000000  0.4768990000000  0.5516770000000 1.0
C      1  0.5232090000000  0.5234720000000  0.5690070000000 1.0
C      1  0.5234580000000  0.4766660000000  0.4307610000000 1.0
C      1  0.5437230000000  0.5469180000000  0.5347960000000 1.0
C      1  0.5433210000000  0.4534060000000  0.4652470000000 1.0
C      1  0.5294500000000  0.5509730000000  0.5601430000000 1.0
C      1  0.5294550000000  0.4491200000000  0.4398110000000 1.0
C      1  0.4246060000000  0.4923170000000  0.5208060000000 1.0
C      1  0.4261680000000  0.5085200000000  0.4792780000000 1.0
C      1  0.4717340000000  0.5617580000000  0.5049690000000 1.0
C      1  0.4748840000000  0.4405720000000  0.4989840000000 1.0
C      1  0.4966330000000  0.5215370000000  0.5546360000000 1.0
C      1  0.4970810000000  0.4789690000000  0.4454120000000 1.0
C      1  0.5759600000000  0.4890550000000  0.4806590000000 1.0
C      1  0.5760920000000  0.5114040000000  0.5190140000000 1.0
C      1  0.5408650000000  0.5330560000000  0.4746580000000 1.0
C      1  0.5389530000000  0.4666960000000  0.5250940000000 1.0
C      1  0.4710240000000  0.4485110000000  0.4693010000000 1.0
C      1  0.4695860000000  0.5523840000000  0.5333550000000 1.0
C      1  0.5221480000000  0.5515680000000  0.5164400000000 1.0
C      1  0.5219340000000  0.4484230000000  0.4835090000000 1.0
C      1  0.4902980000000  0.4473370000000  0.5485310000000 1.0
C      1  0.4918340000000  0.5543400000000  0.4487410000000 1.0
C      1  0.5262530000000  0.4448550000000  0.5113560000000 1.0
C      1  0.5267170000000  0.5543190000000  0.4878520000000 1.0
C      1  0.5792160000000  0.5170440000000  0.4900480000000 1.0
C      1  0.5798150000000  0.4835530000000  0.5095140000000 1.0
C      1  0.4919070000000  0.4477420000000  0.4478840000000 1.0
C      1  0.4915740000000  0.5526760000000  0.5534350000000 1.0
C      1  0.4452030000000  0.5045040000000  0.5358680000000 1.0
C      1  0.4454270000000  0.4953450000000  0.4635850000000 1.0
C      1  0.5429520000000  0.4953190000000  0.4432120000000 1.0
C      1  0.5426900000000  0.5047530000000  0.5565080000000 1.0
C      1  0.4510720000000  0.5318330000000  0.5389690000000 1.0
C      1  0.4507570000000  0.4675030000000  0.4628940000000 1.0
C      1  0.4526110000000  0.4511260000000  0.5156530000000 1.0
C      1  0.4526890000000  0.5502080000000  0.4851290000000 1.0
C      1  0.4903320000000  0.5232560000000  0.4782010000000 1.0
C      1  0.4909400000000  0.4755240000000  0.5209100000000 1.0
C      1  0.5007580000000  0.5220150000000  0.5234060000000 1.0
C      1  0.5016920000000  0.4795170000000  0.4765930000000 1.0
C      1  0.4608290000000  0.4858490000000  0.5509390000000 1.0
C      1  0.4607260000000  0.5140980000000  0.4479280000000 1.0
C      1  0.5051520000000  0.4708190000000  0.5621750000000 1.0
C      1  0.5053380000000  0.5295370000000  0.4368200000000 1.0
END
