TITL C-9259-5960-10 -1.68228874259929e-06 125000 -354.432913719057 0 0 60 (C1) n - 1
REM
REM in /home/bkarasulu/CARBON/AIRSS/Generating-Clusters/EDIP-Nigel-Params/Higher-Symm/Box-15A/Only-C60/SD-CG/HFTN-CG
REM
REM
REM
REM
REM
REM ./C.cell (414f73aa93bd7a1190c7fd0f31ff2f98)
REM
REM compiler GCC version 9.2.1 20190827 (Red Hat 9.2.1-1)
REM options -cpp -mtune=generic -march=x86-64 -g -O0 -fpre-include=/usr/include/finclude/math-vector-fortran.h
REM seed -1370227535 1971800639 2064425166 538407096 -280059284 210355346 1442537382 -300352316 -1558323542 -1406514992 836665522 -1083753634 -1526806156 -1644528257 907013870 -1685617369 287683633 1511012041 2137789765 953871189 1021576107 1981168640 1069071063 971697507 1099291458 -1665852688 531373202 -3606078 -1195263115 1445386815 -1751536124 -1416979980 1187310464
REM
CELL 1.54180   50.00000   50.00000   50.00000   90.00000   90.00000   90.00000
LATT -1
SFAC C  
C      1  0.4900800000000  0.4363950000000  0.4529680000000 1.0
C      1  0.4520700000000  0.4858620000000  0.4306670000000 1.0
C      1  0.4351080000000  0.4544370000000  0.4870640000000 1.0
C      1  0.4794320000000  0.5738570000000  0.5476870000000 1.0
C      1  0.5137300000000  0.5667980000000  0.4570180000000 1.0
C      1  0.5068170000000  0.4402530000000  0.5508210000000 1.0
C      1  0.4623610000000  0.5109370000000  0.5694630000000 1.0
C      1  0.5479590000000  0.5175750000000  0.4304460000000 1.0
C      1  0.5511680000000  0.4877120000000  0.5622830000000 1.0
C      1  0.4312090000000  0.5386550000000  0.5158410000000 1.0
C      1  0.5625280000000  0.5386120000000  0.4920270000000 1.0
C      1  0.5634020000000  0.4456100000000  0.5153300000000 1.0
C      1  0.4878930000000  0.4571110000000  0.4304590000000 1.0
C      1  0.4587360000000  0.4349180000000  0.4869040000000 1.0
C      1  0.4309220000000  0.4847760000000  0.4528890000000 1.0
C      1  0.4851360000000  0.5506030000000  0.5639150000000 1.0
C      1  0.5118770000000  0.4642300000000  0.5695020000000 1.0
C      1  0.5159360000000  0.5484560000000  0.4326460000000 1.0
C      1  0.4478160000000  0.5642840000000  0.5129980000000 1.0
C      1  0.5379170000000  0.4284300000000  0.5183980000000 1.0
C      1  0.5410270000000  0.5588280000000  0.4935740000000 1.0
C      1  0.4398320000000  0.5071080000000  0.5488740000000 1.0
C      1  0.5740420000000  0.4809140000000  0.5450200000000 1.0
C      1  0.5664610000000  0.5145650000000  0.4546460000000 1.0
C      1  0.5166350000000  0.5415960000000  0.4985190000000 1.0
C      1  0.4973720000000  0.5331510000000  0.5444120000000 1.0
C      1  0.5520170000000  0.4940530000000  0.5183080000000 1.0
C      1  0.5212330000000  0.4519210000000  0.5046860000000 1.0
C      1  0.4783580000000  0.4574530000000  0.4953630000000 1.0
C      1  0.4719840000000  0.5479070000000  0.5015670000000 1.0
C      1  0.4966310000000  0.4802100000000  0.4501280000000 1.0
C      1  0.5068160000000  0.4844490000000  0.5458470000000 1.0
C      1  0.5026910000000  0.5247650000000  0.4489000000000 1.0
C      1  0.5454070000000  0.4993020000000  0.4706620000000 1.0
C      1  0.4599780000000  0.5008690000000  0.5264510000000 1.0
C      1  0.4506920000000  0.4989750000000  0.4728880000000 1.0
C      1  0.5331320000000  0.4979470000000  0.5417290000000 1.0
C      1  0.4965070000000  0.5514700000000  0.5208500000000 1.0
C      1  0.5445280000000  0.5146230000000  0.4960170000000 1.0
C      1  0.5247240000000  0.5022430000000  0.4469830000000 1.0
C      1  0.4724110000000  0.4997390000000  0.4497490000000 1.0
C      1  0.4842580000000  0.5064950000000  0.5466440000000 1.0
C      1  0.4995370000000  0.4577970000000  0.4731280000000 1.0
C      1  0.4993510000000  0.5451060000000  0.4734590000000 1.0
C      1  0.5005860000000  0.4591890000000  0.5270200000000 1.0
C      1  0.5475790000000  0.4685980000000  0.5026830000000 1.0
C      1  0.4542520000000  0.5214880000000  0.5040990000000 1.0
C      1  0.4542690000000  0.4780220000000  0.4955290000000 1.0
C      1  0.4542670000000  0.5773380000000  0.5369090000000 1.0
C      1  0.5420990000000  0.5440770000000  0.4233120000000 1.0
C      1  0.4641650000000  0.5377790000000  0.5782090000000 1.0
C      1  0.5389810000000  0.4667630000000  0.5771900000000 1.0
C      1  0.5755590000000  0.5383360000000  0.4670280000000 1.0
C      1  0.4657070000000  0.4248850000000  0.4614220000000 1.0
C      1  0.5294440000000  0.4243830000000  0.5450730000000 1.0
C      1  0.5380050000000  0.5737870000000  0.4697190000000 1.0
C      1  0.4615770000000  0.4610390000000  0.4211830000000 1.0
C      1  0.5767020000000  0.4537940000000  0.5388950000000 1.0
C      1  0.4236660000000  0.4589950000000  0.4616950000000 1.0
C      1  0.4254220000000  0.5305290000000  0.5423050000000 1.0
END
