TITL C-9259-5960-179 5.05536517486001e-06 125000 -358.434219271954 0 0 60 (C2) n - 1
REM
REM in /home/bkarasulu/CARBON/AIRSS/Generating-Clusters/EDIP-Nigel-Params/Higher-Symm/Box-15A/Only-C60/SD-CG/HFTN-CG
REM
REM
REM
REM
REM
REM ./C.cell (414f73aa93bd7a1190c7fd0f31ff2f98)
REM
REM compiler GCC version 9.2.1 20190827 (Red Hat 9.2.1-1)
REM options -cpp -mtune=generic -march=x86-64 -g -O0 -fpre-include=/usr/include/finclude/math-vector-fortran.h
REM seed 1256294322 936295773 225888301 -1712378981 202322620 -1088258471 -6094993 -2055346266 -496600659 -901433424 -1238990924 -302214801 -580762771 -471768036 843663770 -1727025422 -826428630 -692867876 -949572495 -1849802461 1750184465 -638367165 2030805267 -1442979392 2053790142 -1287487696 -347751501 -936184603 -269424122 1207831458 357203666 1934542949 -1962429257
REM
CELL 1.54180   50.00000   50.00000   50.00000   90.00000   90.00000   90.00000
LATT -1
SFAC C  
C      1  0.4927200000000  0.5617860000000  0.5054490000000 1.0
C      1  0.4928180000000  0.4382020000000  0.4945520000000 1.0
C      1  0.5485670000000  0.5410950000000  0.5040130000000 1.0
C      1  0.5486320000000  0.4589830000000  0.4959780000000 1.0
C      1  0.5088720000000  0.4677890000000  0.5657860000000 1.0
C      1  0.5088090000000  0.5322250000000  0.4342120000000 1.0
C      1  0.4374080000000  0.4480130000000  0.4980050000000 1.0
C      1  0.4373260000000  0.5518870000000  0.5020070000000 1.0
C      1  0.5421030000000  0.5003690000000  0.5372470000000 1.0
C      1  0.5420960000000  0.4996980000000  0.4627450000000 1.0
C      1  0.4984140000000  0.5552660000000  0.4562980000000 1.0
C      1  0.4985100000000  0.4447310000000  0.5437020000000 1.0
C      1  0.5138870000000  0.5360420000000  0.5648350000000 1.0
C      1  0.5139330000000  0.4639810000000  0.4351620000000 1.0
C      1  0.5180590000000  0.4274460000000  0.4896650000000 1.0
C      1  0.5179450000000  0.5725830000000  0.5103320000000 1.0
C      1  0.5346840000000  0.4252900000000  0.4678120000000 1.0
C      1  0.5345700000000  0.5747660000000  0.5321810000000 1.0
C      1  0.4516160000000  0.5570640000000  0.4774310000000 1.0
C      1  0.4517110000000  0.4428590000000  0.5225780000000 1.0
C      1  0.4393910000000  0.5484300000000  0.4540290000000 1.0
C      1  0.4394770000000  0.4514730000000  0.5459820000000 1.0
C      1  0.4901300000000  0.5006830000000  0.4640090000000 1.0
C      1  0.4901380000000  0.4993010000000  0.5359930000000 1.0
C      1  0.4310170000000  0.5244580000000  0.4451520000000 1.0
C      1  0.4310660000000  0.4754320000000  0.5548610000000 1.0
C      1  0.4945930000000  0.5529360000000  0.5524400000000 1.0
C      1  0.4946680000000  0.4470550000000  0.4475610000000 1.0
C      1  0.4919350000000  0.4923900000000  0.5642390000000 1.0
C      1  0.4919110000000  0.5075970000000  0.4357620000000 1.0
C      1  0.5375590000000  0.5248190000000  0.4459480000000 1.0
C      1  0.5376090000000  0.4752410000000  0.5540450000000 1.0
C      1  0.5391510000000  0.4710460000000  0.4501840000000 1.0
C      1  0.5391140000000  0.5290160000000  0.5498090000000 1.0
C      1  0.4413410000000  0.5044890000000  0.4598970000000 1.0
C      1  0.4413560000000  0.4954180000000  0.5401140000000 1.0
C      1  0.4635710000000  0.4978380000000  0.5221240000000 1.0
C      1  0.4635640000000  0.5021040000000  0.4778830000000 1.0
C      1  0.5167080000000  0.5008170000000  0.4786330000000 1.0
C      1  0.5167130000000  0.4992090000000  0.5213640000000 1.0
C      1  0.4505120000000  0.5512720000000  0.5273470000000 1.0
C      1  0.4505890000000  0.4486500000000  0.4726620000000 1.0
C      1  0.5196710000000  0.4716440000000  0.5038260000000 1.0
C      1  0.5196250000000  0.5283870000000  0.4961710000000 1.0
C      1  0.5255510000000  0.4547580000000  0.5331520000000 1.0
C      1  0.5254730000000  0.5452820000000  0.4668440000000 1.0
C      1  0.4785910000000  0.5558480000000  0.5293820000000 1.0
C      1  0.4786750000000  0.4441170000000  0.4706220000000 1.0
C      1  0.5029760000000  0.5139510000000  0.5783580000000 1.0
C      1  0.5029840000000  0.4860540000000  0.4216410000000 1.0
C      1  0.5496300000000  0.4494570000000  0.4680060000000 1.0
C      1  0.5495550000000  0.5506230000000  0.5319840000000 1.0
C      1  0.5720400000000  0.4681200000000  0.5093620000000 1.0
C      1  0.5719870000000  0.5319950000000  0.4906250000000 1.0
C      1  0.5658780000000  0.5050460000000  0.4854630000000 1.0
C      1  0.5658880000000  0.4950590000000  0.5145250000000 1.0
C      1  0.4626920000000  0.5235020000000  0.5035650000000 1.0
C      1  0.4627290000000  0.4764390000000  0.4964420000000 1.0
C      1  0.4806750000000  0.4441840000000  0.5204130000000 1.0
C      1  0.4805830000000  0.5557850000000  0.4795910000000 1.0
END
