TITL C-9263-351-279 0.0001161359596851 125000 -371.4039008487 0 0 60 (C3) n - 1
REM
REM in /home/bkarasulu/CARBON/AIRSS/Generating-Clusters/EDIP-Nigel-Params/Higher-Symm/Box-15A/Only-C60/SD-CG/HFTN-CG
REM
REM
REM
REM
REM
REM ./C.cell (414f73aa93bd7a1190c7fd0f31ff2f98)
REM
REM compiler GCC version 9.2.1 20190827 (Red Hat 9.2.1-1)
REM options -cpp -mtune=generic -march=x86-64 -g -O0 -fpre-include=/usr/include/finclude/math-vector-fortran.h
REM seed -1107262059 -975451436 -1924560995 1899685432 1183604754 -115466523 1662937398 -740217634 1342336172 1092646148 2100068395 744946604 -59804736 -979154314 -431016229 1625065857 -107308966 -847139303 -2063827201 779041707 -1974290692 372171688 -111899553 -915647278 -521252303 -399918909 160840264 1098018242 -2080112886 -649751555 -1031312595 460882151 -206757478
REM
CELL 1.54180   50.00000   50.00000   50.00000   90.00000   90.00000   90.00000
LATT -1
SFAC C  
C      1  0.5745400000000  0.4990430000000  0.4912300000000 1.0
C      1  0.4619160000000  0.4359190000000  0.4912030000000 1.0
C      1  0.4635620000000  0.5650160000000  0.4910990000000 1.0
C      1  0.5818360000000  0.4986260000000  0.5192990000000 1.0
C      1  0.4578580000000  0.4298270000000  0.5192680000000 1.0
C      1  0.4602660000000  0.5715950000000  0.5191540000000 1.0
C      1  0.5292970000000  0.5043260000000  0.4282360000000 1.0
C      1  0.4892230000000  0.4724200000000  0.4282340000000 1.0
C      1  0.4816290000000  0.5230780000000  0.4281880000000 1.0
C      1  0.4999150000000  0.5757140000000  0.5501300000000 1.0
C      1  0.5655250000000  0.4622480000000  0.5502690000000 1.0
C      1  0.4344550000000  0.4621610000000  0.5501770000000 1.0
C      1  0.5834160000000  0.4714150000000  0.5296150000000 1.0
C      1  0.4334840000000  0.4420710000000  0.5295350000000 1.0
C      1  0.4830380000000  0.5865870000000  0.5294520000000 1.0
C      1  0.4259980000000  0.4804950000000  0.5290800000000 1.0
C      1  0.5200590000000  0.5738580000000  0.5290700000000 1.0
C      1  0.5538830000000  0.4457180000000  0.5291980000000 1.0
C      1  0.5641750000000  0.5205080000000  0.5320830000000 1.0
C      1  0.4856160000000  0.4341890000000  0.5320990000000 1.0
C      1  0.4501410000000  0.5453820000000  0.5319830000000 1.0
C      1  0.4897180000000  0.5518250000000  0.5607010000000 1.0
C      1  0.5499160000000  0.4830300000000  0.5607990000000 1.0
C      1  0.4602390000000  0.4652940000000  0.5607510000000 1.0
C      1  0.5208740000000  0.5392550000000  0.4602150000000 1.0
C      1  0.5236290000000  0.4622710000000  0.4602790000000 1.0
C      1  0.4555810000000  0.4983770000000  0.4602020000000 1.0
C      1  0.4900510000000  0.4713500000000  0.5221150000000 1.0
C      1  0.4801240000000  0.5229550000000  0.5220660000000 1.0
C      1  0.5297790000000  0.5057490000000  0.5221140000000 1.0
C      1  0.4720980000000  0.5331760000000  0.5500240000000 1.0
C      1  0.5425950000000  0.5076070000000  0.5500940000000 1.0
C      1  0.4852020000000  0.4593390000000  0.5500940000000 1.0
C      1  0.4651640000000  0.5419950000000  0.4414170000000 1.0
C      1  0.5538890000000  0.5091360000000  0.4415050000000 1.0
C      1  0.4810700000000  0.4487260000000  0.4415040000000 1.0
C      1  0.4717070000000  0.4948500000000  0.5189540000000 1.0
C      1  0.5096530000000  0.5270890000000  0.5189540000000 1.0
C      1  0.5186000000000  0.4781070000000  0.5190000000000 1.0
C      1  0.4998970000000  0.4461390000000  0.4623810000000 1.0
C      1  0.4534730000000  0.5269970000000  0.4622830000000 1.0
C      1  0.5467090000000  0.5267720000000  0.4623480000000 1.0
C      1  0.5239610000000  0.5515050000000  0.5097150000000 1.0
C      1  0.5326080000000  0.4535030000000  0.5098010000000 1.0
C      1  0.4434110000000  0.4950160000000  0.5097050000000 1.0
C      1  0.4712460000000  0.4956410000000  0.4346660000000 1.0
C      1  0.5107170000000  0.5270410000000  0.4346670000000 1.0
C      1  0.5181740000000  0.4771580000000  0.4347130000000 1.0
C      1  0.4557290000000  0.5374410000000  0.4885980000000 1.0
C      1  0.5545800000000  0.5196120000000  0.4886810000000 1.0
C      1  0.4897150000000  0.4429190000000  0.4886990000000 1.0
C      1  0.4388530000000  0.5259010000000  0.5092450000000 1.0
C      1  0.5529880000000  0.5400100000000  0.5093130000000 1.0
C      1  0.5081390000000  0.4341120000000  0.5093680000000 1.0
C      1  0.4428680000000  0.4825050000000  0.4816290000000 1.0
C      1  0.5134470000000  0.5582130000000  0.4816160000000 1.0
C      1  0.5437230000000  0.4592360000000  0.4817180000000 1.0
C      1  0.4438930000000  0.4545330000000  0.4804840000000 1.0
C      1  0.4887120000000  0.5713120000000  0.4804200000000 1.0
C      1  0.5674360000000  0.4741080000000  0.4805550000000 1.0
END
