TITL C-9270-2362-149 -1.85869575929203e-06 125000 -362.701240325142 0 0 60 (C1) n - 1
REM
REM in /home/bkarasulu/CARBON/AIRSS/Generating-Clusters/EDIP-Nigel-Params/Higher-Symm/Box-15A/Only-C60/SD-CG/HFTN-CG
REM
REM
REM
REM
REM
REM ./C.cell (414f73aa93bd7a1190c7fd0f31ff2f98)
REM
REM compiler GCC version 9.2.1 20190827 (Red Hat 9.2.1-1)
REM options -cpp -mtune=generic -march=x86-64 -g -O0 -fpre-include=/usr/include/finclude/math-vector-fortran.h
REM seed 107372021 -1308831762 -157520530 -1960091027 -840096753 1344482047 -1394570370 -629503219 1691265329 -2109817606 1025957255 -870142162 -572005487 -736634054 2025749334 -1512753334 1154219898 -756907706 -396847502 1166559167 1556353210 -1520427340 -693727515 -520340375 -1338548608 1508990548 -727169313 209096394 1223970580 -2037152397 219197686 -735052362 274345376
REM
CELL 1.54180   50.00000   50.00000   50.00000   90.00000   90.00000   90.00000
LATT -1
SFAC C  
C      1  0.5582240000000  0.4974320000000  0.4571190000000 1.0
C      1  0.5636070000000  0.4707510000000  0.4707980000000 1.0
C      1  0.5644910000000  0.4750740000000  0.5000730000000 1.0
C      1  0.5650360000000  0.4963350000000  0.5389840000000 1.0
C      1  0.5635830000000  0.5248660000000  0.5411790000000 1.0
C      1  0.5611380000000  0.5444940000000  0.5192750000000 1.0
C      1  0.5595160000000  0.5192080000000  0.4768050000000 1.0
C      1  0.5336750000000  0.5473720000000  0.5064310000000 1.0
C      1  0.5361710000000  0.5371320000000  0.4778860000000 1.0
C      1  0.5277500000000  0.4932740000000  0.4593510000000 1.0
C      1  0.5291750000000  0.4660860000000  0.4767990000000 1.0
C      1  0.5384050000000  0.4625850000000  0.5144350000000 1.0
C      1  0.5396390000000  0.4819980000000  0.5385110000000 1.0
C      1  0.5328430000000  0.5255790000000  0.5375350000000 1.0
C      1  0.4486780000000  0.4511250000000  0.4659480000000 1.0
C      1  0.4574240000000  0.4470150000000  0.5168730000000 1.0
C      1  0.4553780000000  0.4656180000000  0.5415290000000 1.0
C      1  0.4698820000000  0.5256990000000  0.5360230000000 1.0
C      1  0.4526770000000  0.5546870000000  0.5008000000000 1.0
C      1  0.4555330000000  0.5466230000000  0.4709720000000 1.0
C      1  0.4721960000000  0.4914320000000  0.4584610000000 1.0
C      1  0.4347810000000  0.4713660000000  0.4806160000000 1.0
C      1  0.4314530000000  0.4632890000000  0.5099300000000 1.0
C      1  0.4346330000000  0.4871540000000  0.5325570000000 1.0
C      1  0.4493540000000  0.5107640000000  0.5209880000000 1.0
C      1  0.4327510000000  0.5311100000000  0.5052280000000 1.0
C      1  0.4357620000000  0.5231210000000  0.4754540000000 1.0
C      1  0.4508250000000  0.4966910000000  0.4779380000000 1.0
C      1  0.4937480000000  0.5122780000000  0.4599860000000 1.0
C      1  0.4762570000000  0.4613010000000  0.4682070000000 1.0
C      1  0.4835700000000  0.4560500000000  0.5028620000000 1.0
C      1  0.4850810000000  0.4744550000000  0.5373110000000 1.0
C      1  0.4892670000000  0.5057440000000  0.5450560000000 1.0
C      1  0.4787160000000  0.5460470000000  0.5143840000000 1.0
C      1  0.4852870000000  0.5400240000000  0.4760420000000 1.0
C      1  0.5176320000000  0.4902150000000  0.4300560000000 1.0
C      1  0.5182640000000  0.4417200000000  0.4625440000000 1.0
C      1  0.5247660000000  0.4357770000000  0.5216840000000 1.0
C      1  0.5265280000000  0.4744650000000  0.5635720000000 1.0
C      1  0.5192510000000  0.5389350000000  0.5611940000000 1.0
C      1  0.5178500000000  0.5732880000000  0.5095070000000 1.0
C      1  0.5266010000000  0.5521100000000  0.4546450000000 1.0
C      1  0.5216770000000  0.5386930000000  0.4304690000000 1.0
C      1  0.5015670000000  0.4676220000000  0.4271080000000 1.0
C      1  0.5119360000000  0.4203570000000  0.4790630000000 1.0
C      1  0.5130460000000  0.4341800000000  0.5469540000000 1.0
C      1  0.5198460000000  0.4952190000000  0.5811640000000 1.0
C      1  0.5038520000000  0.5606720000000  0.5529630000000 1.0
C      1  0.5082670000000  0.5828820000000  0.4850130000000 1.0
C      1  0.5039270000000  0.5149720000000  0.5691400000000 1.0
C      1  0.4952590000000  0.5676590000000  0.5272560000000 1.0
C      1  0.5021660000000  0.5634290000000  0.4657840000000 1.0
C      1  0.5041920000000  0.5169080000000  0.4311800000000 1.0
C      1  0.4948610000000  0.4495480000000  0.4474290000000 1.0
C      1  0.5029290000000  0.4318370000000  0.5029930000000 1.0
C      1  0.5031220000000  0.4584500000000  0.5564200000000 1.0
C      1  0.4674290000000  0.4972900000000  0.5021000000000 1.0
C      1  0.5231410000000  0.5021970000000  0.5023310000000 1.0
C      1  0.4960150000000  0.4974000000000  0.5019080000000 1.0
C      1  0.5531170000000  0.5047050000000  0.5031960000000 1.0
END
