TITL C-9259-5960-302 2.96501667029838e-05 125000 -341.389615159878 0 0 60 (C1) n - 1
REM
REM in /home/bkarasulu/CARBON/AIRSS/Generating-Clusters/EDIP-Nigel-Params/Higher-Symm/Box-15A/Only-C60/SD-CG/HFTN-CG
REM
REM
REM
REM
REM
REM ./C.cell (414f73aa93bd7a1190c7fd0f31ff2f98)
REM
REM compiler GCC version 9.2.1 20190827 (Red Hat 9.2.1-1)
REM options -cpp -mtune=generic -march=x86-64 -g -O0 -fpre-include=/usr/include/finclude/math-vector-fortran.h
REM seed 1481785872 1768539467 -926901761 -1481360404 320780187 567489937 1278800742 -2051577377 -1748647158 1001458910 -1739485865 1190509760 1812551388 -234727575 -579112576 -147962523 -1170599193 1852904219 -727278853 1000692827 1656871916 -242843939 -1282722539 1928415717 2055265981 1342191133 -1519381211 1536662773 175737561 -302363551 234332055 1657364419 -1855202568
REM
CELL 1.54180   50.00000   50.00000   50.00000   90.00000   90.00000   90.00000
LATT -1
SFAC C  
C      1  0.4758320000000  0.4628320000000  0.4386730000000 1.0
C      1  0.4576120000000  0.4450960000000  0.4796540000000 1.0
C      1  0.4428850000000  0.4726920000000  0.4570460000000 1.0
C      1  0.5325700000000  0.4664150000000  0.5452010000000 1.0
C      1  0.5136030000000  0.5417770000000  0.4439060000000 1.0
C      1  0.4792890000000  0.5402620000000  0.5531490000000 1.0
C      1  0.5347120000000  0.4474320000000  0.5213200000000 1.0
C      1  0.5389140000000  0.5474980000000  0.4733310000000 1.0
C      1  0.4611700000000  0.5555520000000  0.5217990000000 1.0
C      1  0.5604940000000  0.4771240000000  0.5517960000000 1.0
C      1  0.5549420000000  0.5223050000000  0.4712680000000 1.0
C      1  0.4489810000000  0.5210880000000  0.5375030000000 1.0
C      1  0.4679270000000  0.5344600000000  0.4537430000000 1.0
C      1  0.4653150000000  0.5531300000000  0.4778600000000 1.0
C      1  0.4402650000000  0.5225670000000  0.4476190000000 1.0
C      1  0.5238130000000  0.5397680000000  0.5613720000000 1.0
C      1  0.5199490000000  0.4607420000000  0.4464900000000 1.0
C      1  0.4877010000000  0.4595480000000  0.5562140000000 1.0
C      1  0.5410780000000  0.5522550000000  0.5230800000000 1.0
C      1  0.5381120000000  0.4449020000000  0.4773610000000 1.0
C      1  0.4616850000000  0.4525950000000  0.5279510000000 1.0
C      1  0.5547700000000  0.5233890000000  0.5445280000000 1.0
C      1  0.5512260000000  0.4790520000000  0.4617880000000 1.0
C      1  0.4454500000000  0.4775770000000  0.5293290000000 1.0
C      1  0.4308960000000  0.4870290000000  0.4803640000000 1.0
C      1  0.4851110000000  0.4897760000000  0.4355350000000 1.0
C      1  0.4844930000000  0.4558140000000  0.4810180000000 1.0
C      1  0.5736210000000  0.4825790000000  0.5260490000000 1.0
C      1  0.5536980000000  0.5075330000000  0.4957010000000 1.0
C      1  0.4405840000000  0.5190960000000  0.5091080000000 1.0
C      1  0.5177030000000  0.4919750000000  0.5395660000000 1.0
C      1  0.5134320000000  0.5149740000000  0.4574900000000 1.0
C      1  0.4852370000000  0.5121180000000  0.5614620000000 1.0
C      1  0.5090750000000  0.4381900000000  0.5128720000000 1.0
C      1  0.5118630000000  0.5403530000000  0.4877450000000 1.0
C      1  0.4897270000000  0.5639710000000  0.5173830000000 1.0
C      1  0.4270350000000  0.5157510000000  0.4731080000000 1.0
C      1  0.4829870000000  0.5091390000000  0.4590620000000 1.0
C      1  0.4908650000000  0.5625340000000  0.4865200000000 1.0
C      1  0.5680430000000  0.5111980000000  0.5206310000000 1.0
C      1  0.5603380000000  0.4804330000000  0.4899760000000 1.0
C      1  0.4463270000000  0.4916260000000  0.5044510000000 1.0
C      1  0.5159500000000  0.5119310000000  0.5628620000000 1.0
C      1  0.5155980000000  0.4889220000000  0.4374230000000 1.0
C      1  0.4873510000000  0.4860180000000  0.5418440000000 1.0
C      1  0.5137010000000  0.5435420000000  0.5189140000000 1.0
C      1  0.5094490000000  0.4365670000000  0.4820230000000 1.0
C      1  0.4876930000000  0.4599510000000  0.5122080000000 1.0
C      1  0.4871170000000  0.5476830000000  0.4353210000000 1.0
C      1  0.5537300000000  0.4389530000000  0.5015140000000 1.0
C      1  0.5142070000000  0.4534050000000  0.5644220000000 1.0
C      1  0.4457970000000  0.5608240000000  0.4974560000000 1.0
C      1  0.4455380000000  0.4957540000000  0.5510940000000 1.0
C      1  0.4969720000000  0.4443500000000  0.4400960000000 1.0
C      1  0.4497800000000  0.4376710000000  0.5056510000000 1.0
C      1  0.5501080000000  0.5602300000000  0.4975350000000 1.0
C      1  0.4413890000000  0.4955100000000  0.4383550000000 1.0
C      1  0.5018320000000  0.5572270000000  0.5594860000000 1.0
C      1  0.5552040000000  0.5047180000000  0.4489170000000 1.0
C      1  0.5592550000000  0.5025950000000  0.5648590000000 1.0
END
