TITL C-9269-7444-214 -2.31828645069347e-05 125000 -371.788217327614 0 0 60 (D5d) n - 1
REM
REM in /home/bkarasulu/CARBON/AIRSS/Generating-Clusters/EDIP-Nigel-Params/Higher-Symm/Box-15A/Only-C60/SD-CG/HFTN-CG
REM
REM
REM
REM
REM
REM ./C.cell (414f73aa93bd7a1190c7fd0f31ff2f98)
REM
REM compiler GCC version 9.2.1 20190827 (Red Hat 9.2.1-1)
REM options -cpp -mtune=generic -march=x86-64 -g -O0 -fpre-include=/usr/include/finclude/math-vector-fortran.h
REM seed -400099524 -640769887 285539621 -419117661 1326469376 1568205067 -1224544401 -892608183 29504666 117990302 -1352149516 -2094843248 856873027 -713566573 -1864326579 -1751161839 -1854670385 -314589464 1557356587 -1316036893 -996234776 2107521385 62438751 650362199 174529621 411325803 2112357813 1246970385 -1984845330 -1555375751 -2093506739 -1475007998 1389252966
REM
CELL 1.54180   50.00000   50.00000   50.00000   90.00000   90.00000   90.00000
LATT -1
SFAC C  
C      1  0.4748300000000  0.5180950000000  0.5069660000000 1.0
C      1  0.4853560000000  0.4798710000000  0.5197450000000 1.0
C      1  0.4981210000000  0.5191320000000  0.5252970000000 1.0
C      1  0.5149590000000  0.4812890000000  0.5208710000000 1.0
C      1  0.5227270000000  0.5203890000000  0.5087890000000 1.0
C      1  0.5251700000000  0.4819050000000  0.4930340000000 1.0
C      1  0.5146440000000  0.5201290000000  0.4802550000000 1.0
C      1  0.5018790000000  0.4808680000000  0.4747030000000 1.0
C      1  0.4850410000000  0.5187110000000  0.4791290000000 1.0
C      1  0.4772730000000  0.4796110000000  0.4912110000000 1.0
C      1  0.5129920000000  0.5641060000000  0.4798650000000 1.0
C      1  0.5040210000000  0.4369210000000  0.4737570000000 1.0
C      1  0.4825120000000  0.5626460000000  0.4787050000000 1.0
C      1  0.4786850000000  0.4356260000000  0.4907550000000 1.0
C      1  0.4719980000000  0.5620110000000  0.5073680000000 1.0
C      1  0.4870080000000  0.4358940000000  0.5201350000000 1.0
C      1  0.4959790000000  0.5630790000000  0.5262430000000 1.0
C      1  0.5174880000000  0.4373540000000  0.5212950000000 1.0
C      1  0.5213150000000  0.5643740000000  0.5092450000000 1.0
C      1  0.5280020000000  0.4379890000000  0.4926320000000 1.0
C      1  0.4382640000000  0.4968450000000  0.5414180000000 1.0
C      1  0.4743800000000  0.4984530000000  0.5698420000000 1.0
C      1  0.5202810000000  0.5006520000000  0.5715890000000 1.0
C      1  0.5584350000000  0.5026020000000  0.5459910000000 1.0
C      1  0.5742700000000  0.5035580000000  0.5028270000000 1.0
C      1  0.5617360000000  0.5031550000000  0.4585820000000 1.0
C      1  0.5256200000000  0.5015470000000  0.4301580000000 1.0
C      1  0.4797190000000  0.4993480000000  0.4284110000000 1.0
C      1  0.4415640000000  0.4973980000000  0.4540090000000 1.0
C      1  0.4257300000000  0.4964420000000  0.4971730000000 1.0
C      1  0.4532910000000  0.4713530000000  0.4547490000000 1.0
C      1  0.4334110000000  0.5234400000000  0.4918390000000 1.0
C      1  0.4435840000000  0.4705400000000  0.5316140000000 1.0
C      1  0.4706880000000  0.5249260000000  0.5597460000000 1.0
C      1  0.5136060000000  0.4737580000000  0.5646240000000 1.0
C      1  0.5467090000000  0.5286470000000  0.5452510000000 1.0
C      1  0.5665890000000  0.4765600000000  0.5081610000000 1.0
C      1  0.5564160000000  0.5294600000000  0.4683860000000 1.0
C      1  0.5293120000000  0.4750740000000  0.4402540000000 1.0
C      1  0.4863940000000  0.5262420000000  0.4353760000000 1.0
C      1  0.5036580000000  0.4619510000000  0.4517780000000 1.0
C      1  0.4714130000000  0.5372470000000  0.4602270000000 1.0
C      1  0.4567590000000  0.4595540000000  0.4832420000000 1.0
C      1  0.4519500000000  0.5360720000000  0.5132840000000 1.0
C      1  0.4721660000000  0.4600500000000  0.5376260000000 1.0
C      1  0.4963420000000  0.5380490000000  0.5482220000000 1.0
C      1  0.5285870000000  0.4627530000000  0.5397730000000 1.0
C      1  0.5432410000000  0.5404460000000  0.5167580000000 1.0
C      1  0.5480500000000  0.4639280000000  0.4867160000000 1.0
C      1  0.5278340000000  0.5399500000000  0.4623740000000 1.0
C      1  0.5644730000000  0.5297190000000  0.4968270000000 1.0
C      1  0.5525270000000  0.4761070000000  0.4585250000000 1.0
C      1  0.5159000000000  0.5276560000000  0.4364990000000 1.0
C      1  0.4778170000000  0.4726070000000  0.4382940000000 1.0
C      1  0.4435900000000  0.5240550000000  0.4640920000000 1.0
C      1  0.4355270000000  0.4702810000000  0.5031730000000 1.0
C      1  0.4474730000000  0.5238930000000  0.5414750000000 1.0
C      1  0.4841000000000  0.4723440000000  0.5635010000000 1.0
C      1  0.5221830000000  0.5273930000000  0.5617060000000 1.0
C      1  0.5564100000000  0.4759450000000  0.5359080000000 1.0
END
