TITL C-9262-5533-398 1.88329940031213e-06 125000 -358.634392681262 0 0 60 (C1) n - 1
REM
REM in /home/bkarasulu/CARBON/AIRSS/Generating-Clusters/EDIP-Nigel-Params/Higher-Symm/Box-15A/Only-C60/SD-CG/HFTN-CG
REM
REM
REM
REM
REM
REM ./C.cell (414f73aa93bd7a1190c7fd0f31ff2f98)
REM
REM compiler GCC version 9.2.1 20190827 (Red Hat 9.2.1-1)
REM options -cpp -mtune=generic -march=x86-64 -g -O0 -fpre-include=/usr/include/finclude/math-vector-fortran.h
REM seed 315488869 1632173698 -120844560 -580288314 229962769 -1448927214 -1492638192 -1731222546 -403820196 -1333016395 693388630 1035656289 -722886788 118903385 226348657 -2089738127 -1051351448 -1537200152 680517099 1093631371 -657008135 1687094559 -703759423 -1126551438 -1041984146 -1909042876 -2041147010 -638508336 -1867870489 21739786 137398612 708176905 -2027327893
REM
CELL 1.54180   50.00000   50.00000   50.00000   90.00000   90.00000   90.00000
LATT -1
SFAC C  
C      1  0.4924250000000  0.4588590000000  0.5622820000000 1.0
C      1  0.5072430000000  0.5628470000000  0.5406480000000 1.0
C      1  0.4929340000000  0.5411880000000  0.4367670000000 1.0
C      1  0.5080220000000  0.4365050000000  0.4585280000000 1.0
C      1  0.4762260000000  0.4730630000000  0.4504920000000 1.0
C      1  0.5241220000000  0.4492140000000  0.5258540000000 1.0
C      1  0.4754770000000  0.5265760000000  0.5509220000000 1.0
C      1  0.5247510000000  0.5506840000000  0.4728750000000 1.0
C      1  0.5450590000000  0.4904720000000  0.5474260000000 1.0
C      1  0.4532140000000  0.5487150000000  0.5107200000000 1.0
C      1  0.5478120000000  0.5098010000000  0.4509820000000 1.0
C      1  0.4519580000000  0.4511670000000  0.4905600000000 1.0
C      1  0.5527540000000  0.5504030000000  0.5331920000000 1.0
C      1  0.4480360000000  0.5335970000000  0.4508750000000 1.0
C      1  0.5535700000000  0.4491020000000  0.4662300000000 1.0
C      1  0.4465690000000  0.4666790000000  0.5511060000000 1.0
C      1  0.4873780000000  0.4212730000000  0.5340580000000 1.0
C      1  0.5125570000000  0.5346600000000  0.5782360000000 1.0
C      1  0.4874790000000  0.5779480000000  0.4660830000000 1.0
C      1  0.5123320000000  0.4657440000000  0.4217480000000 1.0
C      1  0.5044020000000  0.5592620000000  0.4544980000000 1.0
C      1  0.4959530000000  0.4543800000000  0.4410240000000 1.0
C      1  0.5039540000000  0.4408200000000  0.5445530000000 1.0
C      1  0.4957210000000  0.5453810000000  0.5590110000000 1.0
C      1  0.4645780000000  0.5742870000000  0.5112890000000 1.0
C      1  0.5365960000000  0.5098590000000  0.4253750000000 1.0
C      1  0.4627970000000  0.4254220000000  0.4905350000000 1.0
C      1  0.5348320000000  0.4899290000000  0.5734320000000 1.0
C      1  0.4830310000000  0.5124060000000  0.4935830000000 1.0
C      1  0.5225830000000  0.4929130000000  0.4888820000000 1.0
C      1  0.4774690000000  0.4890090000000  0.5069460000000 1.0
C      1  0.5169870000000  0.5094370000000  0.5102130000000 1.0
C      1  0.5651860000000  0.4713420000000  0.4811330000000 1.0
C      1  0.4347210000000  0.4816690000000  0.5290440000000 1.0
C      1  0.5639030000000  0.5282110000000  0.5175890000000 1.0
C      1  0.4364330000000  0.5178810000000  0.4726780000000 1.0
C      1  0.5248550000000  0.4883180000000  0.4146330000000 1.0
C      1  0.4744720000000  0.4140690000000  0.5117560000000 1.0
C      1  0.5246790000000  0.5117950000000  0.5850990000000 1.0
C      1  0.4755140000000  0.5846790000000  0.4891020000000 1.0
C      1  0.4743480000000  0.4965590000000  0.4356350000000 1.0
C      1  0.5267600000000  0.4337930000000  0.5028750000000 1.0
C      1  0.4736010000000  0.5032740000000  0.5660470000000 1.0
C      1  0.5266260000000  0.5657040000000  0.4962910000000 1.0
C      1  0.4612200000000  0.5315930000000  0.4870630000000 1.0
C      1  0.5408230000000  0.4858340000000  0.4682640000000 1.0
C      1  0.4590670000000  0.4686610000000  0.5143030000000 1.0
C      1  0.5382660000000  0.5147800000000  0.5304700000000 1.0
C      1  0.5475080000000  0.4656550000000  0.5315610000000 1.0
C      1  0.4514640000000  0.5324240000000  0.5354100000000 1.0
C      1  0.5487000000000  0.5349010000000  0.4669260000000 1.0
C      1  0.4518100000000  0.4671160000000  0.4655250000000 1.0
C      1  0.5297100000000  0.5649980000000  0.5241080000000 1.0
C      1  0.4707390000000  0.5242750000000  0.4359820000000 1.0
C      1  0.5303390000000  0.4348500000000  0.4752010000000 1.0
C      1  0.4701700000000  0.4755530000000  0.5647880000000 1.0
C      1  0.4355950000000  0.5094850000000  0.5322860000000 1.0
C      1  0.5643310000000  0.5321490000000  0.4899600000000 1.0
C      1  0.4364840000000  0.4903180000000  0.4683970000000 1.0
C      1  0.5638540000000  0.4685100000000  0.5089500000000 1.0
END
