TITL C-9257-5531-196 -3.61065550732072e-06 125000 -363.607161092681 0 0 60 (C1) n - 1
REM
REM in /home/bkarasulu/CARBON/AIRSS/Generating-Clusters/EDIP-Nigel-Params/Higher-Symm/Box-15A/Only-C60/SD-CG/HFTN-CG
REM
REM
REM
REM
REM
REM ./C.cell (414f73aa93bd7a1190c7fd0f31ff2f98)
REM
REM compiler GCC version 9.2.1 20190827 (Red Hat 9.2.1-1)
REM options -cpp -mtune=generic -march=x86-64 -g -O0 -fpre-include=/usr/include/finclude/math-vector-fortran.h
REM seed 938474642 -1812669782 -1163761347 -1646242927 1381191699 -1167753140 -1092950266 287943459 1378748587 2128160910 -851408106 -367780335 -88146748 625546906 279368925 771308997 -2145422659 -1557972966 -1345590048 -1940793697 1579110138 -198232216 -298404868 -1155809635 -1291695996 -1230764007 627228069 -572252037 -1205771906 1145814515 -395771421 -71511943 -1051223179
REM
CELL 1.54180   50.00000   50.00000   50.00000   90.00000   90.00000   90.00000
LATT -1
SFAC C  
C      1  0.4876420000000  0.4776850000000  0.5702210000000 1.0
C      1  0.5087060000000  0.5050560000000  0.4627640000000 1.0
C      1  0.4739160000000  0.5509010000000  0.4844390000000 1.0
C      1  0.4848150000000  0.5321890000000  0.5620840000000 1.0
C      1  0.5139120000000  0.5317470000000  0.5593840000000 1.0
C      1  0.4905810000000  0.4970980000000  0.5475960000000 1.0
C      1  0.5135930000000  0.5709030000000  0.4953000000000 1.0
C      1  0.5524920000000  0.5044190000000  0.5439150000000 1.0
C      1  0.4861180000000  0.4837530000000  0.4198950000000 1.0
C      1  0.5530610000000  0.4890130000000  0.4995720000000 1.0
C      1  0.4743070000000  0.5055580000000  0.5037300000000 1.0
C      1  0.4369230000000  0.5555540000000  0.5074030000000 1.0
C      1  0.4243460000000  0.4839240000000  0.5143830000000 1.0
C      1  0.4619980000000  0.5385860000000  0.5447940000000 1.0
C      1  0.4882910000000  0.4600440000000  0.4638890000000 1.0
C      1  0.4227980000000  0.5115840000000  0.5238590000000 1.0
C      1  0.4346850000000  0.4797210000000  0.4880700000000 1.0
C      1  0.5177920000000  0.5210670000000  0.4875960000000 1.0
C      1  0.4914780000000  0.5314690000000  0.5025340000000 1.0
C      1  0.4583140000000  0.4338670000000  0.4917170000000 1.0
C      1  0.5269760000000  0.4530600000000  0.5674200000000 1.0
C      1  0.4703940000000  0.4910810000000  0.5282220000000 1.0
C      1  0.4620200000000  0.5559330000000  0.5214220000000 1.0
C      1  0.5281740000000  0.4698860000000  0.4373900000000 1.0
C      1  0.5374830000000  0.4597340000000  0.4640320000000 1.0
C      1  0.4407640000000  0.5199070000000  0.5442310000000 1.0
C      1  0.4916340000000  0.5114500000000  0.4207050000000 1.0
C      1  0.4798380000000  0.4525580000000  0.5544770000000 1.0
C      1  0.5567230000000  0.5303250000000  0.4688260000000 1.0
C      1  0.4580510000000  0.5134090000000  0.4587720000000 1.0
C      1  0.5605210000000  0.4790260000000  0.5269370000000 1.0
C      1  0.5225130000000  0.4905670000000  0.5021070000000 1.0
C      1  0.5167530000000  0.4783000000000  0.5776770000000 1.0
C      1  0.5183250000000  0.4880420000000  0.5342950000000 1.0
C      1  0.5226540000000  0.5393360000000  0.5328170000000 1.0
C      1  0.4860380000000  0.5210680000000  0.4490240000000 1.0
C      1  0.5195350000000  0.5142710000000  0.4166210000000 1.0
C      1  0.5174690000000  0.4455810000000  0.5235220000000 1.0
C      1  0.5067750000000  0.4396190000000  0.5504340000000 1.0
C      1  0.5754190000000  0.4880570000000  0.4554130000000 1.0
C      1  0.4842960000000  0.4361140000000  0.4811300000000 1.0
C      1  0.5298280000000  0.5002300000000  0.4404830000000 1.0
C      1  0.5492280000000  0.5289850000000  0.5261610000000 1.0
C      1  0.5578630000000  0.5090350000000  0.4488150000000 1.0
C      1  0.4223280000000  0.5314120000000  0.5028120000000 1.0
C      1  0.4685610000000  0.4624120000000  0.5279720000000 1.0
C      1  0.5299620000000  0.5058160000000  0.5667380000000 1.0
C      1  0.5048350000000  0.4338370000000  0.5007710000000 1.0
C      1  0.5148190000000  0.5613520000000  0.4692420000000 1.0
C      1  0.5093840000000  0.5611730000000  0.5205560000000 1.0
C      1  0.5131910000000  0.4695570000000  0.4790400000000 1.0
C      1  0.4590950000000  0.4944960000000  0.4810630000000 1.0
C      1  0.5446530000000  0.4548720000000  0.5336170000000 1.0
C      1  0.4466240000000  0.4520420000000  0.5108020000000 1.0
C      1  0.4897770000000  0.5505760000000  0.4586530000000 1.0
C      1  0.5553680000000  0.5197970000000  0.4976790000000 1.0
C      1  0.5614520000000  0.4733220000000  0.4748450000000 1.0
C      1  0.5381940000000  0.5492830000000  0.4616290000000 1.0
C      1  0.4985080000000  0.4633290000000  0.4353470000000 1.0
C      1  0.4482010000000  0.5370100000000  0.4751540000000 1.0
END
