TITL C-9266-5713-170 2.26522805645567e-07 125000 -362.170871029777 0 0 60 (C1) n - 1
REM
REM in /home/bkarasulu/CARBON/AIRSS/Generating-Clusters/EDIP-Nigel-Params/Higher-Symm/Box-15A/Only-C60/SD-CG/HFTN-CG
REM
REM
REM
REM
REM
REM ./C.cell (414f73aa93bd7a1190c7fd0f31ff2f98)
REM
REM compiler GCC version 9.2.1 20190827 (Red Hat 9.2.1-1)
REM options -cpp -mtune=generic -march=x86-64 -g -O0 -fpre-include=/usr/include/finclude/math-vector-fortran.h
REM seed -1868838187 -329712058 392846333 -1952207338 -381047639 -1338643285 -1385869098 549194466 105860015 1587415057 2057588535 1915177452 -555492909 1124741108 -347056227 1738307051 -320243855 -1848429187 1674136777 -780264848 451974155 1585729977 -402223686 1366977731 1573983964 1574611407 1847489010 -270429823 240042363 -560127900 1631502358 735784800 -894234464
REM
CELL 1.54180   50.00000   50.00000   50.00000   90.00000   90.00000   90.00000
LATT -1
SFAC C  
C      1  0.5211350000000  0.5529370000000  0.5201530000000 1.0
C      1  0.4919160000000  0.5507640000000  0.5246100000000 1.0
C      1  0.4579700000000  0.5108130000000  0.5216950000000 1.0
C      1  0.4582740000000  0.4798900000000  0.5239050000000 1.0
C      1  0.4894190000000  0.4713630000000  0.5216670000000 1.0
C      1  0.5366410000000  0.4605720000000  0.5185100000000 1.0
C      1  0.5348420000000  0.4911310000000  0.5204060000000 1.0
C      1  0.4611940000000  0.4996150000000  0.4752500000000 1.0
C      1  0.4590610000000  0.4695100000000  0.4819490000000 1.0
C      1  0.5140240000000  0.4692790000000  0.4714260000000 1.0
C      1  0.5440600000000  0.4743560000000  0.4771090000000 1.0
C      1  0.5500190000000  0.5003970000000  0.4938320000000 1.0
C      1  0.4993050000000  0.5321570000000  0.4782620000000 1.0
C      1  0.4723570000000  0.5454400000000  0.4852890000000 1.0
C      1  0.4473680000000  0.5206380000000  0.5482970000000 1.0
C      1  0.4505250000000  0.4742880000000  0.5518000000000 1.0
C      1  0.4931060000000  0.4562840000000  0.5478630000000 1.0
C      1  0.5427900000000  0.4516720000000  0.5456950000000 1.0
C      1  0.5470530000000  0.4996260000000  0.5462230000000 1.0
C      1  0.5329620000000  0.5488070000000  0.5477330000000 1.0
C      1  0.4854720000000  0.5555200000000  0.5533240000000 1.0
C      1  0.4226890000000  0.4702720000000  0.4701300000000 1.0
C      1  0.4771810000000  0.4457090000000  0.4793670000000 1.0
C      1  0.5442920000000  0.4338240000000  0.4731600000000 1.0
C      1  0.5827530000000  0.4917720000000  0.4657490000000 1.0
C      1  0.5457920000000  0.5355640000000  0.4789860000000 1.0
C      1  0.4911150000000  0.5782270000000  0.4765730000000 1.0
C      1  0.4355910000000  0.5369060000000  0.4798090000000 1.0
C      1  0.5523110000000  0.4507290000000  0.4951760000000 1.0
C      1  0.5791760000000  0.4988060000000  0.4921060000000 1.0
C      1  0.5235930000000  0.5353430000000  0.4964850000000 1.0
C      1  0.4781860000000  0.5697650000000  0.5028060000000 1.0
C      1  0.4434880000000  0.5140060000000  0.4952480000000 1.0
C      1  0.4343940000000  0.4653970000000  0.4981630000000 1.0
C      1  0.4989140000000  0.4559810000000  0.4958510000000 1.0
C      1  0.5341260000000  0.5219310000000  0.5584180000000 1.0
C      1  0.5108040000000  0.5520500000000  0.5668570000000 1.0
C      1  0.4626720000000  0.5408900000000  0.5600200000000 1.0
C      1  0.4421090000000  0.4980240000000  0.5639520000000 1.0
C      1  0.4702300000000  0.4585810000000  0.5636680000000 1.0
C      1  0.5181990000000  0.4511300000000  0.5609600000000 1.0
C      1  0.5484420000000  0.4755130000000  0.5616280000000 1.0
C      1  0.5116210000000  0.5437500000000  0.4443160000000 1.0
C      1  0.4638370000000  0.5540600000000  0.4441700000000 1.0
C      1  0.4461940000000  0.5066930000000  0.4408670000000 1.0
C      1  0.4586910000000  0.4590100000000  0.4389290000000 1.0
C      1  0.5093910000000  0.4464770000000  0.4408070000000 1.0
C      1  0.5550730000000  0.4646730000000  0.4374590000000 1.0
C      1  0.5514930000000  0.5133440000000  0.4377720000000 1.0
C      1  0.5392830000000  0.5350810000000  0.4509680000000 1.0
C      1  0.4900790000000  0.5642290000000  0.4499280000000 1.0
C      1  0.4450900000000  0.5341770000000  0.4524080000000 1.0
C      1  0.4378290000000  0.4779920000000  0.4446470000000 1.0
C      1  0.4811610000000  0.4454110000000  0.4503320000000 1.0
C      1  0.5383190000000  0.4429800000000  0.4463160000000 1.0
C      1  0.5665030000000  0.4901050000000  0.4429470000000 1.0
C      1  0.4900360000000  0.5052470000000  0.4768020000000 1.0
C      1  0.5036870000000  0.4920740000000  0.4573650000000 1.0
C      1  0.4862740000000  0.5203010000000  0.5184930000000 1.0
C      1  0.5047440000000  0.4970260000000  0.5223230000000 1.0
END
