TITL C-9270-2362-136 1.73697687285815e-07 125000 -368.797277879019 0 0 60 (C2) n - 1
REM
REM in /home/bkarasulu/CARBON/AIRSS/Generating-Clusters/EDIP-Nigel-Params/Higher-Symm/Box-15A/Only-C60/SD-CG/HFTN-CG
REM
REM
REM
REM
REM
REM ./C.cell (414f73aa93bd7a1190c7fd0f31ff2f98)
REM
REM compiler GCC version 9.2.1 20190827 (Red Hat 9.2.1-1)
REM options -cpp -mtune=generic -march=x86-64 -g -O0 -fpre-include=/usr/include/finclude/math-vector-fortran.h
REM seed 412502608 -1299497263 237707166 1164714497 16924150 -1039300478 -839304336 1929631802 1910144604 -291950540 1093120799 -2128729400 -1417758052 326271576 -268708023 1086693268 -1696144416 -153059821 2042315551 679954160 1855030016 30509007 34771975 -850457604 374604560 1219938782 -1934724325 -399795947 2090355688 -615579810 1667711676 1039435653 316282073
REM
CELL 1.54180   50.00000   50.00000   50.00000   90.00000   90.00000   90.00000
LATT -1
SFAC C  
C      1  0.4987360000000  0.5365160000000  0.4857920000000 1.0
C      1  0.5012840000000  0.5365430000000  0.5141370000000 1.0
C      1  0.4986100000000  0.4586570000000  0.4857960000000 1.0
C      1  0.5013670000000  0.4586840000000  0.5142850000000 1.0
C      1  0.4563100000000  0.4637800000000  0.5045270000000 1.0
C      1  0.5436700000000  0.4637470000000  0.4955450000000 1.0
C      1  0.4559700000000  0.5347810000000  0.5041340000000 1.0
C      1  0.5440490000000  0.5347490000000  0.4957980000000 1.0
C      1  0.5819970000000  0.4881570000000  0.5145890000000 1.0
C      1  0.4179960000000  0.4881720000000  0.4854340000000 1.0
C      1  0.5870610000000  0.5175090000000  0.5135920000000 1.0
C      1  0.4129480000000  0.5175290000000  0.4863730000000 1.0
C      1  0.4692070000000  0.5400640000000  0.5525270000000 1.0
C      1  0.5308150000000  0.5399440000000  0.4473940000000 1.0
C      1  0.4687720000000  0.4558440000000  0.5525340000000 1.0
C      1  0.5312050000000  0.4557240000000  0.4475530000000 1.0
C      1  0.4813960000000  0.4847340000000  0.4345990000000 1.0
C      1  0.5185960000000  0.4848530000000  0.5654310000000 1.0
C      1  0.4803820000000  0.5120530000000  0.4356530000000 1.0
C      1  0.5196240000000  0.5121680000000  0.5643230000000 1.0
C      1  0.5417960000000  0.4841980000000  0.4071750000000 1.0
C      1  0.4581950000000  0.4844030000000  0.5928560000000 1.0
C      1  0.5412880000000  0.5107180000000  0.4072140000000 1.0
C      1  0.4587180000000  0.5109230000000  0.5927650000000 1.0
C      1  0.4304110000000  0.4767400000000  0.5090200000000 1.0
C      1  0.5695770000000  0.4766840000000  0.4910260000000 1.0
C      1  0.4272140000000  0.5300780000000  0.5093890000000 1.0
C      1  0.5728020000000  0.5300200000000  0.4905520000000 1.0
C      1  0.4158370000000  0.4722290000000  0.4625190000000 1.0
C      1  0.5841480000000  0.4722570000000  0.5375360000000 1.0
C      1  0.4155230000000  0.5318090000000  0.4622940000000 1.0
C      1  0.5844940000000  0.5318380000000  0.5376440000000 1.0
C      1  0.4350300000000  0.5288950000000  0.4426900000000 1.0
C      1  0.5649860000000  0.5289730000000  0.5572530000000 1.0
C      1  0.4351340000000  0.4716650000000  0.4425870000000 1.0
C      1  0.5648510000000  0.4717430000000  0.5574690000000 1.0
C      1  0.5379210000000  0.4633230000000  0.4230550000000 1.0
C      1  0.4620590000000  0.4634950000000  0.5770170000000 1.0
C      1  0.5368900000000  0.5315710000000  0.4229740000000 1.0
C      1  0.4631270000000  0.5317430000000  0.5769640000000 1.0
C      1  0.4260030000000  0.4919530000000  0.5322180000000 1.0
C      1  0.5739930000000  0.4918500000000  0.4677980000000 1.0
C      1  0.4205780000000  0.5184350000000  0.5345350000000 1.0
C      1  0.5794310000000  0.5183240000000  0.4654280000000 1.0
C      1  0.5375680000000  0.5265920000000  0.5481100000000 1.0
C      1  0.4624460000000  0.5265170000000  0.4518370000000 1.0
C      1  0.5370290000000  0.4715190000000  0.5486980000000 1.0
C      1  0.4629550000000  0.4714430000000  0.4513580000000 1.0
C      1  0.4706670000000  0.5348330000000  0.4785450000000 1.0
C      1  0.5293510000000  0.5348590000000  0.5213860000000 1.0
C      1  0.4709380000000  0.4640210000000  0.4787070000000 1.0
C      1  0.5290420000000  0.4640480000000  0.5213640000000 1.0
C      1  0.5250470000000  0.5376440000000  0.4741690000000 1.0
C      1  0.4749730000000  0.5377080000000  0.5257570000000 1.0
C      1  0.5247460000000  0.4609960000000  0.4737570000000 1.0
C      1  0.4752330000000  0.4610610000000  0.5263200000000 1.0
C      1  0.4293660000000  0.4865770000000  0.4195830000000 1.0
C      1  0.5706260000000  0.4866970000000  0.5804440000000 1.0
C      1  0.4284420000000  0.5136460000000  0.4202140000000 1.0
C      1  0.5715650000000  0.5137640000000  0.5797590000000 1.0
END
