TITL C-9269-7444-186 1.16559565948108e-06 125000 -356.656565287488 0 0 60 (C1) n - 1
REM
REM in /home/bkarasulu/CARBON/AIRSS/Generating-Clusters/EDIP-Nigel-Params/Higher-Symm/Box-15A/Only-C60/SD-CG/HFTN-CG
REM
REM
REM
REM
REM
REM ./C.cell (414f73aa93bd7a1190c7fd0f31ff2f98)
REM
REM compiler GCC version 9.2.1 20190827 (Red Hat 9.2.1-1)
REM options -cpp -mtune=generic -march=x86-64 -g -O0 -fpre-include=/usr/include/finclude/math-vector-fortran.h
REM seed 787917304 -136545342 369312753 -1211409257 1677966158 1833955003 -1939305527 -232834165 -1870602595 1209090571 -1995342230 -1821994756 -1721644363 -441802442 -424105562 1241058800 1577439714 -731525480 -271775191 -1645892819 -970862972 -1961331609 -264130549 1166957009 746411488 -1003258807 -902006849 -1286578243 -1991535946 -141756252 1912135038 1077546018 600468617
REM
CELL 1.54180   50.00000   50.00000   50.00000   90.00000   90.00000   90.00000
LATT -1
SFAC C  
C      1  0.5647170000000  0.5097850000000  0.5238270000000 1.0
C      1  0.4875490000000  0.5086040000000  0.4260500000000 1.0
C      1  0.4535250000000  0.5066830000000  0.5484990000000 1.0
C      1  0.4355320000000  0.5082850000000  0.5243660000000 1.0
C      1  0.5164520000000  0.5061900000000  0.4264060000000 1.0
C      1  0.5471880000000  0.5071820000000  0.5481540000000 1.0
C      1  0.5725100000000  0.4503810000000  0.4791230000000 1.0
C      1  0.4413060000000  0.4464310000000  0.4524370000000 1.0
C      1  0.4852400000000  0.4428430000000  0.5704850000000 1.0
C      1  0.4264270000000  0.4483430000000  0.4802050000000 1.0
C      1  0.5571840000000  0.4475500000000  0.4517500000000 1.0
C      1  0.5155720000000  0.4445990000000  0.5689740000000 1.0
C      1  0.5338080000000  0.4706540000000  0.5011130000000 1.0
C      1  0.4831110000000  0.4675920000000  0.4678940000000 1.0
C      1  0.4800460000000  0.4674770000000  0.5288550000000 1.0
C      1  0.4653640000000  0.4684300000000  0.5019890000000 1.0
C      1  0.5149460000000  0.4687250000000  0.4680860000000 1.0
C      1  0.5194670000000  0.4694490000000  0.5280230000000 1.0
C      1  0.4864860000000  0.5520440000000  0.4512690000000 1.0
C      1  0.4662520000000  0.5593940000000  0.5385950000000 1.0
C      1  0.5538160000000  0.5594510000000  0.5129430000000 1.0
C      1  0.5154700000000  0.5508780000000  0.4449160000000 1.0
C      1  0.5297370000000  0.5589880000000  0.5419140000000 1.0
C      1  0.4478780000000  0.5568830000000  0.5131130000000 1.0
C      1  0.5158660000000  0.5122380000000  0.4763320000000 1.0
C      1  0.4751580000000  0.5204830000000  0.5003010000000 1.0
C      1  0.5147720000000  0.5131080000000  0.5271230000000 1.0
C      1  0.4868270000000  0.5108450000000  0.4759070000000 1.0
C      1  0.5252070000000  0.5234590000000  0.5012320000000 1.0
C      1  0.4849590000000  0.5108170000000  0.5258230000000 1.0
C      1  0.4696250000000  0.5759640000000  0.4976380000000 1.0
C      1  0.5116220000000  0.5685890000000  0.5217120000000 1.0
C      1  0.5176270000000  0.5735560000000  0.4755840000000 1.0
C      1  0.5307990000000  0.5771580000000  0.5014850000000 1.0
C      1  0.4844100000000  0.5790810000000  0.5243260000000 1.0
C      1  0.4897020000000  0.5645530000000  0.4780340000000 1.0
C      1  0.5557310000000  0.4919990000000  0.4976290000000 1.0
C      1  0.4677920000000  0.4847030000000  0.4474040000000 1.0
C      1  0.4665110000000  0.4804220000000  0.5517290000000 1.0
C      1  0.4434300000000  0.4895160000000  0.4989860000000 1.0
C      1  0.5298480000000  0.4847830000000  0.4459150000000 1.0
C      1  0.5336900000000  0.4812610000000  0.5509080000000 1.0
C      1  0.4755650000000  0.5228490000000  0.4501210000000 1.0
C      1  0.4808440000000  0.5336470000000  0.5475310000000 1.0
C      1  0.5537760000000  0.5306030000000  0.5029920000000 1.0
C      1  0.5271040000000  0.5234960000000  0.4499650000000 1.0
C      1  0.5190990000000  0.5336290000000  0.5512110000000 1.0
C      1  0.4467990000000  0.5279210000000  0.5022690000000 1.0
C      1  0.5143490000000  0.4411070000000  0.5376290000000 1.0
C      1  0.5307480000000  0.4421640000000  0.4676940000000 1.0
C      1  0.4528680000000  0.4417230000000  0.4946600000000 1.0
C      1  0.4838920000000  0.4387880000000  0.5390780000000 1.0
C      1  0.4680240000000  0.4408490000000  0.4677220000000 1.0
C      1  0.5465250000000  0.4439010000000  0.4942930000000 1.0
C      1  0.4811400000000  0.4717570000000  0.5750780000000 1.0
C      1  0.5737110000000  0.4811980000000  0.4752130000000 1.0
C      1  0.4386550000000  0.4768800000000  0.4488070000000 1.0
C      1  0.5194600000000  0.4730680000000  0.5745100000000 1.0
C      1  0.4248670000000  0.4792480000000  0.4770770000000 1.0
C      1  0.5594130000000  0.4777970000000  0.4470950000000 1.0
END
