TITL C-9266-5713-209 8.31723745869371e-07 125000 -358.778802732003 0 0 60 (C1) n - 1
REM
REM in /home/bkarasulu/CARBON/AIRSS/Generating-Clusters/EDIP-Nigel-Params/Higher-Symm/Box-15A/Only-C60/SD-CG/HFTN-CG
REM
REM
REM
REM
REM
REM ./C.cell (414f73aa93bd7a1190c7fd0f31ff2f98)
REM
REM compiler GCC version 9.2.1 20190827 (Red Hat 9.2.1-1)
REM options -cpp -mtune=generic -march=x86-64 -g -O0 -fpre-include=/usr/include/finclude/math-vector-fortran.h
REM seed 1885147352 1619213157 1716841123 -730432493 -967124815 801597403 -282615288 1171231721 440171164 999763733 1919244855 -102488491 -266666875 -776033309 16195694 -1340161722 1763240623 1900927948 1804399033 447842539 37523974 377588382 1212421478 1196256310 1103295849 1140222544 -712797516 -1271410894 -1827713888 432851567 1474814120 1543607414 630768935
REM
CELL 1.54180   50.00000   50.00000   50.00000   90.00000   90.00000   90.00000
LATT -1
SFAC C  
C      1  0.5092980000000  0.4304560000000  0.5018460000000 1.0
C      1  0.4794730000000  0.5605030000000  0.5164290000000 1.0
C      1  0.5119010000000  0.4521600000000  0.4622570000000 1.0
C      1  0.5349400000000  0.5096830000000  0.5773830000000 1.0
C      1  0.4469790000000  0.4819750000000  0.4520270000000 1.0
C      1  0.5569800000000  0.4740720000000  0.5348290000000 1.0
C      1  0.4525870000000  0.5375720000000  0.4587400000000 1.0
C      1  0.5603650000000  0.5287070000000  0.4871180000000 1.0
C      1  0.4725840000000  0.4578720000000  0.4888830000000 1.0
C      1  0.5368300000000  0.4991330000000  0.4559790000000 1.0
C      1  0.5695100000000  0.5240500000000  0.5329580000000 1.0
C      1  0.4294960000000  0.4878330000000  0.5346310000000 1.0
C      1  0.4979310000000  0.5224940000000  0.5492330000000 1.0
C      1  0.5451120000000  0.5186000000000  0.5490310000000 1.0
C      1  0.5068630000000  0.5170450000000  0.5775730000000 1.0
C      1  0.5538090000000  0.4808500000000  0.4743920000000 1.0
C      1  0.5256620000000  0.5505790000000  0.4597390000000 1.0
C      1  0.5016780000000  0.5653590000000  0.5367370000000 1.0
C      1  0.4959900000000  0.5497890000000  0.5603870000000 1.0
C      1  0.4439140000000  0.5529210000000  0.4808750000000 1.0
C      1  0.5415960000000  0.5280730000000  0.4650310000000 1.0
C      1  0.5224740000000  0.5226050000000  0.5301330000000 1.0
C      1  0.4923220000000  0.4755760000000  0.5710980000000 1.0
C      1  0.4255600000000  0.4882440000000  0.5071070000000 1.0
C      1  0.5139460000000  0.4766720000000  0.4254200000000 1.0
C      1  0.5228880000000  0.5509170000000  0.5183900000000 1.0
C      1  0.5371720000000  0.4926100000000  0.4277100000000 1.0
C      1  0.5599900000000  0.5432190000000  0.5119880000000 1.0
C      1  0.4679490000000  0.4686480000000  0.5579450000000 1.0
C      1  0.5485230000000  0.4551910000000  0.4872980000000 1.0
C      1  0.4413240000000  0.5086550000000  0.4944200000000 1.0
C      1  0.5253460000000  0.5046340000000  0.4985960000000 1.0
C      1  0.5014390000000  0.5159940000000  0.4522170000000 1.0
C      1  0.5387190000000  0.4837360000000  0.5571110000000 1.0
C      1  0.4544680000000  0.5079250000000  0.4675700000000 1.0
C      1  0.4545930000000  0.4927330000000  0.5462890000000 1.0
C      1  0.4591450000000  0.5403870000000  0.5256860000000 1.0
C      1  0.4975440000000  0.5450110000000  0.4968120000000 1.0
C      1  0.4646240000000  0.4774680000000  0.4305160000000 1.0
C      1  0.5145340000000  0.4505850000000  0.4351770000000 1.0
C      1  0.4398950000000  0.5361790000000  0.5035130000000 1.0
C      1  0.4727380000000  0.4638360000000  0.5194340000000 1.0
C      1  0.4468870000000  0.4602250000000  0.4733030000000 1.0
C      1  0.5168020000000  0.4740940000000  0.4978500000000 1.0
C      1  0.4714080000000  0.5151420000000  0.5361740000000 1.0
C      1  0.4945400000000  0.4403950000000  0.4804250000000 1.0
C      1  0.5105530000000  0.4762770000000  0.5493950000000 1.0
C      1  0.4836990000000  0.5042600000000  0.4725060000000 1.0
C      1  0.4263930000000  0.4647790000000  0.4922240000000 1.0
C      1  0.4789030000000  0.5465440000000  0.4477390000000 1.0
C      1  0.5107390000000  0.4371600000000  0.5285670000000 1.0
C      1  0.4879310000000  0.4891850000000  0.4199130000000 1.0
C      1  0.4996510000000  0.5561210000000  0.4683030000000 1.0
C      1  0.5722980000000  0.4961700000000  0.5217810000000 1.0
C      1  0.4934690000000  0.5135900000000  0.4982450000000 1.0
C      1  0.5643940000000  0.5006580000000  0.4936720000000 1.0
C      1  0.4972240000000  0.4823730000000  0.5221530000000 1.0
C      1  0.4898580000000  0.5175610000000  0.4246470000000 1.0
C      1  0.5435650000000  0.4537110000000  0.5169110000000 1.0
C      1  0.4829920000000  0.4412050000000  0.5356820000000 1.0
END
