TITL C-9263-351-96 -6.56344636114927e-07 125000 -364.059394514899 0 0 60 (C1) n - 1
REM
REM in /home/bkarasulu/CARBON/AIRSS/Generating-Clusters/EDIP-Nigel-Params/Higher-Symm/Box-15A/Only-C60/SD-CG/HFTN-CG
REM
REM
REM
REM
REM
REM ./C.cell (414f73aa93bd7a1190c7fd0f31ff2f98)
REM
REM compiler GCC version 9.2.1 20190827 (Red Hat 9.2.1-1)
REM options -cpp -mtune=generic -march=x86-64 -g -O0 -fpre-include=/usr/include/finclude/math-vector-fortran.h
REM seed 226129910 -507231667 -996169251 1604936465 -1846917466 1725268750 1874088838 1003725376 -1240294392 2013885312 -1538525483 -1016358127 -900323117 265347331 637399628 -2060951066 -522336246 1888931056 -745830749 -1423313013 -246255221 246432149 -1526338457 1854667387 -2117045567 1764491240 -470343244 -376914638 -606148501 -718063895 1192339621 -1385349294 -340836329
REM
CELL 1.54180   50.00000   50.00000   50.00000   90.00000   90.00000   90.00000
LATT -1
SFAC C  
C      1  0.5027130000000  0.5552870000000  0.4424620000000 1.0
C      1  0.5517870000000  0.4990570000000  0.4387870000000 1.0
C      1  0.5016830000000  0.4451770000000  0.4461040000000 1.0
C      1  0.4502190000000  0.5009730000000  0.4390400000000 1.0
C      1  0.5082530000000  0.5512900000000  0.5605520000000 1.0
C      1  0.5530020000000  0.4905500000000  0.5562180000000 1.0
C      1  0.4917860000000  0.4485460000000  0.5605220000000 1.0
C      1  0.4464300000000  0.5083410000000  0.5583420000000 1.0
C      1  0.5241680000000  0.5390870000000  0.4347030000000 1.0
C      1  0.5333160000000  0.4789670000000  0.4329600000000 1.0
C      1  0.4805600000000  0.4604730000000  0.4358150000000 1.0
C      1  0.4675140000000  0.5220810000000  0.4321970000000 1.0
C      1  0.5267080000000  0.5319680000000  0.5700400000000 1.0
C      1  0.5355650000000  0.4720010000000  0.5684200000000 1.0
C      1  0.4727620000000  0.4672180000000  0.5698160000000 1.0
C      1  0.4643950000000  0.5276280000000  0.5684510000000 1.0
C      1  0.4791780000000  0.4900860000000  0.4753930000000 1.0
C      1  0.4899130000000  0.5223680000000  0.4757760000000 1.0
C      1  0.5217520000000  0.5116070000000  0.4759660000000 1.0
C      1  0.5099200000000  0.4816330000000  0.4762370000000 1.0
C      1  0.4782790000000  0.4919990000000  0.5265880000000 1.0
C      1  0.4908520000000  0.5223890000000  0.5264190000000 1.0
C      1  0.5215570000000  0.5093830000000  0.5263460000000 1.0
C      1  0.5079740000000  0.4804240000000  0.5269670000000 1.0
C      1  0.5392960000000  0.4546110000000  0.5010640000000 1.0
C      1  0.4558430000000  0.4555560000000  0.5044660000000 1.0
C      1  0.4552940000000  0.5448280000000  0.5034700000000 1.0
C      1  0.5453790000000  0.5439510000000  0.5052550000000 1.0
C      1  0.5473350000000  0.4513140000000  0.4715990000000 1.0
C      1  0.4512960000000  0.4386430000000  0.4803000000000 1.0
C      1  0.4403970000000  0.5505190000000  0.4784270000000 1.0
C      1  0.5509440000000  0.5608620000000  0.4814010000000 1.0
C      1  0.4656520000000  0.4789920000000  0.4510070000000 1.0
C      1  0.4810480000000  0.5376020000000  0.4512730000000 1.0
C      1  0.5373420000000  0.5209420000000  0.4514640000000 1.0
C      1  0.5235520000000  0.4634740000000  0.4551360000000 1.0
C      1  0.4617290000000  0.4845530000000  0.5506400000000 1.0
C      1  0.4837280000000  0.5382200000000  0.5509710000000 1.0
C      1  0.5382000000000  0.5153920000000  0.5503720000000 1.0
C      1  0.5154630000000  0.4631370000000  0.5507850000000 1.0
C      1  0.4388390000000  0.5191920000000  0.5088070000000 1.0
C      1  0.5197940000000  0.5604360000000  0.5119330000000 1.0
C      1  0.5589060000000  0.4772920000000  0.5054290000000 1.0
C      1  0.4805220000000  0.4383630000000  0.5127030000000 1.0
C      1  0.4250550000000  0.5249920000000  0.4793260000000 1.0
C      1  0.5258460000000  0.5768120000000  0.4845690000000 1.0
C      1  0.5713000000000  0.4714640000000  0.4763150000000 1.0
C      1  0.4759640000000  0.4222990000000  0.4849900000000 1.0
C      1  0.4942600000000  0.4252680000000  0.4641290000000 1.0
C      1  0.4298830000000  0.5091750000000  0.4567210000000 1.0
C      1  0.5093490000000  0.5741680000000  0.4621880000000 1.0
C      1  0.5724600000000  0.4896890000000  0.4551120000000 1.0
C      1  0.4821970000000  0.4315180000000  0.5400490000000 1.0
C      1  0.4312250000000  0.5165840000000  0.5359470000000 1.0
C      1  0.5178450000000  0.5673440000000  0.5392980000000 1.0
C      1  0.5658880000000  0.4811430000000  0.5327070000000 1.0
C      1  0.4836740000000  0.5372640000000  0.5013470000000 1.0
C      1  0.5371550000000  0.5158830000000  0.5015100000000 1.0
C      1  0.5129400000000  0.4661660000000  0.5016410000000 1.0
C      1  0.4641140000000  0.4838230000000  0.5011540000000 1.0
END
