TITL C-9259-5960-328 1.52732347517609e-07 125000 -368.887597210686 0 0 60 (C1) n - 1
REM
REM in /home/bkarasulu/CARBON/AIRSS/Generating-Clusters/EDIP-Nigel-Params/Higher-Symm/Box-15A/Only-C60/SD-CG/HFTN-CG
REM
REM
REM
REM
REM
REM ./C.cell (414f73aa93bd7a1190c7fd0f31ff2f98)
REM
REM compiler GCC version 9.2.1 20190827 (Red Hat 9.2.1-1)
REM options -cpp -mtune=generic -march=x86-64 -g -O0 -fpre-include=/usr/include/finclude/math-vector-fortran.h
REM seed 1176336674 -205140459 -1001950844 -1366833974 571907248 537475836 1983445524 811141013 -1061371086 1893861265 -2007864272 -1357918988 -1617688185 1328069154 909697468 -1742729549 1564316402 -380719012 1370675603 -2078578582 2086912834 -208041347 -613770048 1994638658 274557218 -1365334477 341923221 1604067511 -717980917 1637722642 1389877027 -102512939 -390772800
REM
CELL 1.54180   50.00000   50.00000   50.00000   90.00000   90.00000   90.00000
LATT -1
SFAC C  
C      1  0.5221670000000  0.4397040000000  0.4849620000000 1.0
C      1  0.5224120000000  0.4395460000000  0.5136750000000 1.0
C      1  0.5675860000000  0.4976300000000  0.4700680000000 1.0
C      1  0.5688750000000  0.4953670000000  0.5300390000000 1.0
C      1  0.5177740000000  0.4832420000000  0.4868410000000 1.0
C      1  0.5175190000000  0.4831480000000  0.5176900000000 1.0
C      1  0.5197360000000  0.5586410000000  0.5173240000000 1.0
C      1  0.5233010000000  0.5579920000000  0.4879140000000 1.0
C      1  0.4443850000000  0.5350550000000  0.4780380000000 1.0
C      1  0.4460270000000  0.5329760000000  0.5075870000000 1.0
C      1  0.4890690000000  0.4914280000000  0.5275350000000 1.0
C      1  0.4893590000000  0.4913290000000  0.4776230000000 1.0
C      1  0.4770230000000  0.4452980000000  0.5347650000000 1.0
C      1  0.4766160000000  0.4459520000000  0.4655650000000 1.0
C      1  0.4404040000000  0.4782670000000  0.4857050000000 1.0
C      1  0.4344380000000  0.4840930000000  0.5137190000000 1.0
C      1  0.5502230000000  0.4988910000000  0.4466130000000 1.0
C      1  0.5547670000000  0.4929160000000  0.5551790000000 1.0
C      1  0.4377060000000  0.5107500000000  0.5242650000000 1.0
C      1  0.4339270000000  0.4999380000000  0.4680630000000 1.0
C      1  0.5082710000000  0.5783770000000  0.4747700000000 1.0
C      1  0.5013500000000  0.5791430000000  0.5245560000000 1.0
C      1  0.4696830000000  0.4698310000000  0.5179630000000 1.0
C      1  0.4696340000000  0.4691040000000  0.4856970000000 1.0
C      1  0.4665730000000  0.4985140000000  0.5652970000000 1.0
C      1  0.4638180000000  0.4971940000000  0.4288680000000 1.0
C      1  0.4627470000000  0.5504720000000  0.5222310000000 1.0
C      1  0.4704760000000  0.5473910000000  0.4660180000000 1.0
C      1  0.4815510000000  0.5709520000000  0.4809750000000 1.0
C      1  0.4778970000000  0.5715940000000  0.5103720000000 1.0
C      1  0.4925760000000  0.5041070000000  0.4274700000000 1.0
C      1  0.4959200000000  0.5049150000000  0.5688220000000 1.0
C      1  0.5036870000000  0.4788860000000  0.4383110000000 1.0
C      1  0.5060620000000  0.4772370000000  0.5594680000000 1.0
C      1  0.4479170000000  0.5128940000000  0.5502270000000 1.0
C      1  0.4600840000000  0.5062240000000  0.4571260000000 1.0
C      1  0.4821770000000  0.4579760000000  0.4385340000000 1.0
C      1  0.4828420000000  0.4572460000000  0.5612740000000 1.0
C      1  0.5097080000000  0.5302390000000  0.5589560000000 1.0
C      1  0.4966060000000  0.5295300000000  0.4432980000000 1.0
C      1  0.5321560000000  0.4754330000000  0.4461220000000 1.0
C      1  0.5357630000000  0.4702110000000  0.5551720000000 1.0
C      1  0.4874350000000  0.5214080000000  0.5167580000000 1.0
C      1  0.4896510000000  0.5208180000000  0.4860060000000 1.0
C      1  0.5410120000000  0.4574130000000  0.4693110000000 1.0
C      1  0.5426390000000  0.4554150000000  0.5292150000000 1.0
C      1  0.5496140000000  0.5152400000000  0.5709710000000 1.0
C      1  0.5400640000000  0.5237910000000  0.4391690000000 1.0
C      1  0.5141080000000  0.5310270000000  0.5286770000000 1.0
C      1  0.5176380000000  0.5308950000000  0.4762620000000 1.0
C      1  0.4991390000000  0.4309530000000  0.5258780000000 1.0
C      1  0.4986580000000  0.4308410000000  0.4733480000000 1.0
C      1  0.5618740000000  0.4729470000000  0.4845590000000 1.0
C      1  0.5626380000000  0.4719780000000  0.5139870000000 1.0
C      1  0.5358730000000  0.5089820000000  0.4872200000000 1.0
C      1  0.5351510000000  0.5091980000000  0.5190100000000 1.0
C      1  0.4593740000000  0.4693190000000  0.4259320000000 1.0
C      1  0.4604950000000  0.4715340000000  0.5708200000000 1.0
C      1  0.5207940000000  0.5423530000000  0.4347810000000 1.0
C      1  0.5330280000000  0.5362560000000  0.5734010000000 1.0
END
