TITL C-9268-6400-124 -2.33800526414069e-06 125000 -368.695721161075 0 0 60 (C1) n - 1
REM
REM in /home/bkarasulu/CARBON/AIRSS/Generating-Clusters/EDIP-Nigel-Params/Higher-Symm/Box-15A/Only-C60/SD-CG/HFTN-CG
REM
REM
REM
REM
REM
REM ./C.cell (414f73aa93bd7a1190c7fd0f31ff2f98)
REM
REM compiler GCC version 9.2.1 20190827 (Red Hat 9.2.1-1)
REM options -cpp -mtune=generic -march=x86-64 -g -O0 -fpre-include=/usr/include/finclude/math-vector-fortran.h
REM seed 388446453 356878878 -1475331627 -209338692 -904969479 257722835 -962084332 -1010092660 -70934818 -1775357823 1724809857 504873459 -1557719009 -1558120501 -358858900 -2097909214 -123460682 943653586 1552610376 356923137 -721039608 571074423 -113531001 462318173 774177199 -1101076392 -671110115 1191739564 1387817013 62259165 -869164460 1222736538 1176472109
REM
CELL 1.54180   50.00000   50.00000   50.00000   90.00000   90.00000   90.00000
LATT -1
SFAC C  
C      1  0.5503210000000  0.4756650000000  0.4771410000000 1.0
C      1  0.5528080000000  0.5023820000000  0.4563450000000 1.0
C      1  0.5505230000000  0.5300240000000  0.4701340000000 1.0
C      1  0.5507170000000  0.5271400000000  0.5090390000000 1.0
C      1  0.5534640000000  0.5153210000000  0.5373470000000 1.0
C      1  0.5447010000000  0.4873050000000  0.5333350000000 1.0
C      1  0.5490860000000  0.4686860000000  0.5098230000000 1.0
C      1  0.5171740000000  0.5203870000000  0.4212110000000 1.0
C      1  0.5145310000000  0.5674560000000  0.4724560000000 1.0
C      1  0.5198830000000  0.5471380000000  0.5394730000000 1.0
C      1  0.5202820000000  0.5178900000000  0.5803440000000 1.0
C      1  0.5132340000000  0.4567360000000  0.5506240000000 1.0
C      1  0.5183950000000  0.4268920000000  0.5013380000000 1.0
C      1  0.5223050000000  0.4518540000000  0.4377470000000 1.0
C      1  0.5119950000000  0.5308030000000  0.4476650000000 1.0
C      1  0.5114310000000  0.5519150000000  0.4961050000000 1.0
C      1  0.5039720000000  0.5193890000000  0.5352310000000 1.0
C      1  0.5097090000000  0.5002190000000  0.5573510000000 1.0
C      1  0.5073710000000  0.4647080000000  0.5210080000000 1.0
C      1  0.5133770000000  0.4463840000000  0.4809290000000 1.0
C      1  0.5152230000000  0.4794770000000  0.4381240000000 1.0
C      1  0.4824170000000  0.5387640000000  0.5620070000000 1.0
C      1  0.4819250000000  0.4887640000000  0.5642770000000 1.0
C      1  0.4805840000000  0.4481060000000  0.5197250000000 1.0
C      1  0.4874390000000  0.4411140000000  0.4672180000000 1.0
C      1  0.4868960000000  0.4849160000000  0.4313040000000 1.0
C      1  0.4834210000000  0.5376190000000  0.4524750000000 1.0
C      1  0.4862730000000  0.5604230000000  0.5099950000000 1.0
C      1  0.4909600000000  0.5254340000000  0.5879900000000 1.0
C      1  0.4867360000000  0.4591100000000  0.5634070000000 1.0
C      1  0.4885530000000  0.4210510000000  0.5071430000000 1.0
C      1  0.4938640000000  0.4405400000000  0.4369960000000 1.0
C      1  0.4883030000000  0.5116500000000  0.4153470000000 1.0
C      1  0.4851390000000  0.5675920000000  0.4641660000000 1.0
C      1  0.4982480000000  0.5711600000000  0.5374670000000 1.0
C      1  0.5390160000000  0.5334350000000  0.5598350000000 1.0
C      1  0.5358020000000  0.4737170000000  0.5573170000000 1.0
C      1  0.5380590000000  0.4419950000000  0.5173860000000 1.0
C      1  0.5363500000000  0.4507150000000  0.4643860000000 1.0
C      1  0.5361850000000  0.4979440000000  0.4304300000000 1.0
C      1  0.5318740000000  0.5493490000000  0.4564160000000 1.0
C      1  0.5339160000000  0.5503990000000  0.5137690000000 1.0
C      1  0.4725990000000  0.5759540000000  0.4887620000000 1.0
C      1  0.4834570000000  0.5676960000000  0.5608840000000 1.0
C      1  0.4762960000000  0.5009500000000  0.5904950000000 1.0
C      1  0.4692540000000  0.4449030000000  0.5466290000000 1.0
C      1  0.4763870000000  0.4173520000000  0.4811970000000 1.0
C      1  0.4782500000000  0.4586990000000  0.4205670000000 1.0
C      1  0.4716900000000  0.5329210000000  0.4257760000000 1.0
C      1  0.4622020000000  0.5273520000000  0.5427490000000 1.0
C      1  0.4603760000000  0.4977310000000  0.5431380000000 1.0
C      1  0.4626390000000  0.4648320000000  0.5025010000000 1.0
C      1  0.4705450000000  0.4647540000000  0.4741850000000 1.0
C      1  0.4724630000000  0.4888500000000  0.4575640000000 1.0
C      1  0.4729320000000  0.5147880000000  0.4704840000000 1.0
C      1  0.4689750000000  0.5360580000000  0.5149690000000 1.0
C      1  0.5065040000000  0.4989620000000  0.5106930000000 1.0
C      1  0.5326460000000  0.5054970000000  0.4943750000000 1.0
C      1  0.4768220000000  0.5114940000000  0.5002140000000 1.0
C      1  0.4584830000000  0.4918640000000  0.5130440000000 1.0
END
