TITL C-9263-351-141 -2.97341078359223e-05 125000 -359.113658880659 0 0 60 (C1) n - 1
REM
REM in /home/bkarasulu/CARBON/AIRSS/Generating-Clusters/EDIP-Nigel-Params/Higher-Symm/Box-15A/Only-C60/SD-CG/HFTN-CG
REM
REM
REM
REM
REM
REM ./C.cell (414f73aa93bd7a1190c7fd0f31ff2f98)
REM
REM compiler GCC version 9.2.1 20190827 (Red Hat 9.2.1-1)
REM options -cpp -mtune=generic -march=x86-64 -g -O0 -fpre-include=/usr/include/finclude/math-vector-fortran.h
REM seed 100261010 1000220917 -58957441 1221231882 -308533916 -1586325853 -1345100146 813261211 872167141 2135867316 -643600725 1680728365 826793429 -279516239 -358619353 221279957 -685447947 1960151190 1911286351 1876695383 1253092717 1446925032 662017779 -1115032923 2072545995 551412965 -1263853969 602335065 1176931038 -175924108 1244393350 -1851138085 717672028
REM
CELL 1.54180   50.00000   50.00000   50.00000   90.00000   90.00000   90.00000
LATT -1
SFAC C  
C      1  0.4775300000000  0.5243750000000  0.5575080000000 1.0
C      1  0.4718280000000  0.5458790000000  0.4913490000000 1.0
C      1  0.5202410000000  0.5181180000000  0.4995200000000 1.0
C      1  0.5394460000000  0.5421210000000  0.4972130000000 1.0
C      1  0.4957470000000  0.4732430000000  0.5818310000000 1.0
C      1  0.5672710000000  0.4806320000000  0.5248180000000 1.0
C      1  0.5288040000000  0.4899450000000  0.4199300000000 1.0
C      1  0.4645630000000  0.4321660000000  0.5051240000000 1.0
C      1  0.5316440000000  0.5168860000000  0.4290600000000 1.0
C      1  0.5122260000000  0.4454500000000  0.4767640000000 1.0
C      1  0.5116250000000  0.4374120000000  0.5041350000000 1.0
C      1  0.4930470000000  0.5448750000000  0.4479650000000 1.0
C      1  0.5319810000000  0.4470420000000  0.5216140000000 1.0
C      1  0.5063320000000  0.5668160000000  0.4610470000000 1.0
C      1  0.5285590000000  0.5224850000000  0.5660420000000 1.0
C      1  0.4282150000000  0.4843710000000  0.4704610000000 1.0
C      1  0.4761050000000  0.5232640000000  0.5136250000000 1.0
C      1  0.4191050000000  0.5251880000000  0.5193170000000 1.0
C      1  0.5070980000000  0.5309760000000  0.4279270000000 1.0
C      1  0.5588740000000  0.5269440000000  0.5427460000000 1.0
C      1  0.4386710000000  0.5444890000000  0.5219420000000 1.0
C      1  0.4770960000000  0.4928990000000  0.5019180000000 1.0
C      1  0.5486960000000  0.5460900000000  0.4683270000000 1.0
C      1  0.5701310000000  0.5034020000000  0.4569850000000 1.0
C      1  0.5495330000000  0.5213560000000  0.4522120000000 1.0
C      1  0.5044060000000  0.5263750000000  0.5225120000000 1.0
C      1  0.4543920000000  0.4761220000000  0.4832560000000 1.0
C      1  0.4241990000000  0.4784920000000  0.4976590000000 1.0
C      1  0.4415700000000  0.4278830000000  0.5179980000000 1.0
C      1  0.5584420000000  0.4976410000000  0.5450690000000 1.0
C      1  0.5374790000000  0.4485880000000  0.4650440000000 1.0
C      1  0.4470720000000  0.5588100000000  0.4991120000000 1.0
C      1  0.4869030000000  0.4445120000000  0.4619120000000 1.0
C      1  0.5320720000000  0.4948710000000  0.5569690000000 1.0
C      1  0.5734220000000  0.4795500000000  0.4684110000000 1.0
C      1  0.4998830000000  0.5020020000000  0.4558380000000 1.0
C      1  0.4878970000000  0.4442170000000  0.5216580000000 1.0
C      1  0.4878260000000  0.4638250000000  0.4390370000000 1.0
C      1  0.5100670000000  0.5538760000000  0.5319360000000 1.0
C      1  0.5600960000000  0.5381470000000  0.5171620000000 1.0
C      1  0.4165300000000  0.4993180000000  0.5137930000000 1.0
C      1  0.4642840000000  0.4768550000000  0.5489820000000 1.0
C      1  0.4617280000000  0.5082000000000  0.4536220000000 1.0
C      1  0.5341580000000  0.5673470000000  0.4569970000000 1.0
C      1  0.5516670000000  0.4643430000000  0.5088860000000 1.0
C      1  0.5570820000000  0.4611120000000  0.4807720000000 1.0
C      1  0.5031410000000  0.5360340000000  0.5655410000000 1.0
C      1  0.5170870000000  0.4488810000000  0.5466860000000 1.0
C      1  0.5029440000000  0.4983330000000  0.4857100000000 1.0
C      1  0.4666060000000  0.4833810000000  0.4410740000000 1.0
C      1  0.4964250000000  0.5675810000000  0.4888930000000 1.0
C      1  0.5142110000000  0.4783050000000  0.4415370000000 1.0
C      1  0.4693220000000  0.4989830000000  0.5696580000000 1.0
C      1  0.4575880000000  0.5401670000000  0.5434080000000 1.0
C      1  0.4707340000000  0.5341910000000  0.4628380000000 1.0
C      1  0.4729040000000  0.4599380000000  0.5711530000000 1.0
C      1  0.4619510000000  0.4465420000000  0.4789170000000 1.0
C      1  0.4815590000000  0.4741770000000  0.5254360000000 1.0
C      1  0.5203990000000  0.5647760000000  0.5070730000000 1.0
C      1  0.5195830000000  0.4702000000000  0.5660690000000 1.0
END
