TITL C-9258-7861-159 -1.12241932718829e-06 125000 -369.883700740067 0 0 60 (C1) n - 1
REM
REM in /home/bkarasulu/CARBON/AIRSS/Generating-Clusters/EDIP-Nigel-Params/Higher-Symm/Box-15A/Only-C60/SD-CG/HFTN-CG
REM
REM
REM
REM
REM
REM ./C.cell (414f73aa93bd7a1190c7fd0f31ff2f98)
REM
REM compiler GCC version 9.2.1 20190827 (Red Hat 9.2.1-1)
REM options -cpp -mtune=generic -march=x86-64 -g -O0 -fpre-include=/usr/include/finclude/math-vector-fortran.h
REM seed -1267160195 -1455790610 801102102 -1329846670 919472513 330461894 -933534436 -455308771 949145964 1329722951 -674579685 1854338726 2052697016 -1405373116 1966876173 -42831126 -1138776658 -1487846209 1781385439 557293445 -2142101582 152785778 -1815140005 -442130281 2080953274 -961430545 742208338 -2045986604 -1807888404 1321378326 1248162950 50628504 215255607
REM
CELL 1.54180   50.00000   50.00000   50.00000   90.00000   90.00000   90.00000
LATT -1
SFAC C  
C      1  0.4857080000000  0.5440490000000  0.4407100000000 1.0
C      1  0.5572570000000  0.4855240000000  0.4374450000000 1.0
C      1  0.4659640000000  0.4635480000000  0.4397370000000 1.0
C      1  0.5187920000000  0.5701810000000  0.5035770000000 1.0
C      1  0.5535560000000  0.4451000000000  0.5013930000000 1.0
C      1  0.4252270000000  0.4815580000000  0.5038650000000 1.0
C      1  0.5253760000000  0.5062810000000  0.5022050000000 1.0
C      1  0.4830850000000  0.4894930000000  0.5087900000000 1.0
C      1  0.4972620000000  0.5151130000000  0.5084510000000 1.0
C      1  0.4850620000000  0.5280830000000  0.4842390000000 1.0
C      1  0.5265940000000  0.4955710000000  0.4712860000000 1.0
C      1  0.4794890000000  0.4828210000000  0.4789330000000 1.0
C      1  0.5292890000000  0.5188830000000  0.4526390000000 1.0
C      1  0.5041830000000  0.4743730000000  0.4635150000000 1.0
C      1  0.4708640000000  0.5098100000000  0.4665480000000 1.0
C      1  0.4575310000000  0.5018410000000  0.5504590000000 1.0
C      1  0.5231910000000  0.5320920000000  0.5490690000000 1.0
C      1  0.5177570000000  0.4643960000000  0.5421190000000 1.0
C      1  0.4925980000000  0.4702540000000  0.4367060000000 1.0
C      1  0.4780860000000  0.5176610000000  0.4392700000000 1.0
C      1  0.5466070000000  0.5101680000000  0.4322500000000 1.0
C      1  0.4889500000000  0.5524950000000  0.4684380000000 1.0
C      1  0.5527900000000  0.4811790000000  0.4659480000000 1.0
C      1  0.4575970000000  0.4650440000000  0.4679260000000 1.0
C      1  0.5394040000000  0.5544820000000  0.5439440000000 1.0
C      1  0.5295800000000  0.4384860000000  0.5419470000000 1.0
C      1  0.4315630000000  0.5129430000000  0.5421600000000 1.0
C      1  0.5733110000000  0.4948100000000  0.4809100000000 1.0
C      1  0.4604400000000  0.4395930000000  0.4806660000000 1.0
C      1  0.4659660000000  0.5677530000000  0.4773820000000 1.0
C      1  0.5305580000000  0.4324760000000  0.5143560000000 1.0
C      1  0.4241180000000  0.5092580000000  0.5143580000000 1.0
C      1  0.5408210000000  0.5554280000000  0.5158090000000 1.0
C      1  0.4414210000000  0.5114480000000  0.4710090000000 1.0
C      1  0.5379480000000  0.5410460000000  0.4703610000000 1.0
C      1  0.5162620000000  0.4487270000000  0.4729770000000 1.0
C      1  0.4724600000000  0.5267860000000  0.5528850000000 1.0
C      1  0.5402270000000  0.5082680000000  0.5494750000000 1.0
C      1  0.4893420000000  0.4630920000000  0.5489530000000 1.0
C      1  0.5458730000000  0.4526280000000  0.4743600000000 1.0
C      1  0.4330150000000  0.4826450000000  0.4753990000000 1.0
C      1  0.5170130000000  0.5624520000000  0.4752230000000 1.0
C      1  0.5678030000000  0.5147530000000  0.5483890000000 1.0
C      1  0.4801170000000  0.4362840000000  0.5499480000000 1.0
C      1  0.4510390000000  0.5456160000000  0.5462310000000 1.0
C      1  0.4384510000000  0.5272690000000  0.4957450000000 1.0
C      1  0.5452410000000  0.5303850000000  0.4984310000000 1.0
C      1  0.5064290000000  0.4393940000000  0.4986660000000 1.0
C      1  0.4606750000000  0.5633800000000  0.5248810000000 1.0
C      1  0.5765310000000  0.5008140000000  0.5250530000000 1.0
C      1  0.4631170000000  0.4350560000000  0.5269090000000 1.0
C      1  0.5724580000000  0.5157470000000  0.4996240000000 1.0
C      1  0.4776360000000  0.4310930000000  0.5010830000000 1.0
C      1  0.4494950000000  0.5562280000000  0.4979850000000 1.0
C      1  0.4962060000000  0.5323240000000  0.5347690000000 1.0
C      1  0.5339680000000  0.4874760000000  0.5290700000000 1.0
C      1  0.4696080000000  0.4796020000000  0.5334960000000 1.0
C      1  0.4906390000000  0.5602550000000  0.5248960000000 1.0
C      1  0.5606610000000  0.4757950000000  0.5220020000000 1.0
C      1  0.4477890000000  0.4606920000000  0.5251310000000 1.0
END
