TITL C-9256-7861-137 -1.7373419019213e-05 125000 -349.439516060397 0 0 60 (C1) n - 1
REM
REM in /home/bkarasulu/CARBON/AIRSS/Generating-Clusters/EDIP-Nigel-Params/Higher-Symm/Box-15A/Only-C60/SD-CG/HFTN-CG
REM
REM
REM
REM
REM
REM ./C.cell (414f73aa93bd7a1190c7fd0f31ff2f98)
REM
REM compiler GCC version 9.2.1 20190827 (Red Hat 9.2.1-1)
REM options -cpp -mtune=generic -march=x86-64 -g -O0 -fpre-include=/usr/include/finclude/math-vector-fortran.h
REM seed -1225292808 -915333478 -1839394017 73100577 1328215811 892984038 -1940836265 1630321140 -452927415 503490642 815521461 1893106055 1148942805 642196902 -185321025 -1569263056 -1658086839 -1796485596 -1313912621 1652307837 628643119 -1278651040 -1022230509 404383692 1914634801 591024062 326946057 235808033 2012605850 311710821 1007011130 1347542284 -1130169308
REM
CELL 1.54180   50.00000   50.00000   50.00000   90.00000   90.00000   90.00000
LATT -1
SFAC C  
C      1  0.4862300000000  0.4720560000000  0.4529530000000 1.0
C      1  0.4462340000000  0.4738720000000  0.4722140000000 1.0
C      1  0.4710410000000  0.4568610000000  0.4741800000000 1.0
C      1  0.4855980000000  0.5170870000000  0.5506350000000 1.0
C      1  0.5190210000000  0.5187940000000  0.4645230000000 1.0
C      1  0.5124520000000  0.4747240000000  0.5475070000000 1.0
C      1  0.4716380000000  0.5306780000000  0.5279380000000 1.0
C      1  0.5471090000000  0.5054390000000  0.4732610000000 1.0
C      1  0.5293710000000  0.4825610000000  0.5239140000000 1.0
C      1  0.4857140000000  0.5485950000000  0.5084380000000 1.0
C      1  0.5257930000000  0.5439780000000  0.4792910000000 1.0
C      1  0.5220110000000  0.4620890000000  0.5021490000000 1.0
C      1  0.5140910000000  0.4765140000000  0.4539650000000 1.0
C      1  0.5552090000000  0.4770800000000  0.4715140000000 1.0
C      1  0.5303150000000  0.4610350000000  0.4730280000000 1.0
C      1  0.5142010000000  0.5257310000000  0.5516770000000 1.0
C      1  0.4803540000000  0.5189100000000  0.4663630000000 1.0
C      1  0.4840790000000  0.4855530000000  0.5480940000000 1.0
C      1  0.5279040000000  0.5212310000000  0.5257680000000 1.0
C      1  0.4538560000000  0.5025550000000  0.4750190000000 1.0
C      1  0.4668600000000  0.4769680000000  0.5239960000000 1.0
C      1  0.5169120000000  0.5450320000000  0.5078760000000 1.0
C      1  0.4752170000000  0.5452560000000  0.4803000000000 1.0
C      1  0.4787830000000  0.4569490000000  0.5050140000000 1.0
C      1  0.5267340000000  0.4848170000000  0.4299460000000 1.0
C      1  0.4331780000000  0.5179530000000  0.4855910000000 1.0
C      1  0.4788380000000  0.4307370000000  0.5176430000000 1.0
C      1  0.5285240000000  0.5194750000000  0.5746990000000 1.0
C      1  0.4765160000000  0.5237870000000  0.4379120000000 1.0
C      1  0.4710740000000  0.4768120000000  0.5726750000000 1.0
C      1  0.4395150000000  0.4720540000000  0.5281370000000 1.0
C      1  0.5759770000000  0.4696410000000  0.4886380000000 1.0
C      1  0.5558340000000  0.5268530000000  0.5280410000000 1.0
C      1  0.4780530000000  0.5677710000000  0.4639460000000 1.0
C      1  0.5272500000000  0.5698120000000  0.5191230000000 1.0
C      1  0.5273830000000  0.4330330000000  0.4644730000000 1.0
C      1  0.4721030000000  0.4826540000000  0.4309580000000 1.0
C      1  0.5664410000000  0.5216390000000  0.4852880000000 1.0
C      1  0.5167710000000  0.4351900000000  0.5120400000000 1.0
C      1  0.4723560000000  0.5233500000000  0.5758020000000 1.0
C      1  0.5216680000000  0.5252410000000  0.4360760000000 1.0
C      1  0.5259460000000  0.4755330000000  0.5719360000000 1.0
C      1  0.5570560000000  0.4773900000000  0.5296240000000 1.0
C      1  0.4240260000000  0.4657340000000  0.4870200000000 1.0
C      1  0.4440330000000  0.5306120000000  0.5268460000000 1.0
C      1  0.5220990000000  0.5674820000000  0.4645300000000 1.0
C      1  0.4814110000000  0.5761700000000  0.5167420000000 1.0
C      1  0.4744320000000  0.4289970000000  0.4652030000000 1.0
C      1  0.4180720000000  0.4651890000000  0.5133140000000 1.0
C      1  0.5014410000000  0.4241010000000  0.4632080000000 1.0
C      1  0.4244380000000  0.5286140000000  0.5086720000000 1.0
C      1  0.5749770000000  0.5302900000000  0.5093660000000 1.0
C      1  0.5787480000000  0.4699520000000  0.5154140000000 1.0
C      1  0.5058490000000  0.5857020000000  0.5229390000000 1.0
C      1  0.5002830000000  0.5807690000000  0.4555860000000 1.0
C      1  0.5011880000000  0.4228230000000  0.5316850000000 1.0
C      1  0.4653210000000  0.4994400000000  0.5862090000000 1.0
C      1  0.5286500000000  0.5081300000000  0.4160000000000 1.0
C      1  0.4687840000000  0.5064920000000  0.4183110000000 1.0
C      1  0.5350380000000  0.4962130000000  0.5867890000000 1.0
END
