TITL C-9269-7444-103 -3.56282315986756e-06 125000 -366.407149296049 0 0 60 (C1) n - 1
REM
REM in /home/bkarasulu/CARBON/AIRSS/Generating-Clusters/EDIP-Nigel-Params/Higher-Symm/Box-15A/Only-C60/SD-CG/HFTN-CG
REM
REM
REM
REM
REM
REM ./C.cell (414f73aa93bd7a1190c7fd0f31ff2f98)
REM
REM compiler GCC version 9.2.1 20190827 (Red Hat 9.2.1-1)
REM options -cpp -mtune=generic -march=x86-64 -g -O0 -fpre-include=/usr/include/finclude/math-vector-fortran.h
REM seed -384406271 2125615400 -962338280 -1323378301 673089695 -497200027 -83023300 -1371458158 -1977187173 1941002058 -1670193581 -1775398363 618595478 -515409755 -487204140 1614659559 -260510869 753981891 -652395183 -112907097 -167238559 897478228 1127021566 1658521480 1085347308 188962937 -1325695377 -98237863 1716578091 2110229727 167323349 -2130489978 2118251212
REM
CELL 1.54180   50.00000   50.00000   50.00000   90.00000   90.00000   90.00000
LATT -1
SFAC C  
C      1  0.4664020000000  0.5001670000000  0.4401050000000 1.0
C      1  0.5329560000000  0.5063530000000  0.4291590000000 1.0
C      1  0.5592400000000  0.4948920000000  0.4686980000000 1.0
C      1  0.5555940000000  0.4981020000000  0.5509520000000 1.0
C      1  0.4968080000000  0.5014620000000  0.5742280000000 1.0
C      1  0.4399690000000  0.5004570000000  0.5374730000000 1.0
C      1  0.4421870000000  0.4965180000000  0.4879630000000 1.0
C      1  0.4578860000000  0.4840730000000  0.4639690000000 1.0
C      1  0.4965770000000  0.4964400000000  0.4376870000000 1.0
C      1  0.5449950000000  0.4849810000000  0.4454070000000 1.0
C      1  0.5511950000000  0.4839540000000  0.5246850000000 1.0
C      1  0.5236060000000  0.4897580000000  0.5606930000000 1.0
C      1  0.4733890000000  0.4930650000000  0.5544550000000 1.0
C      1  0.4409750000000  0.4819670000000  0.5146100000000 1.0
C      1  0.5263170000000  0.4632520000000  0.4540620000000 1.0
C      1  0.5369040000000  0.4581570000000  0.5284210000000 1.0
C      1  0.5218130000000  0.4603040000000  0.5539080000000 1.0
C      1  0.4727220000000  0.4643400000000  0.5464060000000 1.0
C      1  0.4624160000000  0.4624370000000  0.5194390000000 1.0
C      1  0.4821570000000  0.4660870000000  0.4692410000000 1.0
C      1  0.4996070000000  0.4679840000000  0.4451300000000 1.0
C      1  0.4796030000000  0.5592340000000  0.5190300000000 1.0
C      1  0.4570940000000  0.5634960000000  0.4995140000000 1.0
C      1  0.4681290000000  0.5642880000000  0.4720210000000 1.0
C      1  0.5071760000000  0.5628440000000  0.4726880000000 1.0
C      1  0.5369880000000  0.5578010000000  0.4813540000000 1.0
C      1  0.5400450000000  0.5539290000000  0.5108650000000 1.0
C      1  0.5167790000000  0.5570900000000  0.5304190000000 1.0
C      1  0.5177050000000  0.5354620000000  0.5508500000000 1.0
C      1  0.4705960000000  0.5367540000000  0.5366360000000 1.0
C      1  0.4402370000000  0.5379920000000  0.5040490000000 1.0
C      1  0.4622520000000  0.5360160000000  0.4656220000000 1.0
C      1  0.5095340000000  0.5436040000000  0.4487730000000 1.0
C      1  0.5510030000000  0.5380600000000  0.4634400000000 1.0
C      1  0.5551350000000  0.5291700000000  0.5167790000000 1.0
C      1  0.5051430000000  0.5146380000000  0.4628170000000 1.0
C      1  0.5249460000000  0.4969840000000  0.4826690000000 1.0
C      1  0.5356020000000  0.5065100000000  0.5118060000000 1.0
C      1  0.5146320000000  0.5106940000000  0.5346050000000 1.0
C      1  0.4843420000000  0.5098440000000  0.5304670000000 1.0
C      1  0.4788100000000  0.4995790000000  0.5020400000000 1.0
C      1  0.4839090000000  0.5227180000000  0.4825980000000 1.0
C      1  0.5028820000000  0.4229140000000  0.4756000000000 1.0
C      1  0.5276350000000  0.4412880000000  0.4742450000000 1.0
C      1  0.5372720000000  0.4299330000000  0.5018640000000 1.0
C      1  0.4958700000000  0.4472050000000  0.5501230000000 1.0
C      1  0.4896710000000  0.4223040000000  0.5216040000000 1.0
C      1  0.4686560000000  0.4368270000000  0.5063610000000 1.0
C      1  0.4766950000000  0.4376820000000  0.4777140000000 1.0
C      1  0.5631790000000  0.5248930000000  0.5442190000000 1.0
C      1  0.5012150000000  0.5299090000000  0.5738100000000 1.0
C      1  0.4426240000000  0.5291800000000  0.5319850000000 1.0
C      1  0.4261120000000  0.5209420000000  0.4858600000000 1.0
C      1  0.4584260000000  0.5271170000000  0.4391610000000 1.0
C      1  0.5361590000000  0.5344960000000  0.4382120000000 1.0
C      1  0.5722380000000  0.5197790000000  0.4678140000000 1.0
C      1  0.5087200000000  0.4551910000000  0.5120250000000 1.0
C      1  0.5112030000000  0.4122490000000  0.5032930000000 1.0
C      1  0.4992310000000  0.4783490000000  0.4921680000000 1.0
C      1  0.4984450000000  0.5455870000000  0.4980940000000 1.0
END
