TITL C-9270-2362-258 -1.11871465847561e-05 125000 -351.622450975129 0 0 60 (C1) n - 1
REM
REM in /home/bkarasulu/CARBON/AIRSS/Generating-Clusters/EDIP-Nigel-Params/Higher-Symm/Box-15A/Only-C60/SD-CG/HFTN-CG
REM
REM
REM
REM
REM
REM ./C.cell (414f73aa93bd7a1190c7fd0f31ff2f98)
REM
REM compiler GCC version 9.2.1 20190827 (Red Hat 9.2.1-1)
REM options -cpp -mtune=generic -march=x86-64 -g -O0 -fpre-include=/usr/include/finclude/math-vector-fortran.h
REM seed -1578926465 -328155805 1147089551 -1869962442 -367813493 903321120 1723053136 -253348039 1223648544 862348806 1645253080 -2045192172 1055668759 162023586 -253384787 444464156 590785503 -1606348204 297379581 -1069563079 -1098751648 -1734906569 851282608 1382525946 1994205515 -1278963406 -2010816768 -2106629885 -843002749 1012676292 -1054312447 507077912 -676121819
REM
CELL 1.54180   50.00000   50.00000   50.00000   90.00000   90.00000   90.00000
LATT -1
SFAC C  
C      1  0.4905490000000  0.5468830000000  0.4652130000000 1.0
C      1  0.4903290000000  0.4451670000000  0.4755260000000 1.0
C      1  0.4917600000000  0.5058590000000  0.5586700000000 1.0
C      1  0.5179310000000  0.5109660000000  0.4326680000000 1.0
C      1  0.5165750000000  0.4346490000000  0.5239090000000 1.0
C      1  0.5218250000000  0.5527030000000  0.5482050000000 1.0
C      1  0.5230950000000  0.4977000000000  0.4744850000000 1.0
C      1  0.5219420000000  0.4805420000000  0.5153010000000 1.0
C      1  0.5281580000000  0.5239380000000  0.5098660000000 1.0
C      1  0.5314460000000  0.5655400000000  0.5242080000000 1.0
C      1  0.5344790000000  0.4871390000000  0.4326880000000 1.0
C      1  0.5336750000000  0.4461610000000  0.5439570000000 1.0
C      1  0.4772340000000  0.5201830000000  0.5368800000000 1.0
C      1  0.4736920000000  0.5222990000000  0.4654950000000 1.0
C      1  0.4724370000000  0.4556750000000  0.4968880000000 1.0
C      1  0.5241390000000  0.4740880000000  0.4569040000000 1.0
C      1  0.5238080000000  0.4738550000000  0.5439740000000 1.0
C      1  0.5246760000000  0.5517300000000  0.4990420000000 1.0
C      1  0.5616720000000  0.4575580000000  0.4848340000000 1.0
C      1  0.5642340000000  0.5025010000000  0.5501730000000 1.0
C      1  0.5638500000000  0.5415510000000  0.4696380000000 1.0
C      1  0.5375280000000  0.5525760000000  0.4708130000000 1.0
C      1  0.5374790000000  0.4493610000000  0.4706320000000 1.0
C      1  0.5380580000000  0.4961750000000  0.5593380000000 1.0
C      1  0.4674920000000  0.5127920000000  0.4373490000000 1.0
C      1  0.4663000000000  0.4365490000000  0.5194800000000 1.0
C      1  0.4718470000000  0.5495960000000  0.5431050000000 1.0
C      1  0.5527770000000  0.4761320000000  0.5087810000000 1.0
C      1  0.5589680000000  0.5235850000000  0.5174900000000 1.0
C      1  0.5529700000000  0.5061720000000  0.4782860000000 1.0
C      1  0.4517660000000  0.5657760000000  0.5147440000000 1.0
C      1  0.4514160000000  0.4779990000000  0.4359320000000 1.0
C      1  0.4502140000000  0.4564420000000  0.5480330000000 1.0
C      1  0.4508290000000  0.5060640000000  0.5314640000000 1.0
C      1  0.4471520000000  0.5278580000000  0.4790610000000 1.0
C      1  0.4462200000000  0.4660020000000  0.4856470000000 1.0
C      1  0.4964020000000  0.5665780000000  0.5463560000000 1.0
C      1  0.4916880000000  0.5035430000000  0.4219620000000 1.0
C      1  0.4903460000000  0.4292720000000  0.5358360000000 1.0
C      1  0.4955660000000  0.4770430000000  0.5510140000000 1.0
C      1  0.4960970000000  0.5563470000000  0.4927150000000 1.0
C      1  0.4957760000000  0.4666380000000  0.4555130000000 1.0
C      1  0.5167650000000  0.5410120000000  0.4525290000000 1.0
C      1  0.5161840000000  0.4375280000000  0.4882150000000 1.0
C      1  0.5184920000000  0.5183250000000  0.5611070000000 1.0
C      1  0.4928760000000  0.5014390000000  0.4831650000000 1.0
C      1  0.4898880000000  0.4797340000000  0.5074960000000 1.0
C      1  0.4975560000000  0.5170360000000  0.5116260000000 1.0
C      1  0.4806300000000  0.4756020000000  0.4312810000000 1.0
C      1  0.4788960000000  0.4520360000000  0.5542340000000 1.0
C      1  0.4803200000000  0.5721760000000  0.5121460000000 1.0
C      1  0.5704520000000  0.4830000000000  0.4745250000000 1.0
C      1  0.5707890000000  0.4955700000000  0.5231380000000 1.0
C      1  0.5746030000000  0.5343410000000  0.4947880000000 1.0
C      1  0.4190530000000  0.4677940000000  0.4753800000000 1.0
C      1  0.4227950000000  0.4984020000000  0.5329360000000 1.0
C      1  0.4190930000000  0.5309130000000  0.4833910000000 1.0
C      1  0.4398400000000  0.4618500000000  0.4565980000000 1.0
C      1  0.4411090000000  0.4837290000000  0.5493330000000 1.0
C      1  0.4362620000000  0.5503290000000  0.4960370000000 1.0
END
