TITL C-9268-6400-240 6.25289594057516e-06 125000 -364.863613138749 0 0 60 (C2) n - 1
REM
REM in /home/bkarasulu/CARBON/AIRSS/Generating-Clusters/EDIP-Nigel-Params/Higher-Symm/Box-15A/Only-C60/SD-CG/HFTN-CG
REM
REM
REM
REM
REM
REM ./C.cell (414f73aa93bd7a1190c7fd0f31ff2f98)
REM
REM compiler GCC version 9.2.1 20190827 (Red Hat 9.2.1-1)
REM options -cpp -mtune=generic -march=x86-64 -g -O0 -fpre-include=/usr/include/finclude/math-vector-fortran.h
REM seed -1019600981 -2037168852 -1963414133 -674586276 -1533735363 -762834565 -837188852 -250728703 -717835570 103947462 1537150954 -1927573997 -2043459990 1825957993 -194084324 -896521530 1490764227 -1965232977 1281567990 -1752504560 513385551 -60917044 -179717184 264517043 359765634 888427531 1871085641 -1526178525 -1001182883 -1961741371 -205724037 648981423 1801327557
REM
CELL 1.54180   50.00000   50.00000   50.00000   90.00000   90.00000   90.00000
LATT -1
SFAC C  
C      1  0.4916060000000  0.5192520000000  0.4621410000000 1.0
C      1  0.5085980000000  0.5186830000000  0.5380970000000 1.0
C      1  0.5684000000000  0.5442280000000  0.4862920000000 1.0
C      1  0.4320800000000  0.5447870000000  0.5142670000000 1.0
C      1  0.5335660000000  0.4711240000000  0.4727130000000 1.0
C      1  0.4661230000000  0.4711460000000  0.5269240000000 1.0
C      1  0.4720460000000  0.5680400000000  0.4986540000000 1.0
C      1  0.5286850000000  0.5677130000000  0.5021990000000 1.0
C      1  0.5719870000000  0.5199420000000  0.5023930000000 1.0
C      1  0.4282320000000  0.5207440000000  0.4978620000000 1.0
C      1  0.5516940000000  0.4524070000000  0.5207460000000 1.0
C      1  0.4477980000000  0.4532320000000  0.4786610000000 1.0
C      1  0.5356770000000  0.5146950000000  0.4921650000000 1.0
C      1  0.4644830000000  0.5149780000000  0.5080220000000 1.0
C      1  0.5562880000000  0.5641920000000  0.5017790000000 1.0
C      1  0.4444070000000  0.5648120000000  0.4990320000000 1.0
C      1  0.4962780000000  0.4712560000000  0.5160410000000 1.0
C      1  0.5034140000000  0.4714220000000  0.4835990000000 1.0
C      1  0.5225160000000  0.5223290000000  0.4648660000000 1.0
C      1  0.4777230000000  0.5221270000000  0.5354130000000 1.0
C      1  0.4409000000000  0.5427820000000  0.5424590000000 1.0
C      1  0.5595610000000  0.5426730000000  0.4580780000000 1.0
C      1  0.5102860000000  0.4249760000000  0.5096170000000 1.0
C      1  0.4889070000000  0.4252180000000  0.4894420000000 1.0
C      1  0.5125970000000  0.5614520000000  0.5257030000000 1.0
C      1  0.4880670000000  0.5619020000000  0.4750730000000 1.0
C      1  0.5025090000000  0.4275830000000  0.5371940000000 1.0
C      1  0.4967140000000  0.4280880000000  0.4618990000000 1.0
C      1  0.4465730000000  0.4897250000000  0.5128220000000 1.0
C      1  0.5533150000000  0.4893120000000  0.4870460000000 1.0
C      1  0.5377890000000  0.4590560000000  0.5453900000000 1.0
C      1  0.4617750000000  0.4600390000000  0.4541020000000 1.0
C      1  0.4393610000000  0.4999680000000  0.4674230000000 1.0
C      1  0.5606330000000  0.4989050000000  0.5325700000000 1.0
C      1  0.4677650000000  0.4832000000000  0.5549820000000 1.0
C      1  0.5320550000000  0.4835460000000  0.4448090000000 1.0
C      1  0.5641040000000  0.4779270000000  0.5124880000000 1.0
C      1  0.4356630000000  0.4787780000000  0.4872400000000 1.0
C      1  0.4600050000000  0.5119090000000  0.5564830000000 1.0
C      1  0.5401250000000  0.5121870000000  0.4436680000000 1.0
C      1  0.4657980000000  0.5575760000000  0.5461090000000 1.0
C      1  0.5348240000000  0.5577790000000  0.4546160000000 1.0
C      1  0.4568980000000  0.4432170000000  0.5255380000000 1.0
C      1  0.5424900000000  0.4430810000000  0.4737470000000 1.0
C      1  0.4959140000000  0.4757000000000  0.5625800000000 1.0
C      1  0.5038280000000  0.4764460000000  0.4371190000000 1.0
C      1  0.4909510000000  0.4567840000000  0.4581880000000 1.0
C      1  0.5085800000000  0.4561670000000  0.5412650000000 1.0
C      1  0.5126530000000  0.5060830000000  0.5097110000000 1.0
C      1  0.4874140000000  0.5063400000000  0.4903670000000 1.0
C      1  0.4565320000000  0.4881470000000  0.4464440000000 1.0
C      1  0.5433340000000  0.4870070000000  0.5534000000000 1.0
C      1  0.4840990000000  0.4993830000000  0.4404530000000 1.0
C      1  0.5158890000000  0.4984630000000  0.5595330000000 1.0
C      1  0.4777190000000  0.5445590000000  0.4561790000000 1.0
C      1  0.5227570000000  0.5437620000000  0.5443760000000 1.0
C      1  0.4631920000000  0.4372970000000  0.4983510000000 1.0
C      1  0.5361300000000  0.4368890000000  0.5008580000000 1.0
C      1  0.5168570000000  0.5645560000000  0.4763820000000 1.0
C      1  0.4838380000000  0.5644320000000  0.5244290000000 1.0
END
