TITL C-9255-4564-25 -3.01757609210348e-06 125000 -357.687129605486 0 0 60 (C1) n - 1
REM
REM in /home/bkarasulu/CARBON/AIRSS/Generating-Clusters/EDIP-Nigel-Params/Higher-Symm/Box-15A/Only-C60/SD-CG/HFTN-CG
REM
REM
REM
REM
REM
REM ./C.cell (414f73aa93bd7a1190c7fd0f31ff2f98)
REM
REM compiler GCC version 9.2.1 20190827 (Red Hat 9.2.1-1)
REM options -cpp -mtune=generic -march=x86-64 -g -O0 -fpre-include=/usr/include/finclude/math-vector-fortran.h
REM seed -20428169 -162371991 157449193 -671900875 -211156998 812740155 419932349 -778409192 291534720 -2025135351 1077940844 -629384751 -1859150824 -1793581256 -1392413565 1062481307 -316888652 -1789315812 -1646240184 1326354695 -130060200 -1364583309 2142816733 -1139688857 -566274099 -650041932 -1062953571 1411403336 39358304 -1211958356 960107945 -650875216 -638187196
REM
CELL 1.54180   50.00000   50.00000   50.00000   90.00000   90.00000   90.00000
LATT -1
SFAC C  
C      1  0.5029930000000  0.5697910000000  0.5200500000000 1.0
C      1  0.4881000000000  0.5373540000000  0.5829310000000 1.0
C      1  0.5009340000000  0.4674690000000  0.5678990000000 1.0
C      1  0.4923200000000  0.4168670000000  0.5183880000000 1.0
C      1  0.4960600000000  0.4333580000000  0.4469220000000 1.0
C      1  0.4956560000000  0.4983230000000  0.4171330000000 1.0
C      1  0.4922310000000  0.5660800000000  0.4463560000000 1.0
C      1  0.5361550000000  0.5405550000000  0.5668890000000 1.0
C      1  0.5427020000000  0.4877290000000  0.5516290000000 1.0
C      1  0.5388440000000  0.4392050000000  0.5245350000000 1.0
C      1  0.5402380000000  0.4471480000000  0.4694350000000 1.0
C      1  0.5385120000000  0.4940370000000  0.4408630000000 1.0
C      1  0.5383190000000  0.5494490000000  0.4508570000000 1.0
C      1  0.5450820000000  0.5452700000000  0.5061210000000 1.0
C      1  0.5118520000000  0.4397530000000  0.4697820000000 1.0
C      1  0.5108750000000  0.4875210000000  0.4381420000000 1.0
C      1  0.5106310000000  0.5448760000000  0.4453530000000 1.0
C      1  0.5178290000000  0.5530030000000  0.5018120000000 1.0
C      1  0.5079850000000  0.5453720000000  0.5652140000000 1.0
C      1  0.5148020000000  0.4901330000000  0.5591800000000 1.0
C      1  0.5106340000000  0.4377510000000  0.5239310000000 1.0
C      1  0.5497950000000  0.4680040000000  0.5201510000000 1.0
C      1  0.5566750000000  0.4509460000000  0.4935680000000 1.0
C      1  0.5504990000000  0.4827800000000  0.4637980000000 1.0
C      1  0.5542930000000  0.5259580000000  0.4567940000000 1.0
C      1  0.5601940000000  0.5419440000000  0.4816770000000 1.0
C      1  0.5513000000000  0.5371930000000  0.5423510000000 1.0
C      1  0.5581480000000  0.5116580000000  0.5537520000000 1.0
C      1  0.4448410000000  0.5135400000000  0.4695550000000 1.0
C      1  0.4571620000000  0.5223930000000  0.4955640000000 1.0
C      1  0.4432190000000  0.5262400000000  0.5221970000000 1.0
C      1  0.4438820000000  0.4992320000000  0.5335040000000 1.0
C      1  0.4554430000000  0.4801970000000  0.5127300000000 1.0
C      1  0.4429870000000  0.4663660000000  0.4890720000000 1.0
C      1  0.4426690000000  0.4838990000000  0.4651860000000 1.0
C      1  0.4698050000000  0.5548420000000  0.4593710000000 1.0
C      1  0.4743070000000  0.5639600000000  0.5162270000000 1.0
C      1  0.4664560000000  0.5291540000000  0.5667040000000 1.0
C      1  0.4752290000000  0.4697840000000  0.5569710000000 1.0
C      1  0.4681710000000  0.4309520000000  0.5132230000000 1.0
C      1  0.4697020000000  0.4437940000000  0.4502920000000 1.0
C      1  0.4696970000000  0.4999790000000  0.4278880000000 1.0
C      1  0.4987510000000  0.5223640000000  0.4616540000000 1.0
C      1  0.5001300000000  0.5332940000000  0.4901860000000 1.0
C      1  0.4991080000000  0.5376270000000  0.5388620000000 1.0
C      1  0.4970980000000  0.5061270000000  0.5409280000000 1.0
C      1  0.4993920000000  0.4634540000000  0.5141730000000 1.0
C      1  0.4943680000000  0.4593260000000  0.4837290000000 1.0
C      1  0.4927600000000  0.4844490000000  0.4626100000000 1.0
C      1  0.4641010000000  0.4445740000000  0.4836220000000 1.0
C      1  0.4662260000000  0.4759870000000  0.4480350000000 1.0
C      1  0.4658850000000  0.5236210000000  0.4494770000000 1.0
C      1  0.4738420000000  0.5467390000000  0.4901240000000 1.0
C      1  0.4610470000000  0.5446440000000  0.5388670000000 1.0
C      1  0.4665380000000  0.4998490000000  0.5539560000000 1.0
C      1  0.4718530000000  0.4595350000000  0.5276050000000 1.0
C      1  0.4747100000000  0.4986320000000  0.4999670000000 1.0
C      1  0.5450100000000  0.5006200000000  0.4849390000000 1.0
C      1  0.5023640000000  0.4956240000000  0.5135040000000 1.0
C      1  0.5332240000000  0.4916070000000  0.5087680000000 1.0
END
