TITL C-9265-7156-57 -1.05043178569149e-05 125000 -364.380759052532 0 0 60 (C1) n - 1
REM
REM in /home/bkarasulu/CARBON/AIRSS/Generating-Clusters/EDIP-Nigel-Params/Higher-Symm/Box-15A/Only-C60/SD-CG/HFTN-CG
REM
REM
REM
REM
REM
REM ./C.cell (414f73aa93bd7a1190c7fd0f31ff2f98)
REM
REM compiler GCC version 9.2.1 20190827 (Red Hat 9.2.1-1)
REM options -cpp -mtune=generic -march=x86-64 -g -O0 -fpre-include=/usr/include/finclude/math-vector-fortran.h
REM seed -1797935559 360807856 1732691280 877177201 -1704676056 -2114906657 2076161718 1314509478 -1518806690 1686241393 1245204503 -1396954519 -1738896056 1642149805 -62902229 -1131329485 -1333511026 -52584594 2046456749 -860665566 -671804262 -1757578537 84965960 567180918 1422610102 -2060627108 134207229 -2114628888 1816554497 743606691 466558738 -204559398 -1087748213
REM
CELL 1.54180   50.00000   50.00000   50.00000   90.00000   90.00000   90.00000
LATT -1
SFAC C  
C      1  0.4704160000000  0.4697710000000  0.5658720000000 1.0
C      1  0.5260140000000  0.5291070000000  0.5673560000000 1.0
C      1  0.4716560000000  0.5543980000000  0.5375250000000 1.0
C      1  0.5250570000000  0.4468490000000  0.5343210000000 1.0
C      1  0.4570300000000  0.5133140000000  0.5583560000000 1.0
C      1  0.5337860000000  0.4869160000000  0.5507940000000 1.0
C      1  0.4646510000000  0.4573020000000  0.5179170000000 1.0
C      1  0.5409010000000  0.5570470000000  0.5176200000000 1.0
C      1  0.5318670000000  0.4718750000000  0.4490480000000 1.0
C      1  0.4745340000000  0.5257160000000  0.4576390000000 1.0
C      1  0.5128820000000  0.5461560000000  0.5212530000000 1.0
C      1  0.4922250000000  0.4694460000000  0.5157550000000 1.0
C      1  0.4944160000000  0.4856410000000  0.4884150000000 1.0
C      1  0.5149380000000  0.5058890000000  0.4911310000000 1.0
C      1  0.4887890000000  0.4450550000000  0.4481580000000 1.0
C      1  0.5099320000000  0.5510310000000  0.4487950000000 1.0
C      1  0.4846450000000  0.4876370000000  0.4272190000000 1.0
C      1  0.5158360000000  0.5105980000000  0.4254440000000 1.0
C      1  0.5537040000000  0.5030590000000  0.5365860000000 1.0
C      1  0.4398060000000  0.4972910000000  0.5399830000000 1.0
C      1  0.5715780000000  0.5131050000000  0.4881880000000 1.0
C      1  0.4283800000000  0.4873500000000  0.4890320000000 1.0
C      1  0.5138100000000  0.5532850000000  0.4774160000000 1.0
C      1  0.4859540000000  0.4437180000000  0.4768570000000 1.0
C      1  0.4383040000000  0.4608710000000  0.4762750000000 1.0
C      1  0.5617510000000  0.5388560000000  0.4748620000000 1.0
C      1  0.4859280000000  0.4973460000000  0.4565810000000 1.0
C      1  0.5181570000000  0.4983280000000  0.4536600000000 1.0
C      1  0.5160740000000  0.4493230000000  0.4421350000000 1.0
C      1  0.4833390000000  0.5465930000000  0.4405250000000 1.0
C      1  0.4553970000000  0.5409470000000  0.5553970000000 1.0
C      1  0.5399560000000  0.4596710000000  0.5543170000000 1.0
C      1  0.5549410000000  0.4975580000000  0.5074590000000 1.0
C      1  0.4422010000000  0.5029330000000  0.5105990000000 1.0
C      1  0.5504190000000  0.4700600000000  0.4961920000000 1.0
C      1  0.4485290000000  0.5297580000000  0.4992890000000 1.0
C      1  0.4322680000000  0.5027500000000  0.4639500000000 1.0
C      1  0.5706410000000  0.4969580000000  0.4632830000000 1.0
C      1  0.4864620000000  0.4470590000000  0.5637960000000 1.0
C      1  0.5072570000000  0.5495430000000  0.5712920000000 1.0
C      1  0.4449690000000  0.4696460000000  0.4489110000000 1.0
C      1  0.5546630000000  0.5285880000000  0.4482790000000 1.0
C      1  0.4993320000000  0.5572940000000  0.5456460000000 1.0
C      1  0.4982420000000  0.4399120000000  0.5399530000000 1.0
C      1  0.5409150000000  0.5556200000000  0.4884950000000 1.0
C      1  0.4603430000000  0.4474820000000  0.4910200000000 1.0
C      1  0.5164260000000  0.5140370000000  0.5202180000000 1.0
C      1  0.4946670000000  0.4954630000000  0.5317550000000 1.0
C      1  0.5300560000000  0.5352310000000  0.4335630000000 1.0
C      1  0.4695450000000  0.4631450000000  0.4339690000000 1.0
C      1  0.5161950000000  0.5016020000000  0.5698570000000 1.0
C      1  0.4834280000000  0.4967190000000  0.5601730000000 1.0
C      1  0.4474280000000  0.5271800000000  0.4694850000000 1.0
C      1  0.5560990000000  0.4714070000000  0.4665450000000 1.0
C      1  0.4906140000000  0.5608810000000  0.4931160000000 1.0
C      1  0.5099870000000  0.4387100000000  0.4906730000000 1.0
C      1  0.4466990000000  0.4697130000000  0.5480210000000 1.0
C      1  0.5451480000000  0.5300220000000  0.5444410000000 1.0
C      1  0.4703960000000  0.5471640000000  0.5093390000000 1.0
C      1  0.5304180000000  0.4500740000000  0.5062500000000 1.0
END
