TITL C-9259-5960-266 -1.33584787984035e-06 125000 -359.120099705602 0 0 60 (C1) n - 1
REM
REM in /home/bkarasulu/CARBON/AIRSS/Generating-Clusters/EDIP-Nigel-Params/Higher-Symm/Box-15A/Only-C60/SD-CG/HFTN-CG
REM
REM
REM
REM
REM
REM ./C.cell (414f73aa93bd7a1190c7fd0f31ff2f98)
REM
REM compiler GCC version 9.2.1 20190827 (Red Hat 9.2.1-1)
REM options -cpp -mtune=generic -march=x86-64 -g -O0 -fpre-include=/usr/include/finclude/math-vector-fortran.h
REM seed -1677491110 1888017419 -503748722 1321571891 -1566203840 -2076004800 -1740784385 1105480113 -456797591 357253218 -222680331 573794293 1487080885 -2117381514 154754903 2023588371 1762864942 1889035500 -2112876830 705613422 1336574818 302237931 -1952866850 377452172 -2147301022 1959624596 -669310027 1049549153 776918470 -1389794385 -1158369444 -1484185622 329595283
REM
CELL 1.54180   50.00000   50.00000   50.00000   90.00000   90.00000   90.00000
LATT -1
SFAC C  
C      1  0.4555630000000  0.5005800000000  0.5192500000000 1.0
C      1  0.5280440000000  0.4551070000000  0.4976130000000 1.0
C      1  0.5146150000000  0.5297540000000  0.4521270000000 1.0
C      1  0.5498870000000  0.4973130000000  0.5208450000000 1.0
C      1  0.5471580000000  0.4971170000000  0.4726130000000 1.0
C      1  0.4484130000000  0.4823310000000  0.4716340000000 1.0
C      1  0.4664870000000  0.5527860000000  0.5114920000000 1.0
C      1  0.4738510000000  0.4519240000000  0.5027480000000 1.0
C      1  0.5187780000000  0.5490700000000  0.5031740000000 1.0
C      1  0.5002240000000  0.4791140000000  0.4564400000000 1.0
C      1  0.4940830000000  0.5280240000000  0.5415730000000 1.0
C      1  0.5015280000000  0.4784660000000  0.5421070000000 1.0
C      1  0.4978000000000  0.4534670000000  0.5224930000000 1.0
C      1  0.4510480000000  0.5274140000000  0.5060810000000 1.0
C      1  0.5228640000000  0.5004010000000  0.4534330000000 1.0
C      1  0.4945840000000  0.5515950000000  0.5230430000000 1.0
C      1  0.5128520000000  0.5516960000000  0.4733560000000 1.0
C      1  0.5037660000000  0.4559630000000  0.4786350000000 1.0
C      1  0.5503310000000  0.4778360000000  0.4952150000000 1.0
C      1  0.4528410000000  0.4759550000000  0.5004750000000 1.0
C      1  0.5407060000000  0.5232170000000  0.5079750000000 1.0
C      1  0.4721360000000  0.4900310000000  0.4563960000000 1.0
C      1  0.5308380000000  0.4870680000000  0.5432830000000 1.0
C      1  0.4809410000000  0.5013270000000  0.5404440000000 1.0
C      1  0.5601070000000  0.5434820000000  0.5180550000000 1.0
C      1  0.5096730000000  0.5683270000000  0.5512220000000 1.0
C      1  0.5441600000000  0.5041410000000  0.5643050000000 1.0
C      1  0.4318720000000  0.4577950000000  0.5154180000000 1.0
C      1  0.4327560000000  0.5414060000000  0.4854650000000 1.0
C      1  0.5697300000000  0.4548390000000  0.4827850000000 1.0
C      1  0.4877650000000  0.4365820000000  0.5471720000000 1.0
C      1  0.4924320000000  0.5677080000000  0.4557470000000 1.0
C      1  0.5105300000000  0.4358890000000  0.4561570000000 1.0
C      1  0.4606040000000  0.4949920000000  0.5630700000000 1.0
C      1  0.4591430000000  0.5062590000000  0.4360250000000 1.0
C      1  0.5410750000000  0.4886650000000  0.4297310000000 1.0
C      1  0.5415290000000  0.5668280000000  0.5160550000000 1.0
C      1  0.5682000000000  0.5107170000000  0.5469100000000 1.0
C      1  0.5075940000000  0.5407350000000  0.5639240000000 1.0
C      1  0.4521910000000  0.4349340000000  0.5175370000000 1.0
C      1  0.5470260000000  0.4346110000000  0.4848930000000 1.0
C      1  0.4511900000000  0.5676140000000  0.4880400000000 1.0
C      1  0.4371710000000  0.4940510000000  0.5434860000000 1.0
C      1  0.5647720000000  0.4866220000000  0.4498520000000 1.0
C      1  0.4322140000000  0.5070420000000  0.4485160000000 1.0
C      1  0.4911620000000  0.4607730000000  0.5655750000000 1.0
C      1  0.5073540000000  0.4574700000000  0.4346060000000 1.0
C      1  0.4942130000000  0.5442920000000  0.4340780000000 1.0
C      1  0.5366260000000  0.4258090000000  0.4600830000000 1.0
C      1  0.4706300000000  0.5304290000000  0.4282260000000 1.0
C      1  0.4671770000000  0.5740500000000  0.4660050000000 1.0
C      1  0.5310950000000  0.4638300000000  0.4207520000000 1.0
C      1  0.4668920000000  0.4707460000000  0.5760420000000 1.0
C      1  0.4246810000000  0.4689560000000  0.5403500000000 1.0
C      1  0.4609860000000  0.4283470000000  0.5435210000000 1.0
C      1  0.5344770000000  0.5769520000000  0.5413920000000 1.0
C      1  0.5303640000000  0.5271480000000  0.5729370000000 1.0
C      1  0.5723150000000  0.5383420000000  0.5430380000000 1.0
C      1  0.5756720000000  0.4611570000000  0.4558960000000 1.0
C      1  0.4252830000000  0.5309040000000  0.4606880000000 1.0
END
