TITL C-9261-551-240 1.77142369345959e-05 125000 -373.138551632541 0 0 60 (C1) n - 1
REM
REM in /home/bkarasulu/CARBON/AIRSS/Generating-Clusters/EDIP-Nigel-Params/Higher-Symm/Box-15A/Only-C60/SD-CG/HFTN-CG
REM
REM
REM
REM
REM
REM ./C.cell (414f73aa93bd7a1190c7fd0f31ff2f98)
REM
REM compiler GCC version 9.2.1 20190827 (Red Hat 9.2.1-1)
REM options -cpp -mtune=generic -march=x86-64 -g -O0 -fpre-include=/usr/include/finclude/math-vector-fortran.h
REM seed 189535493 1018117688 -1531844342 -1267436755 -1571326832 2008328304 -1560540022 1450632258 -1557281898 151402812 -119375335 1585211766 -1838406061 764485718 -1708921200 -674840024 -2083233503 546460198 315780992 -1904238462 2111058277 1221513552 1481755352 1003412454 1180377519 692687361 1201985941 -1126772779 -1646055809 -1530673096 416310410 -270374154 -643252985
REM
CELL 1.54180   50.00000   50.00000   50.00000   90.00000   90.00000   90.00000
LATT -1
SFAC C  
C      1  0.5102430000000  0.5700490000000  0.5345590000000 1.0
C      1  0.5085030000000  0.5513910000000  0.4546140000000 1.0
C      1  0.5086650000000  0.4627040000000  0.4303300000000 1.0
C      1  0.5139390000000  0.4321030000000  0.5075580000000 1.0
C      1  0.5115210000000  0.4833340000000  0.5678230000000 1.0
C      1  0.5138250000000  0.4416460000000  0.5353360000000 1.0
C      1  0.5105950000000  0.4475570000000  0.4546460000000 1.0
C      1  0.5063110000000  0.5357230000000  0.4306060000000 1.0
C      1  0.5097280000000  0.5681930000000  0.5058930000000 1.0
C      1  0.5077200000000  0.5103080000000  0.5770900000000 1.0
C      1  0.4554040000000  0.5375160000000  0.5218150000000 1.0
C      1  0.4520550000000  0.5445210000000  0.4709220000000 1.0
C      1  0.4538510000000  0.4835410000000  0.4633520000000 1.0
C      1  0.4562030000000  0.4484240000000  0.5017620000000 1.0
C      1  0.4566140000000  0.4842370000000  0.5436490000000 1.0
C      1  0.4517910000000  0.4600740000000  0.5281250000000 1.0
C      1  0.4531690000000  0.4564010000000  0.4737730000000 1.0
C      1  0.4510940000000  0.5167290000000  0.4619230000000 1.0
C      1  0.4511840000000  0.5542210000000  0.4984630000000 1.0
C      1  0.4488300000000  0.5119960000000  0.5401360000000 1.0
C      1  0.5397940000000  0.4504840000000  0.5461200000000 1.0
C      1  0.5283600000000  0.5276090000000  0.5678360000000 1.0
C      1  0.5355140000000  0.5640000000000  0.4934920000000 1.0
C      1  0.5273420000000  0.5168810000000  0.4275030000000 1.0
C      1  0.5371870000000  0.4424260000000  0.4646390000000 1.0
C      1  0.5338570000000  0.5596700000000  0.5471340000000 1.0
C      1  0.5385990000000  0.4730620000000  0.5646100000000 1.0
C      1  0.5389260000000  0.4349330000000  0.4926770000000 1.0
C      1  0.5316740000000  0.4786760000000  0.4238880000000 1.0
C      1  0.5350000000000  0.5554090000000  0.4658780000000 1.0
C      1  0.4809370000000  0.5276780000000  0.4224620000000 1.0
C      1  0.4887450000000  0.4312530000000  0.4643550000000 1.0
C      1  0.4906290000000  0.4417050000000  0.5539420000000 1.0
C      1  0.4816570000000  0.5202310000000  0.5781310000000 1.0
C      1  0.4875370000000  0.5782700000000  0.4899140000000 1.0
C      1  0.4836070000000  0.4726080000000  0.4232680000000 1.0
C      1  0.4872910000000  0.5697440000000  0.4618750000000 1.0
C      1  0.4863350000000  0.5673970000000  0.5485270000000 1.0
C      1  0.4902940000000  0.4643940000000  0.5723920000000 1.0
C      1  0.4907570000000  0.4224880000000  0.4922950000000 1.0
C      1  0.5527240000000  0.5415350000000  0.5333560000000 1.0
C      1  0.5536330000000  0.5330570000000  0.4674960000000 1.0
C      1  0.5524750000000  0.4843210000000  0.4441520000000 1.0
C      1  0.5600240000000  0.4528660000000  0.5011420000000 1.0
C      1  0.5574510000000  0.4909350000000  0.5506840000000 1.0
C      1  0.5607980000000  0.4604970000000  0.5283790000000 1.0
C      1  0.5567700000000  0.4638990000000  0.4643260000000 1.0
C      1  0.5450800000000  0.5121780000000  0.4496510000000 1.0
C      1  0.5537320000000  0.5442690000000  0.5044090000000 1.0
C      1  0.5453060000000  0.5168720000000  0.5472760000000 1.0
C      1  0.4646690000000  0.4759100000000  0.5693300000000 1.0
C      1  0.4621350000000  0.5534270000000  0.5469510000000 1.0
C      1  0.4608940000000  0.5641700000000  0.4522880000000 1.0
C      1  0.4602480000000  0.4842880000000  0.4335370000000 1.0
C      1  0.4651440000000  0.4215220000000  0.5047420000000 1.0
C      1  0.4583100000000  0.5287820000000  0.5648540000000 1.0
C      1  0.4634690000000  0.4403690000000  0.5450480000000 1.0
C      1  0.4621900000000  0.4365590000000  0.4556870000000 1.0
C      1  0.4582310000000  0.5143920000000  0.4322390000000 1.0
C      1  0.4614310000000  0.5805640000000  0.5011390000000 1.0
END
