TITL C-9263-351-220 0.126285198208752 125000 -357.076361583587 0 0 60 (C1) n - 1
REM
REM in /home/bkarasulu/CARBON/AIRSS/Generating-Clusters/EDIP-Nigel-Params/Higher-Symm/Box-15A/Only-C60/SD-CG/HFTN-CG
REM
REM
REM
REM
REM
REM ./C.cell (414f73aa93bd7a1190c7fd0f31ff2f98)
REM
REM compiler GCC version 9.2.1 20190827 (Red Hat 9.2.1-1)
REM options -cpp -mtune=generic -march=x86-64 -g -O0 -fpre-include=/usr/include/finclude/math-vector-fortran.h
REM seed -1505555861 -1525452857 -2001891857 925697277 890310989 562675515 -959147257 2069740265 -1627166726 962251795 -1384439947 -1039016402 -1223936543 723505252 -370829830 -895136214 -2036974939 676702675 -1020971877 1677540372 2066716438 -2099939182 -1945128196 826306505 -628347614 1035349352 -520203623 194967538 2106875068 839261187 -116447404 -1027642713 225204488
REM
CELL 1.54180   50.00000   50.00000   50.00000   90.00000   90.00000   90.00000
LATT -1
SFAC C  
C      1  0.5159970000000  0.5196300000000  0.4335820000000 1.0
C      1  0.5012030000000  0.5353720000000  0.4165980000000 1.0
C      1  0.4901210000000  0.5413130000000  0.3932510000000 1.0
C      1  0.4847910000000  0.5347030000000  0.3681450000000 1.0
C      1  0.4876950000000  0.5161900000000  0.3493620000000 1.0
C      1  0.4983710000000  0.4922570000000  0.3450880000000 1.0
C      1  0.5122730000000  0.4734670000000  0.3576850000000 1.0
C      1  0.5232600000000  0.4678370000000  0.3811710000000 1.0
C      1  0.5274600000000  0.4764130000000  0.4058940000000 1.0
C      1  0.5243720000000  0.4951080000000  0.4244420000000 1.0
C      1  0.4744460000000  0.5380110000000  0.5722020000000 1.0
C      1  0.4679420000000  0.5143790000000  0.5853220000000 1.0
C      1  0.4684910000000  0.4873610000000  0.5788960000000 1.0
C      1  0.4888960000000  0.4724210000000  0.5899480000000 1.0
C      1  0.5150240000000  0.4673750000000  0.5878050000000 1.0
C      1  0.5367440000000  0.4740740000000  0.5721110000000 1.0
C      1  0.5458430000000  0.4999930000000  0.5752210000000 1.0
C      1  0.5419320000000  0.5237850000000  0.5617260000000 1.0
C      1  0.5250910000000  0.5422240000000  0.5734700000000 1.0
C      1  0.4994740000000  0.5480320000000  0.5782780000000 1.0
C      1  0.4758260000000  0.5294150000000  0.4717520000000 1.0
C      1  0.4515670000000  0.5263210000000  0.4869110000000 1.0
C      1  0.4368880000000  0.5007170000000  0.4882880000000 1.0
C      1  0.4517270000000  0.4762360000000  0.4956370000000 1.0
C      1  0.4714180000000  0.4618090000000  0.4792660000000 1.0
C      1  0.5089530000000  0.4552450000000  0.4790770000000 1.0
C      1  0.5341980000000  0.4631770000000  0.4905330000000 1.0
C      1  0.5491250000000  0.4861540000000  0.4809430000000 1.0
C      1  0.5371020000000  0.5129880000000  0.4791260000000 1.0
C      1  0.5131120000000  0.5237340000000  0.4627590000000 1.0
C      1  0.4619580000000  0.4825870000000  0.5499260000000 1.0
C      1  0.4809630000000  0.4631420000000  0.5352260000000 1.0
C      1  0.5078630000000  0.4528490000000  0.5375680000000 1.0
C      1  0.5344170000000  0.4661200000000  0.5433040000000 1.0
C      1  0.5445600000000  0.4897250000000  0.5244290000000 1.0
C      1  0.5406140000000  0.5202580000000  0.5319740000000 1.0
C      1  0.5172910000000  0.5356110000000  0.5184430000000 1.0
C      1  0.4917370000000  0.5466200000000  0.5261160000000 1.0
C      1  0.4686900000000  0.5364470000000  0.5427410000000 1.0
C      1  0.4575860000000  0.5091980000000  0.5363310000000 1.0
C      1  0.4398560000000  0.4598170000000  0.5184260000000 1.0
C      1  0.4719080000000  0.4361380000000  0.4937080000000 1.0
C      1  0.5007310000000  0.4312220000000  0.4934180000000 1.0
C      1  0.5488800000000  0.4449250000000  0.5068280000000 1.0
C      1  0.5731500000000  0.4871560000000  0.4963930000000 1.0
C      1  0.5529170000000  0.5354570000000  0.4919520000000 1.0
C      1  0.5136910000000  0.5531730000000  0.4709090000000 1.0
C      1  0.4856850000000  0.5557080000000  0.4774540000000 1.0
C      1  0.4427160000000  0.5466340000000  0.5053130000000 1.0
C      1  0.4158600000000  0.5050120000000  0.5072910000000 1.0
C      1  0.4353110000000  0.4703440000000  0.5450800000000 1.0
C      1  0.4635480000000  0.4425820000000  0.5219380000000 1.0
C      1  0.5107010000000  0.4307370000000  0.5201340000000 1.0
C      1  0.5531120000000  0.4448360000000  0.5345900000000 1.0
C      1  0.5736210000000  0.4858120000000  0.5238690000000 1.0
C      1  0.5643110000000  0.5317250000000  0.5181780000000 1.0
C      1  0.5293380000000  0.5528890000000  0.4966940000000 1.0
C      1  0.4829650000000  0.5627550000000  0.5047720000000 1.0
C      1  0.4467400000000  0.5530490000000  0.5323320000000 1.0
C      1  0.4299340000000  0.5117320000000  0.5301780000000 1.0
END
