TITL C-9264-7143-92 -7.60293194713848e-07 125000 -382.632009009161 0 0 60 (C2v) n - 1
REM
REM in /home/bkarasulu/CARBON/AIRSS/Generating-Clusters/EDIP-Nigel-Params/Higher-Symm/Box-15A/Only-C60/SD-CG/HFTN-CG
REM
REM
REM
REM
REM
REM ./C.cell (414f73aa93bd7a1190c7fd0f31ff2f98)
REM
REM compiler GCC version 9.2.1 20190827 (Red Hat 9.2.1-1)
REM options -cpp -mtune=generic -march=x86-64 -g -O0 -fpre-include=/usr/include/finclude/math-vector-fortran.h
REM seed -2031002388 -374049257 -1270369415 85650470 -1637152407 614049673 -672991935 -2129140990 2139543041 337529668 -373636323 -48649380 1642380084 1660831163 -536018338 967272593 -1541361812 922998202 1840672602 641419892 573719884 472840257 586449387 1460442805 -1608685399 -1827701686 -7546810 -969719907 -1324060560 810987550 1331099402 595862618 695089328
REM
CELL 1.54180   50.00000   50.00000   50.00000   90.00000   90.00000   90.00000
LATT -1
SFAC C  
C      1  0.4381660000000  0.5322030000000  0.4792140000000 1.0
C      1  0.4780890000000  0.4340530000000  0.5324880000000 1.0
C      1  0.5314500000000  0.4780460000000  0.4375660000000 1.0
C      1  0.5614460000000  0.4679500000000  0.4778740000000 1.0
C      1  0.5614410000000  0.5325680000000  0.5224520000000 1.0
C      1  0.4389730000000  0.4672700000000  0.5233260000000 1.0
C      1  0.5224980000000  0.5657160000000  0.5325530000000 1.0
C      1  0.5218650000000  0.4373770000000  0.4672520000000 1.0
C      1  0.4775510000000  0.5628520000000  0.4680970000000 1.0
C      1  0.4674290000000  0.5223940000000  0.4383020000000 1.0
C      1  0.4723770000000  0.4762900000000  0.5597870000000 1.0
C      1  0.5287000000000  0.5232880000000  0.5594450000000 1.0
C      1  0.4389840000000  0.5325860000000  0.5235580000000 1.0
C      1  0.4775290000000  0.4373830000000  0.4676530000000 1.0
C      1  0.5286920000000  0.4762810000000  0.5592790000000 1.0
C      1  0.5614290000000  0.4672520000000  0.5222210000000 1.0
C      1  0.5614580000000  0.5321850000000  0.4781010000000 1.0
C      1  0.4381550000000  0.4679680000000  0.4789870000000 1.0
C      1  0.5218870000000  0.5628460000000  0.4676970000000 1.0
C      1  0.5224750000000  0.4340470000000  0.5320870000000 1.0
C      1  0.4781120000000  0.5657230000000  0.5329540000000 1.0
C      1  0.4723850000000  0.5232960000000  0.5599540000000 1.0
C      1  0.4674210000000  0.4780550000000  0.4381450000000 1.0
C      1  0.5314580000000  0.5223840000000  0.4377230000000 1.0
C      1  0.5533010000000  0.5148620000000  0.4557600000000 1.0
C      1  0.4573370000000  0.5540630000000  0.5154130000000 1.0
C      1  0.5154120000000  0.4499300000000  0.5561190000000 1.0
C      1  0.4459080000000  0.4854480000000  0.4566250000000 1.0
C      1  0.4487310000000  0.5147870000000  0.5447700000000 1.0
C      1  0.5520680000000  0.4849000000000  0.5437310000000 1.0
C      1  0.5429310000000  0.4458320000000  0.5142570000000 1.0
C      1  0.5439200000000  0.5545520000000  0.4853390000000 1.0
C      1  0.4558190000000  0.4455500000000  0.4857480000000 1.0
C      1  0.4856070000000  0.5496700000000  0.5567410000000 1.0
C      1  0.4847550000000  0.4554960000000  0.4456790000000 1.0
C      1  0.5142640000000  0.5448890000000  0.4457290000000 1.0
C      1  0.5520730000000  0.5147720000000  0.5438360000000 1.0
C      1  0.4558380000000  0.5545650000000  0.4861340000000 1.0
C      1  0.5142480000000  0.4554910000000  0.4454130000000 1.0
C      1  0.4487260000000  0.4849150000000  0.5446640000000 1.0
C      1  0.4459130000000  0.5148780000000  0.4567290000000 1.0
C      1  0.5532960000000  0.4854330000000  0.4556550000000 1.0
C      1  0.5439010000000  0.4455370000000  0.4849530000000 1.0
C      1  0.5429500000000  0.5540500000000  0.5146400000000 1.0
C      1  0.4573170000000  0.4458450000000  0.5150300000000 1.0
C      1  0.4847710000000  0.5448930000000  0.4459960000000 1.0
C      1  0.4855890000000  0.4499350000000  0.5563880000000 1.0
C      1  0.5154300000000  0.5496660000000  0.5564720000000 1.0
C      1  0.4997790000000  0.4218710000000  0.4768130000000 1.0
C      1  0.4233970000000  0.4774650000000  0.5015820000000 1.0
C      1  0.4998070000000  0.5782920000000  0.4773670000000 1.0
C      1  0.5001910000000  0.4188030000000  0.5224920000000 1.0
C      1  0.5002200000000  0.5810360000000  0.5230670000000 1.0
C      1  0.5218150000000  0.5002710000000  0.4222900000000 1.0
C      1  0.5154350000000  0.4997450000000  0.5712950000000 1.0
C      1  0.4858550000000  0.4997490000000  0.5715620000000 1.0
C      1  0.5766210000000  0.5225280000000  0.5003590000000 1.0
C      1  0.5766130000000  0.4774430000000  0.5001990000000 1.0
C      1  0.4234050000000  0.5225500000000  0.5017420000000 1.0
C      1  0.4767860000000  0.5002780000000  0.4226970000000 1.0
END
