TITL C-9255-4564-107 -1.81970088941547e-05 125000 -353.594114197252 0 0 60 (Ci) n - 1
REM
REM in /home/bkarasulu/CARBON/AIRSS/Generating-Clusters/EDIP-Nigel-Params/Higher-Symm/Box-15A/Only-C60/SD-CG/HFTN-CG
REM
REM
REM
REM
REM
REM ./C.cell (414f73aa93bd7a1190c7fd0f31ff2f98)
REM
REM compiler GCC version 9.2.1 20190827 (Red Hat 9.2.1-1)
REM options -cpp -mtune=generic -march=x86-64 -g -O0 -fpre-include=/usr/include/finclude/math-vector-fortran.h
REM seed 633779188 -1535303379 1857498833 1886409798 -303040681 563344739 -491007255 774039301 -1963205454 751206546 759897765 1710528756 227912802 -150155119 1114688561 -1360478049 481844829 693709283 -372121116 -286084947 224472633 767622810 2001766352 -1237569236 1983685486 183635453 -856712924 9837867 865149797 387426862 -162575833 -997206335 -1584430695
REM
CELL 1.54180   50.00000   50.00000   50.00000   90.00000   90.00000   90.00000
LATT -1
SFAC C  
C      1  0.5173230000000  0.5274150000000  0.5536570000000 1.0
C      1  0.4826770000000  0.4725850000000  0.4463430000000 1.0
C      1  0.5099520000000  0.4823720000000  0.4389810000000 1.0
C      1  0.4900480000000  0.5176280000000  0.5610190000000 1.0
C      1  0.5056540000000  0.4718270000000  0.5728580000000 1.0
C      1  0.4943460000000  0.5281730000000  0.4271420000000 1.0
C      1  0.4706950000000  0.4465910000000  0.4544570000000 1.0
C      1  0.5293050000000  0.5534090000000  0.5455430000000 1.0
C      1  0.5024290000000  0.4656050000000  0.4781550000000 1.0
C      1  0.4975710000000  0.5343950000000  0.5218450000000 1.0
C      1  0.5132610000000  0.5746570000000  0.5355220000000 1.0
C      1  0.4867390000000  0.4253430000000  0.4644780000000 1.0
C      1  0.4711100000000  0.5221330000000  0.4852420000000 1.0
C      1  0.5288900000000  0.4778670000000  0.5147580000000 1.0
C      1  0.5618460000000  0.4713970000000  0.5423630000000 1.0
C      1  0.4381540000000  0.5286030000000  0.4576370000000 1.0
C      1  0.4772200000000  0.4801430000000  0.5183280000000 1.0
C      1  0.5227800000000  0.5198570000000  0.4816720000000 1.0
C      1  0.4985000000000  0.5150500000000  0.4975170000000 1.0
C      1  0.5015000000000  0.4849500000000  0.5024830000000 1.0
C      1  0.4461980000000  0.4473400000000  0.4679030000000 1.0
C      1  0.5538020000000  0.5526600000000  0.5320970000000 1.0
C      1  0.4517760000000  0.5484260000000  0.5047740000000 1.0
C      1  0.5482240000000  0.4515740000000  0.4952260000000 1.0
C      1  0.4585570000000  0.5385480000000  0.4392220000000 1.0
C      1  0.5414430000000  0.4614520000000  0.5607780000000 1.0
C      1  0.5626590000000  0.4536090000000  0.5194600000000 1.0
C      1  0.4373410000000  0.5463910000000  0.4805400000000 1.0
C      1  0.5724390000000  0.5079900000000  0.5098340000000 1.0
C      1  0.4275610000000  0.4920100000000  0.4901660000000 1.0
C      1  0.5297580000000  0.5607380000000  0.4553850000000 1.0
C      1  0.4702420000000  0.4392620000000  0.5446150000000 1.0
C      1  0.4831910000000  0.4884410000000  0.5656890000000 1.0
C      1  0.5168090000000  0.5115590000000  0.4343110000000 1.0
C      1  0.4850450000000  0.5430170000000  0.4493090000000 1.0
C      1  0.5149550000000  0.4569830000000  0.5506910000000 1.0
C      1  0.4697740000000  0.5340180000000  0.5488640000000 1.0
C      1  0.5302260000000  0.4659820000000  0.4511360000000 1.0
C      1  0.5414740000000  0.5276480000000  0.4423080000000 1.0
C      1  0.4585260000000  0.4723520000000  0.5576920000000 1.0
C      1  0.4486910000000  0.5040710000000  0.4736770000000 1.0
C      1  0.5513090000000  0.4959290000000  0.5263230000000 1.0
C      1  0.5619630000000  0.5550350000000  0.5056050000000 1.0
C      1  0.4380370000000  0.4449650000000  0.4943950000000 1.0
C      1  0.4380640000000  0.4826670000000  0.5385920000000 1.0
C      1  0.5619360000000  0.5173330000000  0.4614080000000 1.0
C      1  0.5467090000000  0.5008660000000  0.4824390000000 1.0
C      1  0.4532910000000  0.4991340000000  0.5175610000000 1.0
C      1  0.5453960000000  0.4719170000000  0.4744950000000 1.0
C      1  0.4546040000000  0.5280830000000  0.5255050000000 1.0
C      1  0.5010940000000  0.5655910000000  0.4597410000000 1.0
C      1  0.4989060000000  0.4344090000000  0.5402590000000 1.0
C      1  0.5009040000000  0.4287790000000  0.5125270000000 1.0
C      1  0.4990960000000  0.5712210000000  0.4874730000000 1.0
C      1  0.4990420000000  0.5630100000000  0.5145330000000 1.0
C      1  0.5009580000000  0.4369900000000  0.4854670000000 1.0
C      1  0.4649710000000  0.4533420000000  0.5192390000000 1.0
C      1  0.5350290000000  0.5466580000000  0.4807610000000 1.0
C      1  0.4254250000000  0.4677200000000  0.5069320000000 1.0
C      1  0.5745750000000  0.5322800000000  0.4930680000000 1.0
END
