TITL C-9268-6400-43 -3.92153026498215e-05 125000 -371.834189645271 0 0 60 (C2v) n - 1
REM
REM in /home/bkarasulu/CARBON/AIRSS/Generating-Clusters/EDIP-Nigel-Params/Higher-Symm/Box-15A/Only-C60/SD-CG/HFTN-CG
REM
REM
REM
REM
REM
REM ./C.cell (414f73aa93bd7a1190c7fd0f31ff2f98)
REM
REM compiler GCC version 9.2.1 20190827 (Red Hat 9.2.1-1)
REM options -cpp -mtune=generic -march=x86-64 -g -O0 -fpre-include=/usr/include/finclude/math-vector-fortran.h
REM seed -1922815825 2059951897 -804937127 -1688880046 926691386 -615193310 -524199325 121787965 896027199 1171193424 -497511340 -1203341158 2142235339 -1735587530 -1056756896 16470973 1740658669 -562915269 1578563711 771931131 1420659654 -1793835276 -221125393 -445337318 -2093326423 912685289 1713297684 -1046202427 1577856546 -878263759 -473858692 1985215042 1506696609
REM
CELL 1.54180   50.00000   50.00000   50.00000   90.00000   90.00000   90.00000
LATT -1
SFAC C  
C      1  0.5485110000000  0.5455040000000  0.4542560000000 1.0
C      1  0.5467540000000  0.5565130000000  0.5191590000000 1.0
C      1  0.5502590000000  0.5145140000000  0.5673280000000 1.0
C      1  0.5485680000000  0.4545670000000  0.5457540000000 1.0
C      1  0.5468400000000  0.4435560000000  0.4808510000000 1.0
C      1  0.5502930000000  0.4855590000000  0.4326820000000 1.0
C      1  0.5485010000000  0.5455530000000  0.5457040000000 1.0
C      1  0.5467580000000  0.5564920000000  0.4807890000000 1.0
C      1  0.5502720000000  0.5144410000000  0.4326660000000 1.0
C      1  0.5485770000000  0.4545180000000  0.4543050000000 1.0
C      1  0.5468360000000  0.4435760000000  0.5192200000000 1.0
C      1  0.5502800000000  0.4856320000000  0.5673440000000 1.0
C      1  0.4532120000000  0.4855730000000  0.5759990000000 1.0
C      1  0.4497460000000  0.4414840000000  0.5307200000000 1.0
C      1  0.4510360000000  0.4533650000000  0.4441270000000 1.0
C      1  0.4532060000000  0.5143580000000  0.4239920000000 1.0
C      1  0.4496670000000  0.5584430000000  0.4692700000000 1.0
C      1  0.4509570000000  0.5465630000000  0.5558640000000 1.0
C      1  0.4532270000000  0.4854910000000  0.4240080000000 1.0
C      1  0.4497520000000  0.4414510000000  0.4693340000000 1.0
C      1  0.4510250000000  0.4534260000000  0.5559140000000 1.0
C      1  0.4531910000000  0.5144410000000  0.5759830000000 1.0
C      1  0.4496610000000  0.5584760000000  0.5306560000000 1.0
C      1  0.4509680000000  0.5465030000000  0.4440760000000 1.0
C      1  0.4758800000000  0.4479680000000  0.5703620000000 1.0
C      1  0.4712320000000  0.4339970000000  0.4855480000000 1.0
C      1  0.4771890000000  0.4719890000000  0.4135720000000 1.0
C      1  0.4758180000000  0.5519970000000  0.4296330000000 1.0
C      1  0.4711330000000  0.5659610000000  0.5144460000000 1.0
C      1  0.4771310000000  0.5279780000000  0.5864240000000 1.0
C      1  0.4758940000000  0.4478910000000  0.4296890000000 1.0
C      1  0.4712290000000  0.4340130000000  0.5145180000000 1.0
C      1  0.4771720000000  0.4720830000000  0.5864540000000 1.0
C      1  0.4758040000000  0.5520730000000  0.5703060000000 1.0
C      1  0.4711360000000  0.5659450000000  0.4854770000000 1.0
C      1  0.4771480000000  0.5278840000000  0.4135420000000 1.0
C      1  0.4995800000000  0.5549320000000  0.4462940000000 1.0
C      1  0.4967330000000  0.5661300000000  0.5277130000000 1.0
C      1  0.5028610000000  0.5142630000000  0.5832670000000 1.0
C      1  0.4996500000000  0.4450670000000  0.5537060000000 1.0
C      1  0.4968350000000  0.4338650000000  0.4722860000000 1.0
C      1  0.5028990000000  0.4857410000000  0.4167330000000 1.0
C      1  0.4995690000000  0.5549900000000  0.5536470000000 1.0
C      1  0.4967390000000  0.5661000000000  0.4722150000000 1.0
C      1  0.5028780000000  0.5141730000000  0.4167180000000 1.0
C      1  0.4996600000000  0.4450090000000  0.4463530000000 1.0
C      1  0.4968300000000  0.4338960000000  0.5277850000000 1.0
C      1  0.5028820000000  0.4858320000000  0.5832830000000 1.0
C      1  0.5266560000000  0.5519610000000  0.5644560000000 1.0
C      1  0.5285610000000  0.4717440000000  0.5813990000000 1.0
C      1  0.5218070000000  0.4292720000000  0.5142550000000 1.0
C      1  0.5267450000000  0.4480780000000  0.4355490000000 1.0
C      1  0.5285360000000  0.5282980000000  0.4186060000000 1.0
C      1  0.5217060000000  0.5707600000000  0.4857500000000 1.0
C      1  0.5266690000000  0.5518910000000  0.4354930000000 1.0
C      1  0.5285770000000  0.4716560000000  0.4186370000000 1.0
C      1  0.5218100000000  0.4292560000000  0.4858260000000 1.0
C      1  0.5267320000000  0.4481480000000  0.5645120000000 1.0
C      1  0.5285190000000  0.5283860000000  0.5813690000000 1.0
C      1  0.5217030000000  0.5707750000000  0.5141780000000 1.0
END
