TITL C-9255-4564-210 -3.15210014045051e-06 125000 -363.094305322452 0 0 60 (C1) n - 1
REM
REM in /home/bkarasulu/CARBON/AIRSS/Generating-Clusters/EDIP-Nigel-Params/Higher-Symm/Box-15A/Only-C60/SD-CG/HFTN-CG
REM
REM
REM
REM
REM
REM ./C.cell (414f73aa93bd7a1190c7fd0f31ff2f98)
REM
REM compiler GCC version 9.2.1 20190827 (Red Hat 9.2.1-1)
REM options -cpp -mtune=generic -march=x86-64 -g -O0 -fpre-include=/usr/include/finclude/math-vector-fortran.h
REM seed 2110766018 -584858365 2045486579 -862731824 -31384228 -562232336 -1419795932 2130080307 -1259898772 -1362799593 884589067 -369359647 -1266038945 -430436851 -1106176762 1305606885 -1217629861 -2042413387 844847857 1158392867 -1018294052 1054234438 -2000575844 488856818 -1986330957 -506601058 -799077253 2017843832 -870297443 -1289202371 738718656 1688061237 890147993
REM
CELL 1.54180   50.00000   50.00000   50.00000   90.00000   90.00000   90.00000
LATT -1
SFAC C  
C      1  0.5824610000000  0.4783180000000  0.4840640000000 1.0
C      1  0.5233560000000  0.4754680000000  0.4287170000000 1.0
C      1  0.4649850000000  0.4799340000000  0.4187530000000 1.0
C      1  0.4363450000000  0.4757110000000  0.5005080000000 1.0
C      1  0.4520550000000  0.4748260000000  0.5649760000000 1.0
C      1  0.5138870000000  0.4747740000000  0.5849490000000 1.0
C      1  0.5695260000000  0.4714530000000  0.5294330000000 1.0
C      1  0.4382250000000  0.5005400000000  0.5141520000000 1.0
C      1  0.4603140000000  0.5006440000000  0.5700720000000 1.0
C      1  0.5186460000000  0.5016830000000  0.5773390000000 1.0
C      1  0.5744520000000  0.4994040000000  0.5288900000000 1.0
C      1  0.5626680000000  0.4955470000000  0.4731150000000 1.0
C      1  0.5115870000000  0.4999280000000  0.4265810000000 1.0
C      1  0.4551170000000  0.5005880000000  0.4350260000000 1.0
C      1  0.4681980000000  0.4998160000000  0.5268010000000 1.0
C      1  0.4987540000000  0.4904190000000  0.5457630000000 1.0
C      1  0.5222100000000  0.4831390000000  0.5274350000000 1.0
C      1  0.5385570000000  0.4649540000000  0.4978450000000 1.0
C      1  0.5350790000000  0.4821690000000  0.4734830000000 1.0
C      1  0.4922930000000  0.4818540000000  0.4588730000000 1.0
C      1  0.4625730000000  0.4908020000000  0.4625630000000 1.0
C      1  0.5191460000000  0.5466080000000  0.5576550000000 1.0
C      1  0.5461840000000  0.5400980000000  0.5307230000000 1.0
C      1  0.5468060000000  0.5428470000000  0.4719440000000 1.0
C      1  0.5168990000000  0.5436660000000  0.4484220000000 1.0
C      1  0.4625250000000  0.5452840000000  0.4572520000000 1.0
C      1  0.4391040000000  0.5486220000000  0.5044580000000 1.0
C      1  0.4631460000000  0.5468600000000  0.5533210000000 1.0
C      1  0.4692320000000  0.4467880000000  0.4783170000000 1.0
C      1  0.4787840000000  0.4487280000000  0.5276940000000 1.0
C      1  0.4999460000000  0.4419540000000  0.5476610000000 1.0
C      1  0.5258870000000  0.4430330000000  0.5329070000000 1.0
C      1  0.5181700000000  0.4409180000000  0.4945890000000 1.0
C      1  0.5160410000000  0.4402420000000  0.4630100000000 1.0
C      1  0.4871040000000  0.4435830000000  0.4538750000000 1.0
C      1  0.5628300000000  0.5216070000000  0.5163430000000 1.0
C      1  0.5600970000000  0.5215470000000  0.4868480000000 1.0
C      1  0.5002990000000  0.5211470000000  0.4408920000000 1.0
C      1  0.4717550000000  0.5263030000000  0.4372080000000 1.0
C      1  0.4375080000000  0.5221370000000  0.4947490000000 1.0
C      1  0.4753580000000  0.5233900000000  0.5629620000000 1.0
C      1  0.5038060000000  0.5253240000000  0.5698610000000 1.0
C      1  0.5249620000000  0.5500740000000  0.5141400000000 1.0
C      1  0.5296870000000  0.5603350000000  0.4876150000000 1.0
C      1  0.5067080000000  0.5617160000000  0.4693740000000 1.0
C      1  0.4793980000000  0.5551590000000  0.4787130000000 1.0
C      1  0.4653970000000  0.5589430000000  0.5048760000000 1.0
C      1  0.4782340000000  0.5537160000000  0.5305760000000 1.0
C      1  0.5064250000000  0.5592490000000  0.5342030000000 1.0
C      1  0.4481010000000  0.4676230000000  0.4759670000000 1.0
C      1  0.4604200000000  0.4705800000000  0.5375000000000 1.0
C      1  0.4951750000000  0.4664150000000  0.5650920000000 1.0
C      1  0.5428900000000  0.4664540000000  0.5419190000000 1.0
C      1  0.5680800000000  0.4615380000000  0.5015340000000 1.0
C      1  0.5320240000000  0.4626480000000  0.4518230000000 1.0
C      1  0.4819370000000  0.4600190000000  0.4287510000000 1.0
C      1  0.4898470000000  0.4542490000000  0.4994650000000 1.0
C      1  0.4835810000000  0.5054540000000  0.5013700000000 1.0
C      1  0.4994230000000  0.4831610000000  0.4900520000000 1.0
C      1  0.4634310000000  0.5149150000000  0.4808640000000 1.0
END
