TITL C-9264-7143-265 1.12702198283082e-05 125000 -362.244367262392 0 0 60 (C1) n - 1
REM
REM in /home/bkarasulu/CARBON/AIRSS/Generating-Clusters/EDIP-Nigel-Params/Higher-Symm/Box-15A/Only-C60/SD-CG/HFTN-CG
REM
REM
REM
REM
REM
REM ./C.cell (414f73aa93bd7a1190c7fd0f31ff2f98)
REM
REM compiler GCC version 9.2.1 20190827 (Red Hat 9.2.1-1)
REM options -cpp -mtune=generic -march=x86-64 -g -O0 -fpre-include=/usr/include/finclude/math-vector-fortran.h
REM seed -700156511 -1041911287 161410327 771222155 -667777834 1121974250 743243364 -2013628033 966766272 1696463354 569108645 1325337315 -527096776 2129971174 -1311628634 1092295724 1177449018 -325814482 -1282644415 211966979 1173374857 1460390138 -721224889 1837661208 -1781987147 -559212568 -1601693383 -99965774 -666397772 -282664823 -1939310166 1309910457 1344677478
REM
CELL 1.54180   50.00000   50.00000   50.00000   90.00000   90.00000   90.00000
LATT -1
SFAC C  
C      1  0.4755400000000  0.4758390000000  0.4612850000000 1.0
C      1  0.4894600000000  0.4488670000000  0.4606310000000 1.0
C      1  0.5179790000000  0.4534230000000  0.4541330000000 1.0
C      1  0.5519640000000  0.5073340000000  0.4540960000000 1.0
C      1  0.5424030000000  0.5347330000000  0.4542520000000 1.0
C      1  0.4822340000000  0.5421880000000  0.4545280000000 1.0
C      1  0.4559600000000  0.5301920000000  0.4526010000000 1.0
C      1  0.4529810000000  0.5080490000000  0.4356050000000 1.0
C      1  0.4689070000000  0.4849790000000  0.4332250000000 1.0
C      1  0.4964200000000  0.4907780000000  0.4224120000000 1.0
C      1  0.5221550000000  0.4734710000000  0.4312210000000 1.0
C      1  0.5461330000000  0.4886810000000  0.4342990000000 1.0
C      1  0.5256790000000  0.5434190000000  0.4337390000000 1.0
C      1  0.4984270000000  0.5425980000000  0.4315150000000 1.0
C      1  0.5112190000000  0.4643420000000  0.5175530000000 1.0
C      1  0.5248710000000  0.4855120000000  0.5018310000000 1.0
C      1  0.5298390000000  0.5119640000000  0.5140540000000 1.0
C      1  0.5051490000000  0.5291870000000  0.5123750000000 1.0
C      1  0.4823420000000  0.5129170000000  0.4922460000000 1.0
C      1  0.4741640000000  0.4976420000000  0.5194450000000 1.0
C      1  0.4816210000000  0.4690760000000  0.5213090000000 1.0
C      1  0.5260490000000  0.4826000000000  0.5549510000000 1.0
C      1  0.5293630000000  0.5127910000000  0.5580640000000 1.0
C      1  0.5143640000000  0.5407240000000  0.5658300000000 1.0
C      1  0.4822020000000  0.5418170000000  0.5714940000000 1.0
C      1  0.4638700000000  0.4931350000000  0.5661050000000 1.0
C      1  0.4753650000000  0.4658850000000  0.5644980000000 1.0
C      1  0.5049650000000  0.4622390000000  0.5609640000000 1.0
C      1  0.5354970000000  0.4489990000000  0.4786220000000 1.0
C      1  0.5614470000000  0.4995400000000  0.4805230000000 1.0
C      1  0.5411270000000  0.5463750000000  0.4810800000000 1.0
C      1  0.4880630000000  0.5547060000000  0.4803260000000 1.0
C      1  0.4487750000000  0.5289260000000  0.4817400000000 1.0
C      1  0.4526140000000  0.4746990000000  0.4819800000000 1.0
C      1  0.4866180000000  0.4363770000000  0.4870870000000 1.0
C      1  0.5526360000000  0.5234660000000  0.4979610000000 1.0
C      1  0.5160240000000  0.5615390000000  0.4907210000000 1.0
C      1  0.4638790000000  0.5522260000000  0.4971860000000 1.0
C      1  0.4401230000000  0.5003590000000  0.4931530000000 1.0
C      1  0.4656260000000  0.4534860000000  0.5009000000000 1.0
C      1  0.5142520000000  0.4394770000000  0.4994780000000 1.0
C      1  0.5498820000000  0.4735530000000  0.4923770000000 1.0
C      1  0.5124930000000  0.4368430000000  0.5509170000000 1.0
C      1  0.5479080000000  0.4710340000000  0.5412690000000 1.0
C      1  0.5544210000000  0.5204510000000  0.5472210000000 1.0
C      1  0.5185690000000  0.5582120000000  0.5436300000000 1.0
C      1  0.4686240000000  0.5557610000000  0.5512180000000 1.0
C      1  0.4424030000000  0.4973560000000  0.5477480000000 1.0
C      1  0.4591940000000  0.4474670000000  0.5504770000000 1.0
C      1  0.5201690000000  0.4267760000000  0.5260420000000 1.0
C      1  0.5616790000000  0.4665480000000  0.5180040000000 1.0
C      1  0.5658660000000  0.5281240000000  0.5233390000000 1.0
C      1  0.5166780000000  0.5684720000000  0.5186490000000 1.0
C      1  0.4634670000000  0.5576650000000  0.5247500000000 1.0
C      1  0.4335970000000  0.4997020000000  0.5215550000000 1.0
C      1  0.4521360000000  0.4421850000000  0.5242880000000 1.0
C      1  0.5086150000000  0.5079070000000  0.4457580000000 1.0
C      1  0.4952700000000  0.4962120000000  0.4711750000000 1.0
C      1  0.4911160000000  0.5146310000000  0.5355930000000 1.0
C      1  0.4869280000000  0.5128020000000  0.5645430000000 1.0
END
