TITL C-9256-7861-170 -1.36978109286962e-05 125000 -359.430711582304 0 0 60 (C1) n - 1
REM
REM in /home/bkarasulu/CARBON/AIRSS/Generating-Clusters/EDIP-Nigel-Params/Higher-Symm/Box-15A/Only-C60/SD-CG/HFTN-CG
REM
REM
REM
REM
REM
REM ./C.cell (414f73aa93bd7a1190c7fd0f31ff2f98)
REM
REM compiler GCC version 9.2.1 20190827 (Red Hat 9.2.1-1)
REM options -cpp -mtune=generic -march=x86-64 -g -O0 -fpre-include=/usr/include/finclude/math-vector-fortran.h
REM seed -107131704 -1891260017 -124786214 1878870739 -75618841 -190306046 1744866919 -174236669 142128094 875681428 335979544 813808469 111315133 -1203613472 -1082941159 -367185463 -466476012 -1774585860 208995773 -703927503 1769161350 863894838 268344849 -535829656 -1918242700 1806629686 454276620 -1149513830 -1781430017 -1761607506 -2103432179 -632082378 -1020921235
REM
CELL 1.54180   50.00000   50.00000   50.00000   90.00000   90.00000   90.00000
LATT -1
SFAC C  
C      1  0.5430800000000  0.5412380000000  0.4899380000000 1.0
C      1  0.5304940000000  0.4657060000000  0.5278260000000 1.0
C      1  0.4585970000000  0.5681780000000  0.5184000000000 1.0
C      1  0.4766930000000  0.5190210000000  0.5094770000000 1.0
C      1  0.5574580000000  0.4807500000000  0.4837150000000 1.0
C      1  0.4623330000000  0.4306490000000  0.4893200000000 1.0
C      1  0.5671870000000  0.5260760000000  0.4515440000000 1.0
C      1  0.5302040000000  0.4631760000000  0.4448770000000 1.0
C      1  0.4719050000000  0.4237690000000  0.5162820000000 1.0
C      1  0.4692420000000  0.5324530000000  0.4603640000000 1.0
C      1  0.5232640000000  0.4836660000000  0.5680840000000 1.0
C      1  0.5157450000000  0.4411390000000  0.5344500000000 1.0
C      1  0.4877850000000  0.5322450000000  0.4831120000000 1.0
C      1  0.4443950000000  0.5201360000000  0.4638550000000 1.0
C      1  0.5178250000000  0.5449060000000  0.5302550000000 1.0
C      1  0.4841970000000  0.4893900000000  0.5131130000000 1.0
C      1  0.4442360000000  0.4527340000000  0.4965570000000 1.0
C      1  0.4363760000000  0.5039980000000  0.4851290000000 1.0
C      1  0.4418050000000  0.5473900000000  0.5127010000000 1.0
C      1  0.5287210000000  0.5540250000000  0.4669340000000 1.0
C      1  0.4472040000000  0.4772170000000  0.4813580000000 1.0
C      1  0.4742230000000  0.4718950000000  0.5593000000000 1.0
C      1  0.5498300000000  0.5588260000000  0.5130060000000 1.0
C      1  0.4982070000000  0.4986060000000  0.4386450000000 1.0
C      1  0.4433190000000  0.5028220000000  0.5377300000000 1.0
C      1  0.4939520000000  0.4423920000000  0.5177960000000 1.0
C      1  0.5133040000000  0.4977720000000  0.4746450000000 1.0
C      1  0.5386200000000  0.4871600000000  0.4605890000000 1.0
C      1  0.4817150000000  0.4562090000000  0.4502880000000 1.0
C      1  0.5484660000000  0.5381750000000  0.5339900000000 1.0
C      1  0.5345790000000  0.4383420000000  0.4569880000000 1.0
C      1  0.4512990000000  0.4298660000000  0.5351820000000 1.0
C      1  0.5445060000000  0.4707280000000  0.5534520000000 1.0
C      1  0.4430010000000  0.4556320000000  0.5256520000000 1.0
C      1  0.5275280000000  0.4421390000000  0.4838910000000 1.0
C      1  0.5452290000000  0.4594360000000  0.5009570000000 1.0
C      1  0.4978780000000  0.4470850000000  0.4888190000000 1.0
C      1  0.4852310000000  0.5749200000000  0.5262540000000 1.0
C      1  0.4797590000000  0.5417030000000  0.4357800000000 1.0
C      1  0.5028540000000  0.5260110000000  0.4319420000000 1.0
C      1  0.5243300000000  0.5138940000000  0.5004110000000 1.0
C      1  0.5553610000000  0.5114580000000  0.5237310000000 1.0
C      1  0.5026630000000  0.5580900000000  0.4808480000000 1.0
C      1  0.5676570000000  0.5050860000000  0.4979090000000 1.0
C      1  0.4910060000000  0.4771970000000  0.4841810000000 1.0
C      1  0.4608690000000  0.4786250000000  0.5344760000000 1.0
C      1  0.5131200000000  0.4931370000000  0.5242130000000 1.0
C      1  0.5001120000000  0.5620560000000  0.5494490000000 1.0
C      1  0.5153890000000  0.5064110000000  0.5514170000000 1.0
C      1  0.4559940000000  0.5205880000000  0.5560640000000 1.0
C      1  0.5026970000000  0.4701180000000  0.4370240000000 1.0
C      1  0.4753630000000  0.5335180000000  0.5375760000000 1.0
C      1  0.4600450000000  0.4720770000000  0.4571090000000 1.0
C      1  0.5687790000000  0.5296500000000  0.4801070000000 1.0
C      1  0.4379160000000  0.5184010000000  0.5118570000000 1.0
C      1  0.4943510000000  0.5250100000000  0.5612490000000 1.0
C      1  0.5305060000000  0.5357160000000  0.4413480000000 1.0
C      1  0.5056320000000  0.5720520000000  0.5058350000000 1.0
C      1  0.4985710000000  0.4704210000000  0.5711850000000 1.0
C      1  0.5473910000000  0.5089130000000  0.4418120000000 1.0
END
