TITL C-9266-5713-280 -3.20227721990926e-07 125000 -365.053839198606 0 0 60 (C1) n - 1
REM
REM in /home/bkarasulu/CARBON/AIRSS/Generating-Clusters/EDIP-Nigel-Params/Higher-Symm/Box-15A/Only-C60/SD-CG/HFTN-CG
REM
REM
REM
REM
REM
REM ./C.cell (414f73aa93bd7a1190c7fd0f31ff2f98)
REM
REM compiler GCC version 9.2.1 20190827 (Red Hat 9.2.1-1)
REM options -cpp -mtune=generic -march=x86-64 -g -O0 -fpre-include=/usr/include/finclude/math-vector-fortran.h
REM seed 206045896 1013423867 1643343378 -1297881855 -1840133499 -1907564373 -1515281186 -1555379160 137884051 1035484821 -1620839261 700286652 -309316095 -1574869258 1138992363 272821640 -1404186629 2044244261 1179721162 944550838 1932128691 -1631227317 -1787948583 1275064974 -1771644096 1226408747 1725611090 741232027 -204412431 279214944 -447110766 1473715663 -361328161
REM
CELL 1.54180   50.00000   50.00000   50.00000   90.00000   90.00000   90.00000
LATT -1
SFAC C  
C      1  0.5276600000000  0.5271260000000  0.5462500000000 1.0
C      1  0.5266460000000  0.5268050000000  0.4532080000000 1.0
C      1  0.5275490000000  0.4468640000000  0.4994730000000 1.0
C      1  0.5272190000000  0.4729770000000  0.5462410000000 1.0
C      1  0.5263440000000  0.4730720000000  0.4532700000000 1.0
C      1  0.5287990000000  0.5530360000000  0.4992020000000 1.0
C      1  0.4546620000000  0.5286910000000  0.5052290000000 1.0
C      1  0.4571630000000  0.4849090000000  0.4776290000000 1.0
C      1  0.4514550000000  0.4834890000000  0.5276190000000 1.0
C      1  0.4521220000000  0.4701460000000  0.5025050000000 1.0
C      1  0.4571450000000  0.5154810000000  0.4790050000000 1.0
C      1  0.4573380000000  0.5116150000000  0.5288350000000 1.0
C      1  0.4744370000000  0.4219870000000  0.5602130000000 1.0
C      1  0.4790620000000  0.5919900000000  0.5347370000000 1.0
C      1  0.4760220000000  0.4869380000000  0.3991420000000 1.0
C      1  0.4750600000000  0.5789480000000  0.5581940000000 1.0
C      1  0.4764450000000  0.4104970000000  0.5357600000000 1.0
C      1  0.4753580000000  0.5140030000000  0.4001370000000 1.0
C      1  0.5183620000000  0.4441300000000  0.5484490000000 1.0
C      1  0.5229590000000  0.5710690000000  0.5229600000000 1.0
C      1  0.5178820000000  0.4855760000000  0.4270660000000 1.0
C      1  0.5186760000000  0.5560380000000  0.5477830000000 1.0
C      1  0.5209600000000  0.4292260000000  0.5233030000000 1.0
C      1  0.5174990000000  0.5145120000000  0.4272560000000 1.0
C      1  0.4821950000000  0.4549740000000  0.4382540000000 1.0
C      1  0.4860380000000  0.4707240000000  0.5728890000000 1.0
C      1  0.4909750000000  0.5788800000000  0.4872990000000 1.0
C      1  0.4820350000000  0.5448780000000  0.4399940000000 1.0
C      1  0.4853430000000  0.5298440000000  0.5707250000000 1.0
C      1  0.4892020000000  0.4216160000000  0.4871690000000 1.0
C      1  0.5536230000000  0.4690200000000  0.4992820000000 1.0
C      1  0.5545820000000  0.5150660000000  0.5256860000000 1.0
C      1  0.5539270000000  0.5149810000000  0.4727040000000 1.0
C      1  0.5545520000000  0.5305300000000  0.4991520000000 1.0
C      1  0.5539580000000  0.4846300000000  0.5257230000000 1.0
C      1  0.5536130000000  0.4843930000000  0.4727280000000 1.0
C      1  0.5178720000000  0.5696000000000  0.4758890000000 1.0
C      1  0.5158770000000  0.4449980000000  0.4512050000000 1.0
C      1  0.5122580000000  0.4854210000000  0.5697080000000 1.0
C      1  0.5163880000000  0.4305420000000  0.4761030000000 1.0
C      1  0.5163770000000  0.5549110000000  0.4512350000000 1.0
C      1  0.5123480000000  0.5150330000000  0.5698950000000 1.0
C      1  0.5092360000000  0.4708110000000  0.5001420000000 1.0
C      1  0.5104120000000  0.5145950000000  0.5248040000000 1.0
C      1  0.5096870000000  0.5145430000000  0.4749520000000 1.0
C      1  0.5101540000000  0.5293220000000  0.5000310000000 1.0
C      1  0.5097090000000  0.4854360000000  0.5250340000000 1.0
C      1  0.5093790000000  0.4855600000000  0.4749630000000 1.0
C      1  0.4658640000000  0.4398640000000  0.4833200000000 1.0
C      1  0.4621530000000  0.5136780000000  0.5584620000000 1.0
C      1  0.4650830000000  0.5408220000000  0.4639770000000 1.0
C      1  0.4683590000000  0.5592950000000  0.4863610000000 1.0
C      1  0.4618970000000  0.4850230000000  0.5646860000000 1.0
C      1  0.4645040000000  0.4594220000000  0.4615320000000 1.0
C      1  0.4906470000000  0.5555110000000  0.5568180000000 1.0
C      1  0.4892170000000  0.5222110000000  0.4232390000000 1.0
C      1  0.4958960000000  0.4145420000000  0.5157550000000 1.0
C      1  0.4910890000000  0.4447140000000  0.5597560000000 1.0
C      1  0.4898310000000  0.4777870000000  0.4219730000000 1.0
C      1  0.4988950000000  0.5876990000000  0.5150860000000 1.0
END
