TITL C-9270-2362-90 2.14590298292853e-06 125000 -354.766190123549 0 0 60 (C1) n - 1
REM
REM in /home/bkarasulu/CARBON/AIRSS/Generating-Clusters/EDIP-Nigel-Params/Higher-Symm/Box-15A/Only-C60/SD-CG/HFTN-CG
REM
REM
REM
REM
REM
REM ./C.cell (414f73aa93bd7a1190c7fd0f31ff2f98)
REM
REM compiler GCC version 9.2.1 20190827 (Red Hat 9.2.1-1)
REM options -cpp -mtune=generic -march=x86-64 -g -O0 -fpre-include=/usr/include/finclude/math-vector-fortran.h
REM seed -1724711556 -1355880081 -1931609522 -1625024966 -934829775 -1760838400 -1466954343 627628647 1968004267 -1221678442 1191782297 382052023 -710723174 1338094159 1170227897 489847741 1254491707 2070565578 -639861078 -1491509791 -1072436181 412263140 -1294580465 -874633549 1235715654 -926859481 1907870674 -370637024 145361080 1729026354 572419963 974154322 -1856409311
REM
CELL 1.54180   50.00000   50.00000   50.00000   90.00000   90.00000   90.00000
LATT -1
SFAC C  
C      1  0.4695650000000  0.5392120000000  0.5603620000000 1.0
C      1  0.5313080000000  0.5385430000000  0.4399510000000 1.0
C      1  0.4704800000000  0.4641310000000  0.4374130000000 1.0
C      1  0.5213030000000  0.4754500000000  0.5584180000000 1.0
C      1  0.5581370000000  0.5377690000000  0.4661470000000 1.0
C      1  0.4428590000000  0.5377540000000  0.5324730000000 1.0
C      1  0.4432760000000  0.4657470000000  0.4651950000000 1.0
C      1  0.5676490000000  0.4635050000000  0.5216730000000 1.0
C      1  0.4546820000000  0.5435040000000  0.4761850000000 1.0
C      1  0.5471720000000  0.5351870000000  0.5269300000000 1.0
C      1  0.4524510000000  0.4562520000000  0.5242040000000 1.0
C      1  0.5458090000000  0.4569680000000  0.4745660000000 1.0
C      1  0.4722830000000  0.5363550000000  0.4542430000000 1.0
C      1  0.5269560000000  0.5417010000000  0.5471480000000 1.0
C      1  0.5284010000000  0.4556360000000  0.4509780000000 1.0
C      1  0.4728810000000  0.4565920000000  0.5453490000000 1.0
C      1  0.5029880000000  0.5380440000000  0.5300060000000 1.0
C      1  0.4983040000000  0.5358760000000  0.4694650000000 1.0
C      1  0.5017470000000  0.4589720000000  0.4662090000000 1.0
C      1  0.4982090000000  0.4498910000000  0.5303470000000 1.0
C      1  0.5301930000000  0.5355180000000  0.5019990000000 1.0
C      1  0.4728100000000  0.5376730000000  0.4988060000000 1.0
C      1  0.4730670000000  0.4569250000000  0.5012080000000 1.0
C      1  0.5296870000000  0.4564750000000  0.4995630000000 1.0
C      1  0.5602640000000  0.4817140000000  0.4766500000000 1.0
C      1  0.4408780000000  0.4823240000000  0.5148790000000 1.0
C      1  0.5593080000000  0.5092790000000  0.5276120000000 1.0
C      1  0.4289010000000  0.5329820000000  0.4817650000000 1.0
C      1  0.4750050000000  0.4818410000000  0.5588710000000 1.0
C      1  0.5205770000000  0.4813800000000  0.4385530000000 1.0
C      1  0.5223660000000  0.5284180000000  0.5718810000000 1.0
C      1  0.4689930000000  0.5104800000000  0.4431710000000 1.0
C      1  0.4936440000000  0.4787130000000  0.4246100000000 1.0
C      1  0.4978090000000  0.4799650000000  0.5765630000000 1.0
C      1  0.4931130000000  0.5284040000000  0.5755220000000 1.0
C      1  0.5130720000000  0.5225260000000  0.4250000000000 1.0
C      1  0.4273400000000  0.4759750000000  0.4879800000000 1.0
C      1  0.5776200000000  0.4796080000000  0.5000180000000 1.0
C      1  0.5745710000000  0.5229700000000  0.4835810000000 1.0
C      1  0.4278810000000  0.5242170000000  0.5102350000000 1.0
C      1  0.4602930000000  0.4448610000000  0.4759400000000 1.0
C      1  0.5449800000000  0.4459490000000  0.5232150000000 1.0
C      1  0.4619350000000  0.5558840000000  0.5202400000000 1.0
C      1  0.5391030000000  0.5547970000000  0.4805310000000 1.0
C      1  0.4797110000000  0.4425310000000  0.4545750000000 1.0
C      1  0.5249060000000  0.4476200000000  0.5461250000000 1.0
C      1  0.5182690000000  0.5558380000000  0.4599550000000 1.0
C      1  0.4819520000000  0.5568240000000  0.5405840000000 1.0
C      1  0.4799490000000  0.4858310000000  0.4949730000000 1.0
C      1  0.5327080000000  0.4867970000000  0.5114650000000 1.0
C      1  0.4690850000000  0.5080700000000  0.5116970000000 1.0
C      1  0.5340310000000  0.5073900000000  0.4878980000000 1.0
C      1  0.4892610000000  0.4889840000000  0.4678570000000 1.0
C      1  0.5103360000000  0.4868020000000  0.5320120000000 1.0
C      1  0.5126520000000  0.5079920000000  0.4658970000000 1.0
C      1  0.4885650000000  0.5090510000000  0.5357210000000 1.0
C      1  0.4887920000000  0.5073130000000  0.4223250000000 1.0
C      1  0.4985500000000  0.5046320000000  0.5913200000000 1.0
C      1  0.4119340000000  0.5008130000000  0.4948840000000 1.0
C      1  0.5794310000000  0.5075450000000  0.5070560000000 1.0
END
