TITL C-9266-5713-154 -4.14699275629996e-07 125000 -361.084085135335 0 0 60 (C1) n - 1
REM
REM in /home/bkarasulu/CARBON/AIRSS/Generating-Clusters/EDIP-Nigel-Params/Higher-Symm/Box-15A/Only-C60/SD-CG/HFTN-CG
REM
REM
REM
REM
REM
REM ./C.cell (414f73aa93bd7a1190c7fd0f31ff2f98)
REM
REM compiler GCC version 9.2.1 20190827 (Red Hat 9.2.1-1)
REM options -cpp -mtune=generic -march=x86-64 -g -O0 -fpre-include=/usr/include/finclude/math-vector-fortran.h
REM seed -2141714797 -886414346 799988963 1690383655 -1652959369 -602316015 -1990935349 -728189213 -890773623 -590589730 -1559948285 -127122120 1778382005 -1842941410 1233791419 -591538752 -1172570721 259585614 1837773162 424122558 -1515592051 -1091341299 1863826633 -1853350109 499951810 1164111824 -1857139137 -448418656 1288096228 -1389911175 -683939537 -470406903 -420534058
REM
CELL 1.54180   50.00000   50.00000   50.00000   90.00000   90.00000   90.00000
LATT -1
SFAC C  
C      1  0.5264960000000  0.5289550000000  0.4838950000000 1.0
C      1  0.5253460000000  0.4754810000000  0.4835500000000 1.0
C      1  0.4409790000000  0.5293240000000  0.5294250000000 1.0
C      1  0.4426430000000  0.4709230000000  0.5304030000000 1.0
C      1  0.5016140000000  0.5822460000000  0.5006610000000 1.0
C      1  0.4988530000000  0.4223960000000  0.4937570000000 1.0
C      1  0.5287570000000  0.4353630000000  0.5291160000000 1.0
C      1  0.5279080000000  0.5652230000000  0.5345350000000 1.0
C      1  0.5295520000000  0.5281100000000  0.4366630000000 1.0
C      1  0.5277750000000  0.4697620000000  0.4398650000000 1.0
C      1  0.4234170000000  0.5129630000000  0.5429470000000 1.0
C      1  0.4239520000000  0.4862860000000  0.5436460000000 1.0
C      1  0.4471610000000  0.5276260000000  0.4788850000000 1.0
C      1  0.4462240000000  0.4726050000000  0.4776800000000 1.0
C      1  0.5001500000000  0.4616020000000  0.4419650000000 1.0
C      1  0.5015520000000  0.5313410000000  0.4380910000000 1.0
C      1  0.5273730000000  0.4270000000000  0.5013660000000 1.0
C      1  0.5286070000000  0.5756410000000  0.5074210000000 1.0
C      1  0.4881980000000  0.4410310000000  0.4611340000000 1.0
C      1  0.4927260000000  0.5471730000000  0.4616900000000 1.0
C      1  0.5247860000000  0.5583900000000  0.4807180000000 1.0
C      1  0.5235530000000  0.4466200000000  0.4763690000000 1.0
C      1  0.4553720000000  0.5483620000000  0.5439340000000 1.0
C      1  0.4582000000000  0.4530270000000  0.5456750000000 1.0
C      1  0.4837120000000  0.4743980000000  0.5058960000000 1.0
C      1  0.4842450000000  0.5271730000000  0.5092210000000 1.0
C      1  0.5689760000000  0.4757100000000  0.4660740000000 1.0
C      1  0.5690100000000  0.5259790000000  0.4657120000000 1.0
C      1  0.4588280000000  0.5688200000000  0.4912890000000 1.0
C      1  0.4552080000000  0.4328950000000  0.4953150000000 1.0
C      1  0.4771000000000  0.5646200000000  0.5374500000000 1.0
C      1  0.4789650000000  0.4359350000000  0.5372820000000 1.0
C      1  0.5218450000000  0.5281040000000  0.5414910000000 1.0
C      1  0.5220610000000  0.4715550000000  0.5396720000000 1.0
C      1  0.5554920000000  0.5173550000000  0.5148570000000 1.0
C      1  0.5557210000000  0.4838070000000  0.5142000000000 1.0
C      1  0.4801030000000  0.4407730000000  0.5082600000000 1.0
C      1  0.4814280000000  0.5624650000000  0.5083060000000 1.0
C      1  0.4978180000000  0.5142580000000  0.5319410000000 1.0
C      1  0.4982490000000  0.4858020000000  0.5297090000000 1.0
C      1  0.4555490000000  0.5167290000000  0.5061900000000 1.0
C      1  0.4549890000000  0.4840020000000  0.5056420000000 1.0
C      1  0.4582860000000  0.4459600000000  0.4700840000000 1.0
C      1  0.4629480000000  0.5508990000000  0.4696600000000 1.0
C      1  0.4885100000000  0.5070440000000  0.4365860000000 1.0
C      1  0.4862380000000  0.4845560000000  0.4531400000000 1.0
C      1  0.4981360000000  0.4875040000000  0.4814790000000 1.0
C      1  0.4995050000000  0.5177710000000  0.4858200000000 1.0
C      1  0.5759870000000  0.4859460000000  0.4916100000000 1.0
C      1  0.5757270000000  0.5160150000000  0.4916560000000 1.0
C      1  0.5393870000000  0.5151450000000  0.5623390000000 1.0
C      1  0.5394240000000  0.4837090000000  0.5614150000000 1.0
C      1  0.4347760000000  0.5115650000000  0.4598790000000 1.0
C      1  0.4291960000000  0.4854200000000  0.4592910000000 1.0
C      1  0.5418670000000  0.4850430000000  0.4610490000000 1.0
C      1  0.5417070000000  0.5171740000000  0.4608130000000 1.0
C      1  0.5061590000000  0.4375270000000  0.5471500000000 1.0
C      1  0.5034410000000  0.5609530000000  0.5494850000000 1.0
C      1  0.5641450000000  0.4843210000000  0.5429620000000 1.0
C      1  0.5640670000000  0.5156180000000  0.5436860000000 1.0
END
