TITL C-9264-7143-227 6.00985691650933e-06 125000 -368.620011343471 0 0 60 (C1) n - 1
REM
REM in /home/bkarasulu/CARBON/AIRSS/Generating-Clusters/EDIP-Nigel-Params/Higher-Symm/Box-15A/Only-C60/SD-CG/HFTN-CG
REM
REM
REM
REM
REM
REM ./C.cell (414f73aa93bd7a1190c7fd0f31ff2f98)
REM
REM compiler GCC version 9.2.1 20190827 (Red Hat 9.2.1-1)
REM options -cpp -mtune=generic -march=x86-64 -g -O0 -fpre-include=/usr/include/finclude/math-vector-fortran.h
REM seed -2147417745 -1417806503 -1681165765 1261436319 172531361 -1034582861 362808341 1277706177 -1825084805 122204553 383421420 -1591024651 -1039317457 1190145026 755096087 -853020671 1906143551 -1775817568 -1580956506 -710531007 1403137857 1317962054 -1801822687 -1377805483 -1891851394 -37893522 -1645523533 -2054148429 -962391904 -1587631464 -1867505596 778867822 -299892484
REM
CELL 1.54180   50.00000   50.00000   50.00000   90.00000   90.00000   90.00000
LATT -1
SFAC C  
C      1  0.5215840000000  0.4699340000000  0.4478610000000 1.0
C      1  0.4325520000000  0.5439720000000  0.5196090000000 1.0
C      1  0.5263140000000  0.5363100000000  0.5526460000000 1.0
C      1  0.5620030000000  0.4735770000000  0.5075070000000 1.0
C      1  0.5320100000000  0.5331020000000  0.4416660000000 1.0
C      1  0.4567260000000  0.5108780000000  0.5501320000000 1.0
C      1  0.5375940000000  0.4320360000000  0.5050400000000 1.0
C      1  0.5019400000000  0.5682240000000  0.5177570000000 1.0
C      1  0.5470570000000  0.4749990000000  0.4597250000000 1.0
C      1  0.5422880000000  0.5130990000000  0.4858410000000 1.0
C      1  0.5212990000000  0.4535620000000  0.5527560000000 1.0
C      1  0.4806690000000  0.5286690000000  0.4727720000000 1.0
C      1  0.4988920000000  0.4987700000000  0.5645850000000 1.0
C      1  0.4770820000000  0.4482410000000  0.4700780000000 1.0
C      1  0.4730800000000  0.4475570000000  0.5424910000000 1.0
C      1  0.5020290000000  0.5205500000000  0.5438740000000 1.0
C      1  0.4768110000000  0.4967970000000  0.5065080000000 1.0
C      1  0.5729780000000  0.5350000000000  0.4709740000000 1.0
C      1  0.4824330000000  0.4807650000000  0.4285900000000 1.0
C      1  0.5622990000000  0.4944550000000  0.4456290000000 1.0
C      1  0.4711360000000  0.4986620000000  0.4771480000000 1.0
C      1  0.5235880000000  0.5700640000000  0.4747780000000 1.0
C      1  0.4723230000000  0.5414110000000  0.4479780000000 1.0
C      1  0.5115350000000  0.4877670000000  0.4278050000000 1.0
C      1  0.4332130000000  0.4684380000000  0.4874990000000 1.0
C      1  0.4411380000000  0.4940450000000  0.4737080000000 1.0
C      1  0.5156100000000  0.4765520000000  0.5671370000000 1.0
C      1  0.4307470000000  0.5178400000000  0.5097010000000 1.0
C      1  0.4719020000000  0.5458250000000  0.4943990000000 1.0
C      1  0.4743300000000  0.5396650000000  0.5450940000000 1.0
C      1  0.4710800000000  0.4924400000000  0.5676130000000 1.0
C      1  0.5017440000000  0.5104150000000  0.5152260000000 1.0
C      1  0.4496110000000  0.4439680000000  0.4798520000000 1.0
C      1  0.5528320000000  0.5191560000000  0.4574660000000 1.0
C      1  0.5557190000000  0.4476030000000  0.5196820000000 1.0
C      1  0.5010170000000  0.4455770000000  0.5333540000000 1.0
C      1  0.5482860000000  0.4492750000000  0.5466050000000 1.0
C      1  0.5164330000000  0.5613660000000  0.5606910000000 1.0
C      1  0.5670660000000  0.5217810000000  0.5214320000000 1.0
C      1  0.5702630000000  0.4943510000000  0.5241540000000 1.0
C      1  0.4935900000000  0.5646220000000  0.5444270000000 1.0
C      1  0.4248830000000  0.5150890000000  0.4825220000000 1.0
C      1  0.4504560000000  0.4449980000000  0.5241130000000 1.0
C      1  0.5093860000000  0.5156680000000  0.4362460000000 1.0
C      1  0.5502310000000  0.5346540000000  0.5389540000000 1.0
C      1  0.5760280000000  0.5345780000000  0.4983110000000 1.0
C      1  0.4368990000000  0.4708560000000  0.5177110000000 1.0
C      1  0.4949400000000  0.4333320000000  0.4856310000000 1.0
C      1  0.5099930000000  0.4321070000000  0.5089630000000 1.0
C      1  0.4674500000000  0.5033710000000  0.4204200000000 1.0
C      1  0.4855530000000  0.4753900000000  0.4602580000000 1.0
C      1  0.5430820000000  0.4830880000000  0.4875460000000 1.0
C      1  0.4669120000000  0.4651490000000  0.5632690000000 1.0
C      1  0.5271240000000  0.5588880000000  0.4506280000000 1.0
C      1  0.4504860000000  0.4984780000000  0.5224200000000 1.0
C      1  0.4833560000000  0.5250910000000  0.4286640000000 1.0
C      1  0.5177690000000  0.5559420000000  0.4979500000000 1.0
C      1  0.4502870000000  0.4261790000000  0.5023760000000 1.0
C      1  0.4600580000000  0.5493640000000  0.5196700000000 1.0
C      1  0.5143080000000  0.5264600000000  0.4925610000000 1.0
END
