TITL C-9258-7861-318 -8.85046021704247e-05 125000 -364.923722582146 0 0 60 (C1) n - 1
REM
REM in /home/bkarasulu/CARBON/AIRSS/Generating-Clusters/EDIP-Nigel-Params/Higher-Symm/Box-15A/Only-C60/SD-CG/HFTN-CG
REM
REM
REM
REM
REM
REM ./C.cell (414f73aa93bd7a1190c7fd0f31ff2f98)
REM
REM compiler GCC version 9.2.1 20190827 (Red Hat 9.2.1-1)
REM options -cpp -mtune=generic -march=x86-64 -g -O0 -fpre-include=/usr/include/finclude/math-vector-fortran.h
REM seed -586634136 2070855887 813819488 -1744335353 -1390609942 442963781 1068590146 -533027967 -827118639 -339476882 1638315371 2099960103 -1001611209 -1523156198 -1309710238 -1256441614 1869811011 631604977 464097225 -589058201 2074093433 1947258653 -1578031890 -1750700131 1001343894 -835494318 76183724 -1487072910 -68879276 1764172821 1719939106 -1560535896 -1750261956
REM
CELL 1.54180   50.00000   50.00000   50.00000   90.00000   90.00000   90.00000
LATT -1
SFAC C  
C      1  0.4527910000000  0.4877110000000  0.4457150000000 1.0
C      1  0.4758410000000  0.4695450000000  0.4530200000000 1.0
C      1  0.4871440000000  0.4458930000000  0.4376790000000 1.0
C      1  0.5174270000000  0.4446780000000  0.4326890000000 1.0
C      1  0.5368740000000  0.4653580000000  0.4447520000000 1.0
C      1  0.5494700000000  0.4927330000000  0.4481280000000 1.0
C      1  0.5345900000000  0.5177240000000  0.4601630000000 1.0
C      1  0.5255350000000  0.5454080000000  0.4486340000000 1.0
C      1  0.4960040000000  0.5520380000000  0.4473190000000 1.0
C      1  0.4677610000000  0.5431340000000  0.4387060000000 1.0
C      1  0.4522150000000  0.5179960000000  0.4455940000000 1.0
C      1  0.5322830000000  0.4353360000000  0.4878930000000 1.0
C      1  0.5456250000000  0.4610430000000  0.4987890000000 1.0
C      1  0.5460880000000  0.4918660000000  0.5088480000000 1.0
C      1  0.5260370000000  0.5412810000000  0.5098560000000 1.0
C      1  0.5012290000000  0.5594180000000  0.5026990000000 1.0
C      1  0.4719450000000  0.5552600000000  0.4939690000000 1.0
C      1  0.4429320000000  0.5447350000000  0.4945350000000 1.0
C      1  0.4325550000000  0.5164540000000  0.5010870000000 1.0
C      1  0.4510250000000  0.4947270000000  0.5088410000000 1.0
C      1  0.4862690000000  0.4181610000000  0.5022540000000 1.0
C      1  0.5111780000000  0.4137460000000  0.4891560000000 1.0
C      1  0.5480850000000  0.5201560000000  0.5492110000000 1.0
C      1  0.5337250000000  0.5430820000000  0.5388630000000 1.0
C      1  0.5128430000000  0.5514440000000  0.5553580000000 1.0
C      1  0.4858640000000  0.5508030000000  0.5612860000000 1.0
C      1  0.4709000000000  0.5279900000000  0.5707800000000 1.0
C      1  0.4564760000000  0.5122520000000  0.5530560000000 1.0
C      1  0.4592320000000  0.4902470000000  0.5362320000000 1.0
C      1  0.4805580000000  0.4719890000000  0.5413720000000 1.0
C      1  0.5074040000000  0.4660190000000  0.5443060000000 1.0
C      1  0.5324780000000  0.4751920000000  0.5533030000000 1.0
C      1  0.5510070000000  0.4929680000000  0.5387420000000 1.0
C      1  0.4291550000000  0.5527090000000  0.4682830000000 1.0
C      1  0.4179010000000  0.5069800000000  0.4758310000000 1.0
C      1  0.4459330000000  0.4716580000000  0.4915400000000 1.0
C      1  0.4705170000000  0.4293620000000  0.4813280000000 1.0
C      1  0.5057250000000  0.4050770000000  0.4603270000000 1.0
C      1  0.5467200000000  0.4238050000000  0.4643510000000 1.0
C      1  0.5683630000000  0.4601930000000  0.4790670000000 1.0
C      1  0.5684790000000  0.5053080000000  0.4926030000000 1.0
C      1  0.5487300000000  0.5509110000000  0.4923720000000 1.0
C      1  0.5124630000000  0.5789420000000  0.4823710000000 1.0
C      1  0.4673520000000  0.5764260000000  0.4729740000000 1.0
C      1  0.5590380000000  0.4477080000000  0.4541450000000 1.0
C      1  0.5727630000000  0.4874300000000  0.4684870000000 1.0
C      1  0.5578800000000  0.5281360000000  0.4771590000000 1.0
C      1  0.5362610000000  0.5661780000000  0.4696370000000 1.0
C      1  0.4932980000000  0.5790140000000  0.4598520000000 1.0
C      1  0.4502750000000  0.5655400000000  0.4512340000000 1.0
C      1  0.4251300000000  0.5265680000000  0.4545840000000 1.0
C      1  0.4317380000000  0.4814410000000  0.4671080000000 1.0
C      1  0.4694720000000  0.4585140000000  0.4801940000000 1.0
C      1  0.4807020000000  0.4208970000000  0.4544510000000 1.0
C      1  0.5271390000000  0.4170230000000  0.4428420000000 1.0
C      1  0.5124320000000  0.5079530000000  0.4766570000000 1.0
C      1  0.4991470000000  0.5054070000000  0.5237890000000 1.0
C      1  0.4962840000000  0.5156090000000  0.5748680000000 1.0
C      1  0.5202590000000  0.5108510000000  0.5040330000000 1.0
C      1  0.5112080000000  0.5072470000000  0.5507520000000 1.0
END
