TITL C-9257-5531-167 -1.93703341696573e-05 125000 -354.272697958141 0 0 60 (C4) n - 1
REM
REM in /home/bkarasulu/CARBON/AIRSS/Generating-Clusters/EDIP-Nigel-Params/Higher-Symm/Box-15A/Only-C60/SD-CG/HFTN-CG
REM
REM
REM
REM
REM
REM ./C.cell (414f73aa93bd7a1190c7fd0f31ff2f98)
REM
REM compiler GCC version 9.2.1 20190827 (Red Hat 9.2.1-1)
REM options -cpp -mtune=generic -march=x86-64 -g -O0 -fpre-include=/usr/include/finclude/math-vector-fortran.h
REM seed -1053394562 -2122374594 1940455224 -1341007766 1014716756 35266422 1387002306 -1722751805 -1220054177 -823706708 -1325876317 -595128040 -1448539478 958966463 434830048 1168104063 1493990577 -2018577963 764598023 1942621140 1484728850 -1558433021 1391398664 1894681052 1665648644 -540399710 696971813 1002918055 -1483808382 399113804 667172567 1989015754 2047321859
REM
CELL 1.54180   50.00000   50.00000   50.00000   90.00000   90.00000   90.00000
LATT -1
SFAC C  
C      1  0.5099530000000  0.5504120000000  0.4624190000000 1.0
C      1  0.5365580000000  0.5511710000000  0.5098920000000 1.0
C      1  0.4890820000000  0.5510020000000  0.5365020000000 1.0
C      1  0.4624760000000  0.5502440000000  0.4890290000000 1.0
C      1  0.5068160000000  0.4933570000000  0.4335970000000 1.0
C      1  0.5665240000000  0.4947050000000  0.5068160000000 1.0
C      1  0.4932980000000  0.4946430000000  0.5665300000000 1.0
C      1  0.4335900000000  0.4932960000000  0.4933120000000 1.0
C      1  0.5207350000000  0.5766730000000  0.5048440000000 1.0
C      1  0.4936130000000  0.5765830000000  0.5206490000000 1.0
C      1  0.4778110000000  0.5761440000000  0.4935300000000 1.0
C      1  0.5049320000000  0.5762340000000  0.4777240000000 1.0
C      1  0.4872380000000  0.5313010000000  0.4579570000000 1.0
C      1  0.5414030000000  0.5321280000000  0.4871980000000 1.0
C      1  0.5121560000000  0.5324260000000  0.5413650000000 1.0
C      1  0.4579910000000  0.5315990000000  0.5121240000000 1.0
C      1  0.4581250000000  0.4529360000000  0.5525020000000 1.0
C      1  0.4484530000000  0.4518400000000  0.4581840000000 1.0
C      1  0.5427730000000  0.4526350000000  0.4485030000000 1.0
C      1  0.5524450000000  0.4537300000000  0.5428210000000 1.0
C      1  0.4596440000000  0.4326070000000  0.4730850000000 1.0
C      1  0.5282650000000  0.4331180000000  0.4597170000000 1.0
C      1  0.5416260000000  0.4339750000000  0.5283350000000 1.0
C      1  0.4730050000000  0.4334650000000  0.5417030000000 1.0
C      1  0.4795000000000  0.5111160000000  0.5209080000000 1.0
C      1  0.4788700000000  0.5106690000000  0.4794900000000 1.0
C      1  0.5202890000000  0.5110560000000  0.4788560000000 1.0
C      1  0.5209190000000  0.5115030000000  0.5202740000000 1.0
C      1  0.4372970000000  0.5222000000000  0.4542540000000 1.0
C      1  0.5452830000000  0.5230470000000  0.4372670000000 1.0
C      1  0.5622600000000  0.5243580000000  0.5452500000000 1.0
C      1  0.4542740000000  0.5235110000000  0.5622380000000 1.0
C      1  0.5144630000000  0.4760420000000  0.5586750000000 1.0
C      1  0.4418210000000  0.4748810000000  0.5144970000000 1.0
C      1  0.4860070000000  0.4745280000000  0.4418510000000 1.0
C      1  0.5586490000000  0.4756900000000  0.4860290000000 1.0
C      1  0.4759400000000  0.5420500000000  0.5643330000000 1.0
C      1  0.4348310000000  0.5407170000000  0.4759000000000 1.0
C      1  0.5232690000000  0.5411220000000  0.4347820000000 1.0
C      1  0.5643780000000  0.5424540000000  0.5232150000000 1.0
C      1  0.5204110000000  0.4800660000000  0.4900750000000 1.0
C      1  0.5103260000000  0.4802930000000  0.5204330000000 1.0
C      1  0.4799700000000  0.4798960000000  0.5103510000000 1.0
C      1  0.4900550000000  0.4796690000000  0.4799930000000 1.0
C      1  0.5191060000000  0.4292320000000  0.5127820000000 1.0
C      1  0.4886480000000  0.4290100000000  0.5191870000000 1.0
C      1  0.4822470000000  0.4286250000000  0.4887300000000 1.0
C      1  0.5127040000000  0.4288470000000  0.4823260000000 1.0
C      1  0.5685630000000  0.5232320000000  0.4977530000000 1.0
C      1  0.5017840000000  0.5233500000000  0.5685370000000 1.0
C      1  0.4310070000000  0.5219660000000  0.5017660000000 1.0
C      1  0.4977850000000  0.5218480000000  0.4309820000000 1.0
C      1  0.5318800000000  0.5005550000000  0.4510780000000 1.0
C      1  0.5489040000000  0.5015770000000  0.5318740000000 1.0
C      1  0.4681050000000  0.5009890000000  0.5489050000000 1.0
C      1  0.4510820000000  0.4999670000000  0.4681090000000 1.0
C      1  0.5506550000000  0.4774590000000  0.4581000000000 1.0
C      1  0.5423500000000  0.4783650000000  0.5506750000000 1.0
C      1  0.4497750000000  0.4773960000000  0.5423800000000 1.0
C      1  0.4580790000000  0.4764900000000  0.4498050000000 1.0
END
