TITL C-9265-7156-116 1.39742183572186e-05 125000 -366.160299098421 0 0 60 (C1) n - 1
REM
REM in /home/bkarasulu/CARBON/AIRSS/Generating-Clusters/EDIP-Nigel-Params/Higher-Symm/Box-15A/Only-C60/SD-CG/HFTN-CG
REM
REM
REM
REM
REM
REM ./C.cell (414f73aa93bd7a1190c7fd0f31ff2f98)
REM
REM compiler GCC version 9.2.1 20190827 (Red Hat 9.2.1-1)
REM options -cpp -mtune=generic -march=x86-64 -g -O0 -fpre-include=/usr/include/finclude/math-vector-fortran.h
REM seed 636512337 452062217 1084735511 51606852 -890678422 174827912 -87201486 -1846820676 -736365911 1512015396 -1317393027 -1777699991 -1702133461 1098314433 -1862883926 1038986698 1651560046 356817407 2082680654 1243909017 1267265641 -1374706054 -1961773261 -1285816603 -1923369850 707733820 1736689388 2048422408 174431445 348961759 -70409214 699437191 -1046522463
REM
CELL 1.54180   50.00000   50.00000   50.00000   90.00000   90.00000   90.00000
LATT -1
SFAC C  
C      1  0.5387890000000  0.5543170000000  0.5462150000000 1.0
C      1  0.4645660000000  0.5363280000000  0.4477410000000 1.0
C      1  0.5344940000000  0.4457870000000  0.5563460000000 1.0
C      1  0.4595830000000  0.4610890000000  0.4426980000000 1.0
C      1  0.5282080000000  0.5534910000000  0.4585350000000 1.0
C      1  0.4651720000000  0.5347600000000  0.5504060000000 1.0
C      1  0.5350210000000  0.4602840000000  0.4529450000000 1.0
C      1  0.4640860000000  0.4617640000000  0.5477360000000 1.0
C      1  0.4788260000000  0.4214460000000  0.4713980000000 1.0
C      1  0.5089990000000  0.4181990000000  0.5194260000000 1.0
C      1  0.4778840000000  0.5805040000000  0.4720400000000 1.0
C      1  0.5075750000000  0.5857600000000  0.5192820000000 1.0
C      1  0.4803150000000  0.4196880000000  0.5197130000000 1.0
C      1  0.5073390000000  0.4209760000000  0.4709750000000 1.0
C      1  0.4801720000000  0.5772930000000  0.5196810000000 1.0
C      1  0.5053550000000  0.5892550000000  0.4715900000000 1.0
C      1  0.5363700000000  0.4736500000000  0.5550460000000 1.0
C      1  0.4809280000000  0.4767340000000  0.4344750000000 1.0
C      1  0.5376900000000  0.5265550000000  0.5480360000000 1.0
C      1  0.4874550000000  0.5201160000000  0.4531360000000 1.0
C      1  0.5223720000000  0.4868990000000  0.4597340000000 1.0
C      1  0.4878680000000  0.4760770000000  0.5579930000000 1.0
C      1  0.5302860000000  0.5316360000000  0.4756390000000 1.0
C      1  0.4888300000000  0.5203290000000  0.5615520000000 1.0
C      1  0.4325410000000  0.5152500000000  0.4824290000000 1.0
C      1  0.5643840000000  0.5166440000000  0.5075320000000 1.0
C      1  0.4318580000000  0.4842220000000  0.4812270000000 1.0
C      1  0.5500390000000  0.4772860000000  0.5102560000000 1.0
C      1  0.4534380000000  0.5138490000000  0.5053620000000 1.0
C      1  0.5664000000000  0.5016350000000  0.4826640000000 1.0
C      1  0.4525740000000  0.4826320000000  0.5038880000000 1.0
C      1  0.5693830000000  0.4714710000000  0.4861870000000 1.0
C      1  0.5439950000000  0.5086800000000  0.4637720000000 1.0
C      1  0.4481930000000  0.5171490000000  0.5339000000000 1.0
C      1  0.5599600000000  0.4574260000000  0.4643190000000 1.0
C      1  0.4466470000000  0.4792830000000  0.5321570000000 1.0
C      1  0.5608250000000  0.5120170000000  0.5354580000000 1.0
C      1  0.4409010000000  0.5264760000000  0.4582630000000 1.0
C      1  0.5594520000000  0.4824450000000  0.5389250000000 1.0
C      1  0.4392430000000  0.4739740000000  0.4563430000000 1.0
C      1  0.4712530000000  0.5595830000000  0.5388300000000 1.0
C      1  0.5223490000000  0.5789010000000  0.4520630000000 1.0
C      1  0.4681150000000  0.4357070000000  0.5383670000000 1.0
C      1  0.5199100000000  0.4372510000000  0.4526300000000 1.0
C      1  0.4685140000000  0.5633960000000  0.4522700000000 1.0
C      1  0.5257460000000  0.5759010000000  0.5375640000000 1.0
C      1  0.4654740000000  0.4356610000000  0.4517730000000 1.0
C      1  0.5239660000000  0.4261330000000  0.5414230000000 1.0
C      1  0.5122310000000  0.4839050000000  0.5396610000000 1.0
C      1  0.5051030000000  0.5190500000000  0.4876010000000 1.0
C      1  0.5076960000000  0.4883980000000  0.4865910000000 1.0
C      1  0.5106110000000  0.5148940000000  0.5408330000000 1.0
C      1  0.4650820000000  0.5823480000000  0.4967690000000 1.0
C      1  0.5159140000000  0.5983680000000  0.4958810000000 1.0
C      1  0.4671630000000  0.4145540000000  0.4956590000000 1.0
C      1  0.5201920000000  0.4127900000000  0.4944530000000 1.0
C      1  0.4994040000000  0.4962310000000  0.4416490000000 1.0
C      1  0.4813100000000  0.4971460000000  0.5754480000000 1.0
C      1  0.5196030000000  0.4754720000000  0.5101850000000 1.0
C      1  0.5023470000000  0.5255120000000  0.5153290000000 1.0
END
