TITL C-9255-4564-213 1.01656129493578e-06 125000 -370.349459278608 0 0 60 (C1) n - 1
REM
REM in /home/bkarasulu/CARBON/AIRSS/Generating-Clusters/EDIP-Nigel-Params/Higher-Symm/Box-15A/Only-C60/SD-CG/HFTN-CG
REM
REM
REM
REM
REM
REM ./C.cell (414f73aa93bd7a1190c7fd0f31ff2f98)
REM
REM compiler GCC version 9.2.1 20190827 (Red Hat 9.2.1-1)
REM options -cpp -mtune=generic -march=x86-64 -g -O0 -fpre-include=/usr/include/finclude/math-vector-fortran.h
REM seed -1498739316 -1096623824 -1142840571 59208361 -1225808378 -496155928 -435270113 1497201432 -1364927527 744977179 1254347669 -880952039 1682928137 -586973090 993600065 -1634267694 -759774660 -261930001 1946491621 -1224275367 -1522871167 1159779599 531601177 1882258376 -843668948 1339822733 1919173244 -816925720 -1108864042 -565120514 -1841976528 -884669959 -238843663
REM
CELL 1.54180   50.00000   50.00000   50.00000   90.00000   90.00000   90.00000
LATT -1
SFAC C  
C      1  0.5308990000000  0.5354540000000  0.5758530000000 1.0
C      1  0.4663660000000  0.5307890000000  0.4505050000000 1.0
C      1  0.4243970000000  0.5114140000000  0.5041290000000 1.0
C      1  0.5374360000000  0.4653940000000  0.5208880000000 1.0
C      1  0.4564880000000  0.5088380000000  0.4697730000000 1.0
C      1  0.5169020000000  0.5080060000000  0.5208900000000 1.0
C      1  0.4866790000000  0.5176150000000  0.4326310000000 1.0
C      1  0.4689600000000  0.5534790000000  0.5316570000000 1.0
C      1  0.5079990000000  0.5695340000000  0.4938110000000 1.0
C      1  0.5439210000000  0.4947040000000  0.5242750000000 1.0
C      1  0.4288800000000  0.5116290000000  0.4775680000000 1.0
C      1  0.5191550000000  0.4283790000000  0.4597870000000 1.0
C      1  0.5085020000000  0.4906070000000  0.4706150000000 1.0
C      1  0.4604580000000  0.5678840000000  0.5089190000000 1.0
C      1  0.4688740000000  0.4761040000000  0.5062150000000 1.0
C      1  0.5324420000000  0.4733260000000  0.4677330000000 1.0
C      1  0.5158350000000  0.4571080000000  0.5390800000000 1.0
C      1  0.4529920000000  0.4596240000000  0.5483490000000 1.0
C      1  0.5050890000000  0.5588360000000  0.4480780000000 1.0
C      1  0.4975770000000  0.4276930000000  0.5043160000000 1.0
C      1  0.5731370000000  0.4925260000000  0.4833850000000 1.0
C      1  0.4801000000000  0.5620330000000  0.4895040000000 1.0
C      1  0.5349470000000  0.5228340000000  0.4300380000000 1.0
C      1  0.5547840000000  0.5340880000000  0.5002030000000 1.0
C      1  0.5141030000000  0.4703360000000  0.5650870000000 1.0
C      1  0.5648260000000  0.5069030000000  0.5059580000000 1.0
C      1  0.5502610000000  0.5302680000000  0.5552150000000 1.0
C      1  0.5080190000000  0.5259820000000  0.5461220000000 1.0
C      1  0.4736600000000  0.4523220000000  0.4890070000000 1.0
C      1  0.5364440000000  0.4864910000000  0.5701520000000 1.0
C      1  0.4535550000000  0.5360390000000  0.5472930000000 1.0
C      1  0.4538430000000  0.4423370000000  0.4716100000000 1.0
C      1  0.5337610000000  0.5318600000000  0.4786140000000 1.0
C      1  0.5065330000000  0.5129220000000  0.4916480000000 1.0
C      1  0.4634690000000  0.4847020000000  0.4517250000000 1.0
C      1  0.4635780000000  0.4845070000000  0.5604650000000 1.0
C      1  0.4774680000000  0.5567150000000  0.4604990000000 1.0
C      1  0.4431730000000  0.4712900000000  0.5224320000000 1.0
C      1  0.4918620000000  0.4896120000000  0.4448420000000 1.0
C      1  0.4742770000000  0.5052480000000  0.4943810000000 1.0
C      1  0.4721510000000  0.4388690000000  0.5447080000000 1.0
C      1  0.5216540000000  0.4307770000000  0.4880170000000 1.0
C      1  0.5097930000000  0.5354850000000  0.4294930000000 1.0
C      1  0.4314690000000  0.4980100000000  0.5277120000000 1.0
C      1  0.4972810000000  0.5520130000000  0.5378230000000 1.0
C      1  0.5472980000000  0.5185460000000  0.4546950000000 1.0
C      1  0.5003170000000  0.4635320000000  0.4313030000000 1.0
C      1  0.5243850000000  0.5597970000000  0.4711780000000 1.0
C      1  0.5445650000000  0.5476530000000  0.5243710000000 1.0
C      1  0.4788840000000  0.4449990000000  0.4299190000000 1.0
C      1  0.5523590000000  0.5009290000000  0.5520660000000 1.0
C      1  0.5563250000000  0.4910200000000  0.4611800000000 1.0
C      1  0.5356760000000  0.4559960000000  0.4929240000000 1.0
C      1  0.4972940000000  0.4358760000000  0.5323120000000 1.0
C      1  0.4887960000000  0.4802250000000  0.5725750000000 1.0
C      1  0.5067650000000  0.5212870000000  0.5757810000000 1.0
C      1  0.4593560000000  0.4557770000000  0.4474450000000 1.0
C      1  0.5184790000000  0.5625490000000  0.5206140000000 1.0
C      1  0.5238670000000  0.4531510000000  0.4465220000000 1.0
C      1  0.4516380000000  0.5080760000000  0.5461110000000 1.0
END
