TITL C-9260-5597-250 -7.30302576248302e-07 125000 -371.268942349508 0 0 60 (C1) n - 1
REM
REM in /home/bkarasulu/CARBON/AIRSS/Generating-Clusters/EDIP-Nigel-Params/Higher-Symm/Box-15A/Only-C60/SD-CG/HFTN-CG
REM
REM
REM
REM
REM
REM ./C.cell (414f73aa93bd7a1190c7fd0f31ff2f98)
REM
REM compiler GCC version 9.2.1 20190827 (Red Hat 9.2.1-1)
REM options -cpp -mtune=generic -march=x86-64 -g -O0 -fpre-include=/usr/include/finclude/math-vector-fortran.h
REM seed 1270187999 1876242612 -1025424711 -1992962692 -277734834 185844338 867187508 483072414 -577505277 -235337263 2039205760 -2100765323 287332907 586054959 1312001137 -1000365597 -1229930587 2073889784 -2073249829 -208909157 -1134705899 1483902299 -1458732486 28286063 699878070 1929016865 1780999870 577001638 1992194671 -1294353340 -208254935 -1607240960 837877188
REM
CELL 1.54180   50.00000   50.00000   50.00000   90.00000   90.00000   90.00000
LATT -1
SFAC C  
C      1  0.4436620000000  0.5358240000000  0.5317080000000 1.0
C      1  0.5370530000000  0.5241790000000  0.4444370000000 1.0
C      1  0.5225790000000  0.4447950000000  0.5422370000000 1.0
C      1  0.4421980000000  0.4644370000000  0.4650020000000 1.0
C      1  0.5431260000000  0.5283400000000  0.4717720000000 1.0
C      1  0.5621810000000  0.4698110000000  0.5357390000000 1.0
C      1  0.5362190000000  0.4686790000000  0.5451360000000 1.0
C      1  0.4634160000000  0.5409120000000  0.5501920000000 1.0
C      1  0.4632430000000  0.4600390000000  0.4477150000000 1.0
C      1  0.5282190000000  0.5525540000000  0.4697770000000 1.0
C      1  0.4786470000000  0.4373030000000  0.4510610000000 1.0
C      1  0.4729910000000  0.5669000000000  0.5522390000000 1.0
C      1  0.5571780000000  0.5339650000000  0.5297420000000 1.0
C      1  0.4534740000000  0.5228450000000  0.4438400000000 1.0
C      1  0.4638760000000  0.4436400000000  0.5307110000000 1.0
C      1  0.5622210000000  0.4525790000000  0.4781180000000 1.0
C      1  0.4502590000000  0.5343880000000  0.4687010000000 1.0
C      1  0.4518020000000  0.4685220000000  0.5239750000000 1.0
C      1  0.4559570000000  0.4761120000000  0.5508800000000 1.0
C      1  0.5398400000000  0.5383520000000  0.5505730000000 1.0
C      1  0.5327830000000  0.4627650000000  0.4433520000000 1.0
C      1  0.4677130000000  0.5541260000000  0.4767800000000 1.0
C      1  0.5390790000000  0.4461660000000  0.4644690000000 1.0
C      1  0.5301460000000  0.5643600000000  0.5521920000000 1.0
C      1  0.5803780000000  0.4785560000000  0.5167390000000 1.0
C      1  0.4781290000000  0.5203660000000  0.5642050000000 1.0
C      1  0.5138210000000  0.5661300000000  0.4902670000000 1.0
C      1  0.5679660000000  0.5189550000000  0.4835600000000 1.0
C      1  0.4252410000000  0.4784690000000  0.4818010000000 1.0
C      1  0.4282030000000  0.5212730000000  0.5141600000000 1.0
C      1  0.4746420000000  0.4794520000000  0.4295350000000 1.0
C      1  0.5160070000000  0.5085900000000  0.4333340000000 1.0
C      1  0.5225000000000  0.4885170000000  0.5613050000000 1.0
C      1  0.5113250000000  0.4282060000000  0.5231570000000 1.0
C      1  0.4876090000000  0.5820210000000  0.5340120000000 1.0
C      1  0.4921780000000  0.4245680000000  0.4715880000000 1.0
C      1  0.4271050000000  0.4769600000000  0.5111470000000 1.0
C      1  0.5224250000000  0.5180250000000  0.5616560000000 1.0
C      1  0.4854720000000  0.5718630000000  0.4881610000000 1.0
C      1  0.4297140000000  0.5224620000000  0.4850840000000 1.0
C      1  0.5743240000000  0.4752750000000  0.4884570000000 1.0
C      1  0.5743860000000  0.5222040000000  0.5118260000000 1.0
C      1  0.5189950000000  0.4803800000000  0.4271380000000 1.0
C      1  0.4718740000000  0.5085550000000  0.4288870000000 1.0
C      1  0.4780770000000  0.4916040000000  0.5599330000000 1.0
C      1  0.4837870000000  0.4310100000000  0.5146880000000 1.0
C      1  0.5164310000000  0.5789480000000  0.5327690000000 1.0
C      1  0.5194030000000  0.4313070000000  0.4795040000000 1.0
C      1  0.4756820000000  0.5873890000000  0.5092450000000 1.0
C      1  0.4989720000000  0.4777060000000  0.5723970000000 1.0
C      1  0.5284810000000  0.4190150000000  0.5030890000000 1.0
C      1  0.4949970000000  0.5219700000000  0.4199990000000 1.0
C      1  0.5807790000000  0.4968390000000  0.4715580000000 1.0
C      1  0.4758560000000  0.4155320000000  0.4925570000000 1.0
C      1  0.5283370000000  0.5827380000000  0.5076100000000 1.0
C      1  0.5925240000000  0.5033990000000  0.5223160000000 1.0
C      1  0.4143980000000  0.4989070000000  0.5240270000000 1.0
C      1  0.4141360000000  0.5025870000000  0.4722500000000 1.0
C      1  0.4964300000000  0.4696330000000  0.4145780000000 1.0
C      1  0.5015530000000  0.5289990000000  0.5771130000000 1.0
END
