TITL C-9258-7861-13 5.16160892802175 125000 -350.677673312076 0 0 60 (C1) n - 1
REM
REM in /home/bkarasulu/CARBON/AIRSS/Generating-Clusters/EDIP-Nigel-Params/Higher-Symm/Box-15A/Only-C60/SD-CG/HFTN-CG
REM
REM
REM
REM
REM
REM ./C.cell (414f73aa93bd7a1190c7fd0f31ff2f98)
REM
REM compiler GCC version 9.2.1 20190827 (Red Hat 9.2.1-1)
REM options -cpp -mtune=generic -march=x86-64 -g -O0 -fpre-include=/usr/include/finclude/math-vector-fortran.h
REM seed -1364764692 539886863 1569926392 447365853 -1525453077 1430793102 -1854453167 -1987300136 -2129046104 994515873 1227873142 291142432 1227762700 -1449220344 -203800923 -73021056 2077004412 944348287 -1480865212 -165386129 1386630789 -622294300 2108165679 1112000569 815027712 -571746641 -1573011126 -413431697 -551705214 -1100967882 530533217 -540651211 -8178731
REM
CELL 1.54180   50.00000   50.00000   50.00000   90.00000   90.00000   90.00000
LATT -1
SFAC C  
C      1  0.4423290000000  0.4679790000000  0.4677360000000 1.0
C      1  0.5546730000000  0.5234700000000  0.4726000000000 1.0
C      1  0.4581360000000  0.4854580000000  0.4515930000000 1.0
C      1  0.5477260000000  0.5061910000000  0.4503590000000 1.0
C      1  0.5061640000000  0.4340380000000  0.5209710000000 1.0
C      1  0.4890340000000  0.5554100000000  0.5241680000000 1.0
C      1  0.5030090000000  0.5297890000000  0.5317950000000 1.0
C      1  0.4910440000000  0.4589580000000  0.5282570000000 1.0
C      1  0.4811620000000  0.5443690000000  0.4349250000000 1.0
C      1  0.5234890000000  0.4490140000000  0.4318570000000 1.0
C      1  0.4950540000000  0.4504040000000  0.4320500000000 1.0
C      1  0.5091730000000  0.5468210000000  0.4348760000000 1.0
C      1  0.4834090000000  0.4321930000000  0.4502940000000 1.0
C      1  0.5173070000000  0.5657310000000  0.4540970000000 1.0
C      1  0.4615480000000  0.5215130000000  0.5155290000000 1.0
C      1  0.5320660000000  0.4694660000000  0.5148570000000 1.0
C      1  0.5493790000000  0.4820970000000  0.4942190000000 1.0
C      1  0.4474900000000  0.5088760000000  0.4928240000000 1.0
C      1  0.5293560000000  0.4828960000000  0.5417360000000 1.0
C      1  0.4683850000000  0.5044730000000  0.5395990000000 1.0
C      1  0.5426840000000  0.4803360000000  0.4648620000000 1.0
C      1  0.4649450000000  0.5099570000000  0.4683910000000 1.0
C      1  0.5495110000000  0.4347320000000  0.4686260000000 1.0
C      1  0.4508810000000  0.5557050000000  0.4694220000000 1.0
C      1  0.5442000000000  0.4547590000000  0.4503060000000 1.0
C      1  0.4618900000000  0.5361000000000  0.4534740000000 1.0
C      1  0.4717450000000  0.4517160000000  0.5489290000000 1.0
C      1  0.5220280000000  0.5355110000000  0.5533390000000 1.0
C      1  0.4395010000000  0.4687320000000  0.5202470000000 1.0
C      1  0.5557890000000  0.5208340000000  0.5240440000000 1.0
C      1  0.5120340000000  0.5528800000000  0.4785780000000 1.0
C      1  0.4889520000000  0.4444370000000  0.4753970000000 1.0
C      1  0.4994840000000  0.4731820000000  0.4707470000000 1.0
C      1  0.5157640000000  0.5229070000000  0.4744550000000 1.0
C      1  0.5508500000000  0.5008780000000  0.5430380000000 1.0
C      1  0.4461000000000  0.4869770000000  0.5406800000000 1.0
C      1  0.5196760000000  0.5190060000000  0.4420850000000 1.0
C      1  0.4874410000000  0.4774420000000  0.4436040000000 1.0
C      1  0.4592440000000  0.5666530000000  0.4931930000000 1.0
C      1  0.5377760000000  0.4246790000000  0.4913380000000 1.0
C      1  0.4973490000000  0.5673200000000  0.4986360000000 1.0
C      1  0.4995850000000  0.4250840000000  0.4938470000000 1.0
C      1  0.4439760000000  0.4798220000000  0.4935870000000 1.0
C      1  0.5507760000000  0.5104530000000  0.4974240000000 1.0
C      1  0.4547390000000  0.4458600000000  0.5274710000000 1.0
C      1  0.5394780000000  0.5424870000000  0.5325810000000 1.0
C      1  0.5344220000000  0.4401530000000  0.5162420000000 1.0
C      1  0.4611280000000  0.5506930000000  0.5177120000000 1.0
C      1  0.4943700000000  0.5010330000000  0.4833590000000 1.0
C      1  0.4831580000000  0.5072370000000  0.3519600000000 1.0
C      1  0.4997500000000  0.5070800000000  0.6335100000000 1.0
C      1  0.5010950000000  0.5023770000000  0.6075820000000 1.0
C      1  0.5033080000000  0.4981090000000  0.5815730000000 1.0
C      1  0.5025830000000  0.4920520000000  0.5543380000000 1.0
C      1  0.4948870000000  0.5031460000000  0.4024250000000 1.0
C      1  0.4980050000000  0.5115770000000  0.6594510000000 1.0
C      1  0.5017990000000  0.4989000000000  0.4287130000000 1.0
C      1  0.4966060000000  0.5160850000000  0.6845820000000 1.0
C      1  0.4891560000000  0.5045620000000  0.3766730000000 1.0
C      1  0.4967020000000  0.4953000000000  0.5148180000000 1.0
END
