TITL C-9266-5713-58 1.19003132574636e-06 125000 -371.09901835209 0 0 60 (C1) n - 1
REM
REM in /home/bkarasulu/CARBON/AIRSS/Generating-Clusters/EDIP-Nigel-Params/Higher-Symm/Box-15A/Only-C60/SD-CG/HFTN-CG
REM
REM
REM
REM
REM
REM ./C.cell (414f73aa93bd7a1190c7fd0f31ff2f98)
REM
REM compiler GCC version 9.2.1 20190827 (Red Hat 9.2.1-1)
REM options -cpp -mtune=generic -march=x86-64 -g -O0 -fpre-include=/usr/include/finclude/math-vector-fortran.h
REM seed -1605639068 1889821939 1402847476 -1816620633 -2021811274 -635873670 -1423512126 671268239 645776008 440992074 -922444659 -84217724 538974490 1359931237 918428880 1900317661 -825409924 -703090858 -1755614542 1413974031 2061924149 914869338 -1982585574 274181839 -2114022829 529485800 1466765979 1998046874 -1903313618 210152233 1301259118 -1665975437 1401443733
REM
CELL 1.54180   50.00000   50.00000   50.00000   90.00000   90.00000   90.00000
LATT -1
SFAC C  
C      1  0.4817720000000  0.4944690000000  0.5517970000000 1.0
C      1  0.5452480000000  0.4825990000000  0.5661130000000 1.0
C      1  0.4233590000000  0.4900220000000  0.4869630000000 1.0
C      1  0.4936850000000  0.4548550000000  0.4496110000000 1.0
C      1  0.4578840000000  0.5343090000000  0.5463520000000 1.0
C      1  0.4536450000000  0.5049180000000  0.5469670000000 1.0
C      1  0.4521920000000  0.4433620000000  0.5099260000000 1.0
C      1  0.5302250000000  0.5509680000000  0.5431430000000 1.0
C      1  0.5072210000000  0.5183700000000  0.5181210000000 1.0
C      1  0.5528520000000  0.5055070000000  0.4950980000000 1.0
C      1  0.5454970000000  0.5554570000000  0.5197920000000 1.0
C      1  0.4993450000000  0.4899990000000  0.4230380000000 1.0
C      1  0.5378390000000  0.4592670000000  0.4912150000000 1.0
C      1  0.5097710000000  0.4752060000000  0.4945590000000 1.0
C      1  0.4918980000000  0.5469960000000  0.5173810000000 1.0
C      1  0.4995300000000  0.5164970000000  0.5637440000000 1.0
C      1  0.5358210000000  0.4930630000000  0.4544210000000 1.0
C      1  0.5449610000000  0.5224530000000  0.4515230000000 1.0
C      1  0.4639710000000  0.5449050000000  0.4704600000000 1.0
C      1  0.5200430000000  0.4502350000000  0.4393370000000 1.0
C      1  0.4856720000000  0.5164900000000  0.4163490000000 1.0
C      1  0.4625580000000  0.4611490000000  0.4892970000000 1.0
C      1  0.5618660000000  0.4970860000000  0.5233950000000 1.0
C      1  0.5092340000000  0.4960560000000  0.4709830000000 1.0
C      1  0.4982730000000  0.5400260000000  0.4326890000000 1.0
C      1  0.4669210000000  0.4490970000000  0.5553150000000 1.0
C      1  0.4806790000000  0.4693600000000  0.5681460000000 1.0
C      1  0.5465130000000  0.5035060000000  0.5472590000000 1.0
C      1  0.5011990000000  0.5605280000000  0.5433220000000 1.0
C      1  0.5479220000000  0.5534500000000  0.4916180000000 1.0
C      1  0.4978680000000  0.5630590000000  0.4930290000000 1.0
C      1  0.4431790000000  0.4943690000000  0.5204450000000 1.0
C      1  0.4559760000000  0.5128720000000  0.4322830000000 1.0
C      1  0.4754390000000  0.5690710000000  0.4780300000000 1.0
C      1  0.4932870000000  0.4905630000000  0.5209720000000 1.0
C      1  0.5528890000000  0.4807600000000  0.4765220000000 1.0
C      1  0.4628700000000  0.5424840000000  0.5181660000000 1.0
C      1  0.4684630000000  0.4899180000000  0.5033460000000 1.0
C      1  0.5248620000000  0.4518890000000  0.5354550000000 1.0
C      1  0.5617840000000  0.5302070000000  0.4775920000000 1.0
C      1  0.5010420000000  0.4408450000000  0.5213620000000 1.0
C      1  0.4847240000000  0.4451460000000  0.4752390000000 1.0
C      1  0.4602700000000  0.4929670000000  0.4536050000000 1.0
C      1  0.5049560000000  0.4612140000000  0.5786500000000 1.0
C      1  0.5064810000000  0.4362520000000  0.4926920000000 1.0
C      1  0.5270990000000  0.4764070000000  0.4296250000000 1.0
C      1  0.4882560000000  0.4836110000000  0.4501350000000 1.0
C      1  0.4425400000000  0.4756060000000  0.4704270000000 1.0
C      1  0.5483810000000  0.4550690000000  0.5182960000000 1.0
C      1  0.4670150000000  0.5405610000000  0.4406160000000 1.0
C      1  0.5710470000000  0.4705430000000  0.5252140000000 1.0
C      1  0.5229380000000  0.5216510000000  0.5444490000000 1.0
C      1  0.5229970000000  0.5170550000000  0.4930210000000 1.0
C      1  0.4727760000000  0.4417470000000  0.5292790000000 1.0
C      1  0.5213270000000  0.5532080000000  0.4780890000000 1.0
C      1  0.4839320000000  0.5420570000000  0.5614190000000 1.0
C      1  0.5186840000000  0.5360850000000  0.4537320000000 1.0
C      1  0.4276960000000  0.5172920000000  0.4936660000000 1.0
C      1  0.4557920000000  0.5264220000000  0.4937030000000 1.0
C      1  0.5278380000000  0.4608630000000  0.5630050000000 1.0
END
