TITL C-9256-7861-255 -3.03914752170047e-05 125000 -369.330416792498 0 0 60 (C1) n - 1
REM
REM in /home/bkarasulu/CARBON/AIRSS/Generating-Clusters/EDIP-Nigel-Params/Higher-Symm/Box-15A/Only-C60/SD-CG/HFTN-CG
REM
REM
REM
REM
REM
REM ./C.cell (414f73aa93bd7a1190c7fd0f31ff2f98)
REM
REM compiler GCC version 9.2.1 20190827 (Red Hat 9.2.1-1)
REM options -cpp -mtune=generic -march=x86-64 -g -O0 -fpre-include=/usr/include/finclude/math-vector-fortran.h
REM seed -2065716569 1763003049 230879493 -948849737 451103360 -836888944 685810348 684033235 -2053821773 187685849 -1783903038 -791476307 -1812335688 -442899849 248480297 -1253113334 575257599 -933789874 -514600663 -1583366000 1315998705 -1961063753 1176538088 1805794142 148617594 91389446 -1926324841 -18519877 483811680 1622984549 -619866612 1747799343 244377702
REM
CELL 1.54180   50.00000   50.00000   50.00000   90.00000   90.00000   90.00000
LATT -1
SFAC C  
C      1  0.5136620000000  0.5216200000000  0.5743110000000 1.0
C      1  0.5842090000000  0.5210240000000  0.4536930000000 1.0
C      1  0.4162110000000  0.5177960000000  0.4760280000000 1.0
C      1  0.5073440000000  0.4790050000000  0.4234050000000 1.0
C      1  0.5712480000000  0.4905200000000  0.5449000000000 1.0
C      1  0.4140720000000  0.4834750000000  0.5232560000000 1.0
C      1  0.4807230000000  0.4745790000000  0.4232110000000 1.0
C      1  0.4278450000000  0.4906100000000  0.5469750000000 1.0
C      1  0.5839800000000  0.4834630000000  0.5204610000000 1.0
C      1  0.4867200000000  0.5209600000000  0.5743890000000 1.0
C      1  0.4301790000000  0.5094020000000  0.4528770000000 1.0
C      1  0.5892070000000  0.5210100000000  0.4805230000000 1.0
C      1  0.4705300000000  0.4788620000000  0.5490430000000 1.0
C      1  0.5457660000000  0.4884090000000  0.4894580000000 1.0
C      1  0.4544060000000  0.4911250000000  0.4602150000000 1.0
C      1  0.4740990000000  0.5155090000000  0.4524260000000 1.0
C      1  0.5467860000000  0.5141320000000  0.5083310000000 1.0
C      1  0.4544860000000  0.5059910000000  0.5403740000000 1.0
C      1  0.5348220000000  0.5218940000000  0.4524080000000 1.0
C      1  0.4534710000000  0.5117080000000  0.5089600000000 1.0
C      1  0.5448960000000  0.5071040000000  0.5394490000000 1.0
C      1  0.5281560000000  0.4804880000000  0.5473890000000 1.0
C      1  0.4524540000000  0.4856280000000  0.4916100000000 1.0
C      1  0.5398480000000  0.4930460000000  0.4593170000000 1.0
C      1  0.5250170000000  0.4727440000000  0.4440490000000 1.0
C      1  0.4257980000000  0.4713450000000  0.5005090000000 1.0
C      1  0.5549390000000  0.4659940000000  0.5527190000000 1.0
C      1  0.5348070000000  0.5292210000000  0.5577950000000 1.0
C      1  0.4285220000000  0.5286410000000  0.4990750000000 1.0
C      1  0.5609150000000  0.5371590000000  0.4505480000000 1.0
C      1  0.4654430000000  0.5283120000000  0.5579170000000 1.0
C      1  0.5738180000000  0.5299630000000  0.5022920000000 1.0
C      1  0.4488280000000  0.5323650000000  0.4449630000000 1.0
C      1  0.4617310000000  0.4677840000000  0.4424540000000 1.0
C      1  0.5715980000000  0.4724340000000  0.4973780000000 1.0
C      1  0.4434190000000  0.4657240000000  0.5553380000000 1.0
C      1  0.4685890000000  0.4596940000000  0.5026700000000 1.0
C      1  0.5131780000000  0.4691010000000  0.5250290000000 1.0
C      1  0.5122750000000  0.4488280000000  0.4791360000000 1.0
C      1  0.4723460000000  0.5356130000000  0.4983270000000 1.0
C      1  0.5166170000000  0.5346460000000  0.4728880000000 1.0
C      1  0.5150890000000  0.5516020000000  0.5207970000000 1.0
C      1  0.5308460000000  0.5403190000000  0.4984950000000 1.0
C      1  0.4891380000000  0.5258120000000  0.4755120000000 1.0
C      1  0.4865320000000  0.5482310000000  0.5209710000000 1.0
C      1  0.5284570000000  0.4621530000000  0.5005420000000 1.0
C      1  0.4846790000000  0.4659870000000  0.5268730000000 1.0
C      1  0.4833550000000  0.4467720000000  0.4805020000000 1.0
C      1  0.5576450000000  0.5547410000000  0.4937900000000 1.0
C      1  0.4451320000000  0.5545550000000  0.4621180000000 1.0
C      1  0.4714090000000  0.5516430000000  0.5440230000000 1.0
C      1  0.5554490000000  0.4484620000000  0.5065490000000 1.0
C      1  0.4380960000000  0.4442130000000  0.5376490000000 1.0
C      1  0.4688370000000  0.4451270000000  0.4568920000000 1.0
C      1  0.4412550000000  0.4466640000000  0.5098240000000 1.0
C      1  0.5592340000000  0.4449880000000  0.5341800000000 1.0
C      1  0.5245930000000  0.4466470000000  0.4541750000000 1.0
C      1  0.4468990000000  0.5513320000000  0.4899170000000 1.0
C      1  0.5612110000000  0.5607050000000  0.4664120000000 1.0
C      1  0.5291840000000  0.5531160000000  0.5446830000000 1.0
END
