TITL C-9262-5533-205 1.33172695532178e-05 125000 -352.11473231697 0 0 60 (C2) n - 1
REM
REM in /home/bkarasulu/CARBON/AIRSS/Generating-Clusters/EDIP-Nigel-Params/Higher-Symm/Box-15A/Only-C60/SD-CG/HFTN-CG
REM
REM
REM
REM
REM
REM ./C.cell (414f73aa93bd7a1190c7fd0f31ff2f98)
REM
REM compiler GCC version 9.2.1 20190827 (Red Hat 9.2.1-1)
REM options -cpp -mtune=generic -march=x86-64 -g -O0 -fpre-include=/usr/include/finclude/math-vector-fortran.h
REM seed -888766363 -358907679 -1234129137 527701942 -1885377283 -570310428 -2119902260 820603648 702350267 -2090335146 -1488200463 934149078 -1514091978 739266503 1907781859 991083166 -723951516 787721161 -2095817317 993609155 -1723712316 833277065 -1034148300 -1300419687 -754744668 1414910198 1068603721 -2115381230 -180820802 -454299987 -1582392876 1238623423 2068273591
REM
CELL 1.54180   50.00000   50.00000   50.00000   90.00000   90.00000   90.00000
LATT -1
SFAC C  
C      1  0.4793780000000  0.5652100000000  0.4589010000000 1.0
C      1  0.4527830000000  0.5642410000000  0.4984490000000 1.0
C      1  0.4732300000000  0.5631690000000  0.5411810000000 1.0
C      1  0.5206210000000  0.5652460000000  0.5410430000000 1.0
C      1  0.5472150000000  0.5642430000000  0.5014950000000 1.0
C      1  0.5267680000000  0.5631340000000  0.4587640000000 1.0
C      1  0.5120600000000  0.4343820000000  0.5644440000000 1.0
C      1  0.5482970000000  0.4486600000000  0.5207960000000 1.0
C      1  0.5464660000000  0.4388880000000  0.4570400000000 1.0
C      1  0.4879410000000  0.4343260000000  0.4356130000000 1.0
C      1  0.4517050000000  0.4486400000000  0.4792480000000 1.0
C      1  0.4535350000000  0.4389240000000  0.5430120000000 1.0
C      1  0.4973540000000  0.5544640000000  0.5518320000000 1.0
C      1  0.5427790000000  0.5554450000000  0.5274690000000 1.0
C      1  0.5469980000000  0.5543280000000  0.4755560000000 1.0
C      1  0.5026450000000  0.5544190000000  0.4481210000000 1.0
C      1  0.4572200000000  0.5554200000000  0.4724840000000 1.0
C      1  0.4530010000000  0.5543480000000  0.5243970000000 1.0
C      1  0.5228970000000  0.5148850000000  0.4279030000000 1.0
C      1  0.4580680000000  0.5197300000000  0.4398580000000 1.0
C      1  0.4260140000000  0.5174980000000  0.5089500000000 1.0
C      1  0.4771030000000  0.5149460000000  0.5720840000000 1.0
C      1  0.5419310000000  0.5197830000000  0.5601250000000 1.0
C      1  0.5739860000000  0.5174920000000  0.4910340000000 1.0
C      1  0.5073310000000  0.4762990000000  0.5774370000000 1.0
C      1  0.5681580000000  0.4810330000000  0.5492170000000 1.0
C      1  0.5744350000000  0.4768800000000  0.4658620000000 1.0
C      1  0.4926700000000  0.4762320000000  0.4225830000000 1.0
C      1  0.4318420000000  0.4809890000000  0.4507990000000 1.0
C      1  0.4255660000000  0.4769080000000  0.5341580000000 1.0
C      1  0.4545450000000  0.5255660000000  0.4689650000000 1.0
C      1  0.4499610000000  0.5244070000000  0.5248290000000 1.0
C      1  0.4991090000000  0.5244940000000  0.5553860000000 1.0
C      1  0.5454540000000  0.5255930000000  0.5310130000000 1.0
C      1  0.5500380000000  0.5243860000000  0.4751500000000 1.0
C      1  0.5008900000000  0.5244460000000  0.4445930000000 1.0
C      1  0.5774860000000  0.5041730000000  0.4666070000000 1.0
C      1  0.5031520000000  0.5011320000000  0.4142870000000 1.0
C      1  0.4333600000000  0.5083040000000  0.4478020000000 1.0
C      1  0.4225140000000  0.5042000000000  0.5333900000000 1.0
C      1  0.4968480000000  0.5012060000000  0.5857120000000 1.0
C      1  0.5666400000000  0.5083510000000  0.5521910000000 1.0
C      1  0.5195560000000  0.4466290000000  0.4538490000000 1.0
C      1  0.4650250000000  0.4516520000000  0.4327410000000 1.0
C      1  0.4564390000000  0.4514000000000  0.5059680000000 1.0
C      1  0.4804450000000  0.4466680000000  0.5461970000000 1.0
C      1  0.5349760000000  0.4517110000000  0.5673000000000 1.0
C      1  0.5435620000000  0.4513960000000  0.4940740000000 1.0
C      1  0.4357620000000  0.4526990000000  0.5254690000000 1.0
C      1  0.4910650000000  0.4530550000000  0.5720510000000 1.0
C      1  0.5528600000000  0.4583080000000  0.5461650000000 1.0
C      1  0.5642390000000  0.4526780000000  0.4745720000000 1.0
C      1  0.5089360000000  0.4529930000000  0.4279890000000 1.0
C      1  0.4471410000000  0.4582670000000  0.4538710000000 1.0
C      1  0.4741810000000  0.5113520000000  0.5130170000000 1.0
C      1  0.4985580000000  0.5110580000000  0.5286400000000 1.0
C      1  0.5243020000000  0.5106760000000  0.5157610000000 1.0
C      1  0.5258190000000  0.5113420000000  0.4869730000000 1.0
C      1  0.5014420000000  0.5110340000000  0.4713500000000 1.0
C      1  0.4756970000000  0.5106620000000  0.4842300000000 1.0
END
