TITL C-9260-5597-57 -5.44572071929935e-07 125000 -353.450903391069 0 0 60 (C3h) n - 1
REM
REM in /home/bkarasulu/CARBON/AIRSS/Generating-Clusters/EDIP-Nigel-Params/Higher-Symm/Box-15A/Only-C60/SD-CG/HFTN-CG
REM
REM
REM
REM
REM
REM ./C.cell (414f73aa93bd7a1190c7fd0f31ff2f98)
REM
REM compiler GCC version 9.2.1 20190827 (Red Hat 9.2.1-1)
REM options -cpp -mtune=generic -march=x86-64 -g -O0 -fpre-include=/usr/include/finclude/math-vector-fortran.h
REM seed 1371261656 -102603783 606276653 959944267 1135776752 1481638742 734361663 -1930542470 -1550111435 -237437342 1321075209 1062621592 -385133822 -1959704579 -9995195 755492607 1937061888 2138607719 145004546 901100227 1485112792 321711998 -11001382 426459181 -198610803 -1694571425 1224485945 447987346 697812081 1011320667 -663142432 -1350293145 -1841808356
REM
CELL 1.54180   50.00000   50.00000   50.00000   90.00000   90.00000   90.00000
LATT -1
SFAC C  
C      1  0.4863900000000  0.5376180000000  0.5534120000000 1.0
C      1  0.4742230000000  0.4694060000000  0.5534110000000 1.0
C      1  0.5393800000000  0.4929740000000  0.5534140000000 1.0
C      1  0.4863950000000  0.5376190000000  0.4465880000000 1.0
C      1  0.4742270000000  0.4694070000000  0.4465860000000 1.0
C      1  0.5393850000000  0.4929760000000  0.4465900000000 1.0
C      1  0.4416000000000  0.5116190000000  0.5280460000000 1.0
C      1  0.5191360000000  0.4436160000000  0.5280480000000 1.0
C      1  0.5392600000000  0.5447650000000  0.5280500000000 1.0
C      1  0.4416030000000  0.5116190000000  0.4719490000000 1.0
C      1  0.5191380000000  0.4436160000000  0.4719520000000 1.0
C      1  0.5392630000000  0.5447650000000  0.4719540000000 1.0
C      1  0.5376940000000  0.5153160000000  0.4846180000000 1.0
C      1  0.4678910000000  0.5249850000000  0.4846150000000 1.0
C      1  0.4944180000000  0.4596990000000  0.4846150000000 1.0
C      1  0.5376920000000  0.5153150000000  0.5153860000000 1.0
C      1  0.4678890000000  0.5249850000000  0.5153830000000 1.0
C      1  0.4944160000000  0.4596990000000  0.5153830000000 1.0
C      1  0.4326580000000  0.4870040000000  0.5144850000000 1.0
C      1  0.5449250000000  0.4481780000000  0.5144900000000 1.0
C      1  0.5224160000000  0.5648170000000  0.5144900000000 1.0
C      1  0.4326590000000  0.4870050000000  0.4855090000000 1.0
C      1  0.5449260000000  0.4481780000000  0.4855130000000 1.0
C      1  0.5224170000000  0.5648180000000  0.4855140000000 1.0
C      1  0.5689100000000  0.5385590000000  0.5157010000000 1.0
C      1  0.4321510000000  0.5403990000000  0.5156950000000 1.0
C      1  0.4989370000000  0.4210420000000  0.5156960000000 1.0
C      1  0.5689110000000  0.5385590000000  0.4843060000000 1.0
C      1  0.4321520000000  0.5403990000000  0.4843000000000 1.0
C      1  0.4989390000000  0.4210420000000  0.4843020000000 1.0
C      1  0.4628530000000  0.4931070000000  0.4377780000000 1.0
C      1  0.5245480000000  0.4712750000000  0.4377800000000 1.0
C      1  0.5126080000000  0.5356210000000  0.4377800000000 1.0
C      1  0.4628470000000  0.4931060000000  0.5622190000000 1.0
C      1  0.5245420000000  0.4712730000000  0.5622210000000 1.0
C      1  0.5126020000000  0.5356190000000  0.5622220000000 1.0
C      1  0.4580990000000  0.4515040000000  0.4621210000000 1.0
C      1  0.5629520000000  0.4879600000000  0.4621270000000 1.0
C      1  0.4789540000000  0.5605370000000  0.4621240000000 1.0
C      1  0.4580960000000  0.4515030000000  0.5378740000000 1.0
C      1  0.5629490000000  0.4879590000000  0.5378790000000 1.0
C      1  0.4789510000000  0.5605360000000  0.5378760000000 1.0
C      1  0.4710170000000  0.4300400000000  0.5233780000000 1.0
C      1  0.5750770000000  0.5098810000000  0.5233840000000 1.0
C      1  0.4539030000000  0.5600790000000  0.5233790000000 1.0
C      1  0.4710190000000  0.4300400000000  0.4766170000000 1.0
C      1  0.5750790000000  0.5098810000000  0.4766230000000 1.0
C      1  0.4539050000000  0.5600790000000  0.4766180000000 1.0
C      1  0.5330660000000  0.5182300000000  0.4372250000000 1.0
C      1  0.4676840000000  0.5195200000000  0.4372220000000 1.0
C      1  0.4992580000000  0.4622520000000  0.4372230000000 1.0
C      1  0.5330610000000  0.5182280000000  0.5627790000000 1.0
C      1  0.4676790000000  0.5195180000000  0.5627760000000 1.0
C      1  0.4992520000000  0.4622510000000  0.5627760000000 1.0
C      1  0.4342630000000  0.4625090000000  0.5281930000000 1.0
C      1  0.5653340000000  0.4618160000000  0.5281990000000 1.0
C      1  0.5003990000000  0.5756740000000  0.5281970000000 1.0
C      1  0.4342650000000  0.4625100000000  0.4718000000000 1.0
C      1  0.5653370000000  0.4618160000000  0.4718060000000 1.0
C      1  0.5004020000000  0.5756740000000  0.4718050000000 1.0
END
