TITL C-9264-7143-236 7.06043225511923e-06 125000 -372.174944946389 0 0 60 (C1) n - 1
REM
REM in /home/bkarasulu/CARBON/AIRSS/Generating-Clusters/EDIP-Nigel-Params/Higher-Symm/Box-15A/Only-C60/SD-CG/HFTN-CG
REM
REM
REM
REM
REM
REM ./C.cell (414f73aa93bd7a1190c7fd0f31ff2f98)
REM
REM compiler GCC version 9.2.1 20190827 (Red Hat 9.2.1-1)
REM options -cpp -mtune=generic -march=x86-64 -g -O0 -fpre-include=/usr/include/finclude/math-vector-fortran.h
REM seed 823797819 -1121788756 -866790277 738998219 1866525685 -398174819 1939211510 -1866818999 -1014653210 425270266 -753451891 -1544671630 -1558847559 561912583 9010968 409955596 -661471459 1360063302 -928659045 1393741039 1902032662 -695892189 -596544879 1431235392 -1854944153 -1763883265 1093260341 -1223405726 338180608 242815894 -840470701 -600115748 -1956311931
REM
CELL 1.54180   50.00000   50.00000   50.00000   90.00000   90.00000   90.00000
LATT -1
SFAC C  
C      1  0.5200550000000  0.4786300000000  0.4449950000000 1.0
C      1  0.5336760000000  0.5253180000000  0.4316620000000 1.0
C      1  0.4773710000000  0.5303070000000  0.4359970000000 1.0
C      1  0.4676690000000  0.4799720000000  0.4447600000000 1.0
C      1  0.5067140000000  0.5327610000000  0.4410790000000 1.0
C      1  0.5395760000000  0.4959450000000  0.4317900000000 1.0
C      1  0.4938650000000  0.4683140000000  0.4363060000000 1.0
C      1  0.4615190000000  0.5085440000000  0.4476460000000 1.0
C      1  0.4719300000000  0.5491900000000  0.5523130000000 1.0
C      1  0.4589050000000  0.4827340000000  0.5546960000000 1.0
C      1  0.5242540000000  0.4483800000000  0.5562670000000 1.0
C      1  0.5363500000000  0.5139360000000  0.5485530000000 1.0
C      1  0.4795410000000  0.4621530000000  0.5539020000000 1.0
C      1  0.4500280000000  0.5291350000000  0.5542450000000 1.0
C      1  0.5163300000000  0.5350940000000  0.5490130000000 1.0
C      1  0.5459930000000  0.4683320000000  0.5528500000000 1.0
C      1  0.4651930000000  0.4310160000000  0.5146950000000 1.0
C      1  0.5813590000000  0.4764260000000  0.5150560000000 1.0
C      1  0.5233110000000  0.5730570000000  0.5132600000000 1.0
C      1  0.4232830000000  0.5276720000000  0.5087770000000 1.0
C      1  0.4818510000000  0.5821430000000  0.5109600000000 1.0
C      1  0.5791510000000  0.5101820000000  0.5148660000000 1.0
C      1  0.5242720000000  0.4205720000000  0.5129510000000 1.0
C      1  0.4249920000000  0.4707520000000  0.5176440000000 1.0
C      1  0.4919400000000  0.5861400000000  0.4847080000000 1.0
C      1  0.4242120000000  0.4813530000000  0.4918340000000 1.0
C      1  0.5087350000000  0.4254490000000  0.4897880000000 1.0
C      1  0.5845740000000  0.5152310000000  0.4845140000000 1.0
C      1  0.4797710000000  0.4280930000000  0.4908260000000 1.0
C      1  0.4290490000000  0.5096650000000  0.4875680000000 1.0
C      1  0.5209170000000  0.5843680000000  0.4877640000000 1.0
C      1  0.5867340000000  0.4839620000000  0.4858020000000 1.0
C      1  0.4697280000000  0.4362810000000  0.4643140000000 1.0
C      1  0.5633340000000  0.4661740000000  0.4622200000000 1.0
C      1  0.5381590000000  0.5606090000000  0.4640290000000 1.0
C      1  0.4397620000000  0.5485230000000  0.4609460000000 1.0
C      1  0.4652620000000  0.5540150000000  0.4501190000000 1.0
C      1  0.5533690000000  0.5390560000000  0.4505270000000 1.0
C      1  0.5351950000000  0.4591370000000  0.4598690000000 1.0
C      1  0.4534660000000  0.4602440000000  0.4603740000000 1.0
C      1  0.5103830000000  0.5514640000000  0.5257240000000 1.0
C      1  0.4376680000000  0.5166830000000  0.5304340000000 1.0
C      1  0.4833490000000  0.4423210000000  0.5328800000000 1.0
C      1  0.5533090000000  0.4761680000000  0.5251020000000 1.0
C      1  0.5116300000000  0.4363800000000  0.5325760000000 1.0
C      1  0.4406730000000  0.4882300000000  0.5327160000000 1.0
C      1  0.4825090000000  0.5580090000000  0.5259390000000 1.0
C      1  0.5494420000000  0.5062070000000  0.5233020000000 1.0
C      1  0.4939550000000  0.4400740000000  0.4472320000000 1.0
C      1  0.5642580000000  0.4921110000000  0.4483590000000 1.0
C      1  0.5117800000000  0.5578500000000  0.4530980000000 1.0
C      1  0.4388390000000  0.5204050000000  0.4622120000000 1.0
C      1  0.4876330000000  0.5643140000000  0.4662410000000 1.0
C      1  0.5633580000000  0.5156740000000  0.4652180000000 1.0
C      1  0.5188950000000  0.4346830000000  0.4635970000000 1.0
C      1  0.4280350000000  0.4638230000000  0.4707880000000 1.0
C      1  0.4640270000000  0.5076160000000  0.5687600000000 1.0
C      1  0.5039340000000  0.4653290000000  0.5691790000000 1.0
C      1  0.5321940000000  0.4909860000000  0.5653810000000 1.0
C      1  0.4927360000000  0.5328050000000  0.5654870000000 1.0
END
