TITL C-9260-5597-216 3.78173930144777e-06 125000 -359.809017906155 0 0 60 (C1) n - 1
REM
REM in /home/bkarasulu/CARBON/AIRSS/Generating-Clusters/EDIP-Nigel-Params/Higher-Symm/Box-15A/Only-C60/SD-CG/HFTN-CG
REM
REM
REM
REM
REM
REM ./C.cell (414f73aa93bd7a1190c7fd0f31ff2f98)
REM
REM compiler GCC version 9.2.1 20190827 (Red Hat 9.2.1-1)
REM options -cpp -mtune=generic -march=x86-64 -g -O0 -fpre-include=/usr/include/finclude/math-vector-fortran.h
REM seed 232292002 -962796099 -985823912 59167422 749455331 441536337 -1649141199 1179817446 -838631180 1141081341 -1451049634 -1017236359 85487909 1315303220 -1745991840 1609992300 -1386768351 -776648353 -1952974915 -1935498838 -759548892 -2137990039 657045616 -1001875636 465841367 -793567873 1511467765 -311361196 -1137765981 -1749063148 -716839830 904264994 120551125
REM
CELL 1.54180   50.00000   50.00000   50.00000   90.00000   90.00000   90.00000
LATT -1
SFAC C  
C      1  0.4888300000000  0.4492690000000  0.4340810000000 1.0
C      1  0.5618480000000  0.4501500000000  0.5224190000000 1.0
C      1  0.4483060000000  0.4498770000000  0.5428280000000 1.0
C      1  0.4752980000000  0.4421600000000  0.5386780000000 1.0
C      1  0.4787070000000  0.4421640000000  0.4595800000000 1.0
C      1  0.5445510000000  0.4428260000000  0.5012040000000 1.0
C      1  0.4850540000000  0.4908080000000  0.5006640000000 1.0
C      1  0.5059480000000  0.4898030000000  0.4797160000000 1.0
C      1  0.5091680000000  0.4908220000000  0.5185910000000 1.0
C      1  0.4744120000000  0.5592770000000  0.4871960000000 1.0
C      1  0.5243010000000  0.5593570000000  0.4845130000000 1.0
C      1  0.5012390000000  0.5613140000000  0.5297760000000 1.0
C      1  0.5444290000000  0.5301850000000  0.4484460000000 1.0
C      1  0.5222410000000  0.5301950000000  0.5645600000000 1.0
C      1  0.4341630000000  0.5289080000000  0.4879510000000 1.0
C      1  0.5251170000000  0.5561770000000  0.5132290000000 1.0
C      1  0.4767780000000  0.5545020000000  0.5157880000000 1.0
C      1  0.4986020000000  0.5541360000000  0.4725160000000 1.0
C      1  0.4711210000000  0.5091820000000  0.4625170000000 1.0
C      1  0.5479820000000  0.5100340000000  0.4925790000000 1.0
C      1  0.4813120000000  0.5103280000000  0.5452380000000 1.0
C      1  0.5655160000000  0.4780100000000  0.5181430000000 1.0
C      1  0.4507500000000  0.4779410000000  0.5476320000000 1.0
C      1  0.4832800000000  0.4770600000000  0.4325970000000 1.0
C      1  0.4353550000000  0.4812490000000  0.4986530000000 1.0
C      1  0.5348890000000  0.4817900000000  0.4423710000000 1.0
C      1  0.5302700000000  0.4819630000000  0.5565770000000 1.0
C      1  0.5162270000000  0.4367390000000  0.5069670000000 1.0
C      1  0.4850640000000  0.4365650000000  0.5112100000000 1.0
C      1  0.4971680000000  0.4366180000000  0.4820980000000 1.0
C      1  0.4660290000000  0.5351600000000  0.4477570000000 1.0
C      1  0.5630420000000  0.5360260000000  0.4965870000000 1.0
C      1  0.4716980000000  0.5362780000000  0.5576210000000 1.0
C      1  0.5651330000000  0.4838080000000  0.4882280000000 1.0
C      1  0.4765960000000  0.4836140000000  0.5632250000000 1.0
C      1  0.4579980000000  0.4833910000000  0.4487310000000 1.0
C      1  0.5457970000000  0.4948450000000  0.5340330000000 1.0
C      1  0.4468910000000  0.4938170000000  0.5229760000000 1.0
C      1  0.5072260000000  0.4943870000000  0.4407800000000 1.0
C      1  0.4706510000000  0.5161420000000  0.4946110000000 1.0
C      1  0.5208560000000  0.5161410000000  0.4762500000000 1.0
C      1  0.5094490000000  0.5183500000000  0.5297720000000 1.0
C      1  0.4991060000000  0.5503720000000  0.5578260000000 1.0
C      1  0.4517160000000  0.5484590000000  0.4714720000000 1.0
C      1  0.5494330000000  0.5494710000000  0.4724400000000 1.0
C      1  0.5456660000000  0.5255770000000  0.5426950000000 1.0
C      1  0.4411290000000  0.5238930000000  0.5189300000000 1.0
C      1  0.5143340000000  0.5255170000000  0.4387550000000 1.0
C      1  0.5511040000000  0.5468530000000  0.5221120000000 1.0
C      1  0.4561870000000  0.5453250000000  0.5337330000000 1.0
C      1  0.4936760000000  0.5460450000000  0.4454310000000 1.0
C      1  0.4924990000000  0.4585190000000  0.5556570000000 1.0
C      1  0.4553000000000  0.4582990000000  0.4660170000000 1.0
C      1  0.5495400000000  0.4598900000000  0.4781780000000 1.0
C      1  0.5379100000000  0.4561940000000  0.4527870000000 1.0
C      1  0.5205360000000  0.4560020000000  0.5546560000000 1.0
C      1  0.4418390000000  0.4554100000000  0.4906940000000 1.0
C      1  0.4355910000000  0.5004200000000  0.4760730000000 1.0
C      1  0.5540590000000  0.5011810000000  0.4547990000000 1.0
C      1  0.5110830000000  0.5012030000000  0.5688560000000 1.0
END
