TITL C-9258-7861-75 -4.08345548536221e-06 125000 -331.769980166143 0 0 60 (D4) n - 1
REM
REM in /home/bkarasulu/CARBON/AIRSS/Generating-Clusters/EDIP-Nigel-Params/Higher-Symm/Box-15A/Only-C60/SD-CG/HFTN-CG
REM
REM
REM
REM
REM
REM ./C.cell (414f73aa93bd7a1190c7fd0f31ff2f98)
REM
REM compiler GCC version 9.2.1 20190827 (Red Hat 9.2.1-1)
REM options -cpp -mtune=generic -march=x86-64 -g -O0 -fpre-include=/usr/include/finclude/math-vector-fortran.h
REM seed 817886143 -697447003 477404705 174055187 -1469091133 -1188081882 -1361264995 -2137610867 367059093 -138778537 -1786768184 1958817271 -1614272141 -605518469 1418352545 -941317082 -866835867 459783585 727471355 -278597178 1891942633 -762544312 -1572808419 -307017055 1453558516 2026141283 -1995850518 -2080689090 83842469 -653401664 1189743070 1388107735 -1421026129
REM
CELL 1.54180   50.00000   50.00000   50.00000   90.00000   90.00000   90.00000
LATT -1
SFAC C  
C      1  0.4544080000000  0.5092400000000  0.4349750000000 1.0
C      1  0.4544080000000  0.4349750000000  0.4907600000000 1.0
C      1  0.4544080000000  0.4907600000000  0.5650250000000 1.0
C      1  0.4544080000000  0.5650250000000  0.5092400000000 1.0
C      1  0.5444420000000  0.5092560000000  0.5650230000000 1.0
C      1  0.5444420000000  0.4349770000000  0.5092560000000 1.0
C      1  0.5444420000000  0.4907440000000  0.4349770000000 1.0
C      1  0.5444420000000  0.5650230000000  0.4907440000000 1.0
C      1  0.5055550000000  0.5212000000000  0.4334760000000 1.0
C      1  0.5055550000000  0.4334760000000  0.4788000000000 1.0
C      1  0.5055550000000  0.4788000000000  0.5665240000000 1.0
C      1  0.5055550000000  0.5665240000000  0.5212000000000 1.0
C      1  0.4932950000000  0.5212160000000  0.5665190000000 1.0
C      1  0.4932950000000  0.4334810000000  0.5212160000000 1.0
C      1  0.4932950000000  0.4787840000000  0.4334810000000 1.0
C      1  0.4932950000000  0.5665190000000  0.4787840000000 1.0
C      1  0.5407330000000  0.4648800000000  0.4490730000000 1.0
C      1  0.5407330000000  0.4490730000000  0.5351200000000 1.0
C      1  0.5407340000000  0.5351200000000  0.5509270000000 1.0
C      1  0.5407340000000  0.5509270000000  0.4648800000000 1.0
C      1  0.4581170000000  0.4648920000000  0.5509360000000 1.0
C      1  0.4581160000000  0.4490640000000  0.4648920000000 1.0
C      1  0.4581170000000  0.5351080000000  0.4490640000000 1.0
C      1  0.4581170000000  0.5509360000000  0.5351080000000 1.0
C      1  0.5349120000000  0.5082930000000  0.4739530000000 1.0
C      1  0.5349120000000  0.4739530000000  0.4917070000000 1.0
C      1  0.5349120000000  0.4917070000000  0.5260470000000 1.0
C      1  0.5349120000000  0.5260470000000  0.5082930000000 1.0
C      1  0.4639380000000  0.5082990000000  0.5260450000000 1.0
C      1  0.4639380000000  0.4739550000000  0.5082990000000 1.0
C      1  0.4639380000000  0.4917010000000  0.4739550000000 1.0
C      1  0.4639380000000  0.5260450000000  0.4917010000000 1.0
C      1  0.4653480000000  0.4445170000000  0.5184720000000 1.0
C      1  0.4653480000000  0.5184720000000  0.5554830000000 1.0
C      1  0.4653480000000  0.5554830000000  0.4815280000000 1.0
C      1  0.4653480000000  0.4815280000000  0.4445170000000 1.0
C      1  0.5335020000000  0.4445130000000  0.4815420000000 1.0
C      1  0.5335020000000  0.5184580000000  0.4445130000000 1.0
C      1  0.5335020000000  0.5554870000000  0.5184580000000 1.0
C      1  0.5335020000000  0.4815420000000  0.5554870000000 1.0
C      1  0.5650690000000  0.4965280000000  0.5216010000000 1.0
C      1  0.5650690000000  0.5216010000000  0.5034720000000 1.0
C      1  0.5650690000000  0.5034720000000  0.4783990000000 1.0
C      1  0.5650690000000  0.4783990000000  0.4965280000000 1.0
C      1  0.4337810000000  0.4965230000000  0.4784000000000 1.0
C      1  0.4337810000000  0.5216000000000  0.4965230000000 1.0
C      1  0.4337810000000  0.5034770000000  0.5216000000000 1.0
C      1  0.4337810000000  0.4784000000000  0.5034770000000 1.0
C      1  0.5143280000000  0.4532760000000  0.5242670000000 1.0
C      1  0.5143280000000  0.5242670000000  0.5467240000000 1.0
C      1  0.5143280000000  0.5467240000000  0.4757330000000 1.0
C      1  0.5143280000000  0.4757330000000  0.4532760000000 1.0
C      1  0.4845220000000  0.4532700000000  0.4757440000000 1.0
C      1  0.4845220000000  0.5242560000000  0.4532700000000 1.0
C      1  0.4845220000000  0.5467300000000  0.5242560000000 1.0
C      1  0.4845220000000  0.4757440000000  0.5467300000000 1.0
C      1  0.4994250000000  0.4999900000000  0.4155050000000 1.0
C      1  0.4994250000000  0.5844950000000  0.4999900000000 1.0
C      1  0.4994250000000  0.4155050000000  0.5000100000000 1.0
C      1  0.4994250000000  0.5000100000000  0.5844950000000 1.0
END
