TITL C-9260-5597-39 3.74908041421647e-07 125000 -364.42344440201 0 0 60 (C1) n - 1
REM
REM in /home/bkarasulu/CARBON/AIRSS/Generating-Clusters/EDIP-Nigel-Params/Higher-Symm/Box-15A/Only-C60/SD-CG/HFTN-CG
REM
REM
REM
REM
REM
REM ./C.cell (414f73aa93bd7a1190c7fd0f31ff2f98)
REM
REM compiler GCC version 9.2.1 20190827 (Red Hat 9.2.1-1)
REM options -cpp -mtune=generic -march=x86-64 -g -O0 -fpre-include=/usr/include/finclude/math-vector-fortran.h
REM seed -1161985285 1427877126 -1943383567 220411962 136243945 -1475829871 -1874484882 -1447430581 29697328 -1801062528 1851364367 1081079888 -751026887 460122093 -1055593499 1998279310 673379541 673538917 -438204644 940422997 811288170 -1302143664 -692696719 810216049 -1207506773 -1954336863 -1997260180 933218283 491779784 -1581048894 -1530738415 -1474541779 231235496
REM
CELL 1.54180   50.00000   50.00000   50.00000   90.00000   90.00000   90.00000
LATT -1
SFAC C  
C      1  0.4959030000000  0.4103160000000  0.5259460000000 1.0
C      1  0.5231790000000  0.4168080000000  0.5245980000000 1.0
C      1  0.5346070000000  0.4176990000000  0.4967860000000 1.0
C      1  0.5165230000000  0.4090260000000  0.4771990000000 1.0
C      1  0.4909830000000  0.4167680000000  0.4690620000000 1.0
C      1  0.4713290000000  0.4084020000000  0.4874520000000 1.0
C      1  0.4716530000000  0.4175490000000  0.5141030000000 1.0
C      1  0.5135470000000  0.4594480000000  0.4806290000000 1.0
C      1  0.4883180000000  0.4468600000000  0.4670440000000 1.0
C      1  0.4649650000000  0.4537290000000  0.4847110000000 1.0
C      1  0.4665110000000  0.4482280000000  0.5153340000000 1.0
C      1  0.4942890000000  0.4548130000000  0.5357660000000 1.0
C      1  0.5254460000000  0.4473900000000  0.5305710000000 1.0
C      1  0.5373340000000  0.4488830000000  0.4974040000000 1.0
C      1  0.5395980000000  0.4968620000000  0.5016620000000 1.0
C      1  0.5282230000000  0.5034440000000  0.4753140000000 1.0
C      1  0.5012160000000  0.5167360000000  0.4812550000000 1.0
C      1  0.4798890000000  0.4949350000000  0.4934710000000 1.0
C      1  0.4655790000000  0.4990600000000  0.5196330000000 1.0
C      1  0.4862620000000  0.5024330000000  0.5417710000000 1.0
C      1  0.5183890000000  0.4903930000000  0.5227160000000 1.0
C      1  0.4348360000000  0.5173040000000  0.4905480000000 1.0
C      1  0.4380960000000  0.5131110000000  0.5515690000000 1.0
C      1  0.5165700000000  0.5092890000000  0.5722910000000 1.0
C      1  0.5506970000000  0.5184890000000  0.5387990000000 1.0
C      1  0.5736250000000  0.5146030000000  0.4791100000000 1.0
C      1  0.5092700000000  0.5096020000000  0.4317070000000 1.0
C      1  0.4668470000000  0.5184860000000  0.4498440000000 1.0
C      1  0.4595630000000  0.5494090000000  0.5183410000000 1.0
C      1  0.4773360000000  0.5456390000000  0.5418880000000 1.0
C      1  0.5051550000000  0.5406310000000  0.5323170000000 1.0
C      1  0.5371880000000  0.5468730000000  0.4974360000000 1.0
C      1  0.5374260000000  0.5493300000000  0.4676780000000 1.0
C      1  0.5083910000000  0.5536540000000  0.4562930000000 1.0
C      1  0.4721490000000  0.5499330000000  0.4902760000000 1.0
C      1  0.5588220000000  0.4737810000000  0.4972900000000 1.0
C      1  0.5251760000000  0.4781710000000  0.4611460000000 1.0
C      1  0.4847750000000  0.4673750000000  0.4412960000000 1.0
C      1  0.4575600000000  0.4814610000000  0.4769660000000 1.0
C      1  0.4496630000000  0.4744210000000  0.5275250000000 1.0
C      1  0.4903290000000  0.4768920000000  0.5565020000000 1.0
C      1  0.5369590000000  0.4764330000000  0.5431510000000 1.0
C      1  0.5598320000000  0.4930260000000  0.5474980000000 1.0
C      1  0.5784100000000  0.4865720000000  0.4808940000000 1.0
C      1  0.5103840000000  0.4818500000000  0.4366480000000 1.0
C      1  0.4626960000000  0.4876600000000  0.4484140000000 1.0
C      1  0.4307510000000  0.4902100000000  0.4845320000000 1.0
C      1  0.4349020000000  0.4846680000000  0.5499020000000 1.0
C      1  0.5089590000000  0.4831540000000  0.5768290000000 1.0
C      1  0.4958030000000  0.5255610000000  0.4517480000000 1.0
C      1  0.4548060000000  0.5312680000000  0.4738090000000 1.0
C      1  0.4440870000000  0.5234420000000  0.5190960000000 1.0
C      1  0.4667830000000  0.5218560000000  0.5581770000000 1.0
C      1  0.5238530000000  0.5247880000000  0.5494500000000 1.0
C      1  0.5549250000000  0.5241090000000  0.5079230000000 1.0
C      1  0.5490630000000  0.5218410000000  0.4627720000000 1.0
C      1  0.5083430000000  0.5416630000000  0.5020980000000 1.0
C      1  0.5014490000000  0.5906720000000  0.4863930000000 1.0
C      1  0.4902890000000  0.5696030000000  0.4743150000000 1.0
C      1  0.4999620000000  0.4742850000000  0.5030730000000 1.0
END
