TITL C-9263-351-252 -2.21872073450535e-06 125000 -358.414528320766 0 0 60 (C1) n - 1
REM
REM in /home/bkarasulu/CARBON/AIRSS/Generating-Clusters/EDIP-Nigel-Params/Higher-Symm/Box-15A/Only-C60/SD-CG/HFTN-CG
REM
REM
REM
REM
REM
REM ./C.cell (414f73aa93bd7a1190c7fd0f31ff2f98)
REM
REM compiler GCC version 9.2.1 20190827 (Red Hat 9.2.1-1)
REM options -cpp -mtune=generic -march=x86-64 -g -O0 -fpre-include=/usr/include/finclude/math-vector-fortran.h
REM seed 1822209748 -18908071 1247836784 -1112710267 -21271601 -709166671 1664051708 1101509525 -1269488992 1489113627 -319580746 -1745745578 -2013128797 1151838753 1019990214 2062494563 -2088363168 1562833629 -1988697848 -143695942 1774207566 1320163252 1536109321 1001187402 -1727025741 706364176 2084318195 -201511371 -2111294778 -1465193660 -1509224591 -1195799978 1133638866
REM
CELL 1.54180   50.00000   50.00000   50.00000   90.00000   90.00000   90.00000
LATT -1
SFAC C  
C      1  0.5300320000000  0.4410820000000  0.4626370000000 1.0
C      1  0.4632380000000  0.4371230000000  0.4665120000000 1.0
C      1  0.4654420000000  0.4340610000000  0.5383880000000 1.0
C      1  0.5382820000000  0.4354910000000  0.5324320000000 1.0
C      1  0.5369240000000  0.5635110000000  0.5401260000000 1.0
C      1  0.4622900000000  0.5667560000000  0.5280370000000 1.0
C      1  0.4739640000000  0.5625540000000  0.4696530000000 1.0
C      1  0.5360940000000  0.5632900000000  0.4667050000000 1.0
C      1  0.5474580000000  0.4848010000000  0.5384240000000 1.0
C      1  0.5353470000000  0.4888450000000  0.4546240000000 1.0
C      1  0.4512090000000  0.4834510000000  0.4599580000000 1.0
C      1  0.4588370000000  0.4829010000000  0.5510620000000 1.0
C      1  0.5501140000000  0.5159350000000  0.4572780000000 1.0
C      1  0.5373060000000  0.5145680000000  0.5447180000000 1.0
C      1  0.4525250000000  0.5184140000000  0.5372160000000 1.0
C      1  0.4584690000000  0.5202870000000  0.4500250000000 1.0
C      1  0.4847760000000  0.4302910000000  0.5180080000000 1.0
C      1  0.5159060000000  0.4339150000000  0.5148990000000 1.0
C      1  0.5126150000000  0.4336750000000  0.4839970000000 1.0
C      1  0.4821400000000  0.4308590000000  0.4866720000000 1.0
C      1  0.4903780000000  0.5784180000000  0.4862410000000 1.0
C      1  0.5212360000000  0.5742690000000  0.4885700000000 1.0
C      1  0.5177370000000  0.5695170000000  0.5196510000000 1.0
C      1  0.4869120000000  0.5750670000000  0.5164450000000 1.0
C      1  0.4661790000000  0.4593000000000  0.4492370000000 1.0
C      1  0.4537180000000  0.4587870000000  0.5320020000000 1.0
C      1  0.5329770000000  0.4584330000000  0.5479760000000 1.0
C      1  0.5464060000000  0.4638810000000  0.4665370000000 1.0
C      1  0.4690090000000  0.5433660000000  0.5419980000000 1.0
C      1  0.4536730000000  0.5432480000000  0.4686500000000 1.0
C      1  0.5311500000000  0.5391720000000  0.4526830000000 1.0
C      1  0.5476860000000  0.5388160000000  0.5308970000000 1.0
C      1  0.5622740000000  0.5222490000000  0.4847360000000 1.0
C      1  0.4855710000000  0.5228330000000  0.4389020000000 1.0
C      1  0.4345570000000  0.5203050000000  0.5135020000000 1.0
C      1  0.5119120000000  0.5203760000000  0.5581280000000 1.0
C      1  0.5639540000000  0.4808130000000  0.5131150000000 1.0
C      1  0.4860320000000  0.4793740000000  0.5630780000000 1.0
C      1  0.4433470000000  0.4785920000000  0.4881330000000 1.0
C      1  0.5123510000000  0.4832520000000  0.4359810000000 1.0
C      1  0.4779670000000  0.5180350000000  0.5066680000000 1.0
C      1  0.5080770000000  0.5273810000000  0.5147200000000 1.0
C      1  0.5193780000000  0.5132020000000  0.4879120000000 1.0
C      1  0.4791170000000  0.5029910000000  0.4778910000000 1.0
C      1  0.4927330000000  0.4731960000000  0.4811450000000 1.0
C      1  0.5185340000000  0.4825470000000  0.4947510000000 1.0
C      1  0.5110250000000  0.4868310000000  0.5235240000000 1.0
C      1  0.4813890000000  0.4909460000000  0.5203910000000 1.0
C      1  0.4658200000000  0.4678280000000  0.5042710000000 1.0
C      1  0.5042580000000  0.4604680000000  0.5514290000000 1.0
C      1  0.5515790000000  0.4626660000000  0.4949680000000 1.0
C      1  0.4952050000000  0.4616350000000  0.4447750000000 1.0
C      1  0.4419610000000  0.5382000000000  0.4934890000000 1.0
C      1  0.5038290000000  0.5321200000000  0.4583330000000 1.0
C      1  0.5440220000000  0.5389350000000  0.5016150000000 1.0
C      1  0.4970920000000  0.5427470000000  0.5485070000000 1.0
C      1  0.4271290000000  0.4963100000000  0.5018990000000 1.0
C      1  0.4985030000000  0.5015880000000  0.5734040000000 1.0
C      1  0.5749440000000  0.5021030000000  0.4991670000000 1.0
C      1  0.4974120000000  0.5032800000000  0.4233070000000 1.0
END
