TITL C-9265-7156-16 4.43667936901587e-05 125000 -350.839062009884 0 0 60 (C1) n - 1
REM
REM in /home/bkarasulu/CARBON/AIRSS/Generating-Clusters/EDIP-Nigel-Params/Higher-Symm/Box-15A/Only-C60/SD-CG/HFTN-CG
REM
REM
REM
REM
REM
REM ./C.cell (414f73aa93bd7a1190c7fd0f31ff2f98)
REM
REM compiler GCC version 9.2.1 20190827 (Red Hat 9.2.1-1)
REM options -cpp -mtune=generic -march=x86-64 -g -O0 -fpre-include=/usr/include/finclude/math-vector-fortran.h
REM seed 240112015 1855668247 -906317602 1342083707 -632390478 -1902851413 -113221983 -1766615408 -1014069865 218367279 -1558095689 -1327519463 -1627575424 867443322 64495520 -1970251518 -1828466313 382685471 -2014902816 -1507912872 1161171665 1963286824 1826828539 1523185404 -1954700474 -1368428670 -560746308 -285637639 226871306 1547648129 843810465 -879482731 2049902026
REM
CELL 1.54180   50.00000   50.00000   50.00000   90.00000   90.00000   90.00000
LATT -1
SFAC C  
C      1  0.5503700000000  0.5665630000000  0.4951090000000 1.0
C      1  0.5653290000000  0.4688030000000  0.4942830000000 1.0
C      1  0.4915160000000  0.4315730000000  0.4958170000000 1.0
C      1  0.4265090000000  0.4848450000000  0.4953420000000 1.0
C      1  0.4629380000000  0.5651210000000  0.4965110000000 1.0
C      1  0.4958120000000  0.5521750000000  0.5555690000000 1.0
C      1  0.5481770000000  0.5187150000000  0.5479220000000 1.0
C      1  0.5348890000000  0.4598570000000  0.5559450000000 1.0
C      1  0.4717950000000  0.4550080000000  0.5563500000000 1.0
C      1  0.4491080000000  0.5119180000000  0.5558140000000 1.0
C      1  0.4524420000000  0.4504690000000  0.5226670000000 1.0
C      1  0.4403320000000  0.5269270000000  0.5208720000000 1.0
C      1  0.5062780000000  0.5710760000000  0.5230030000000 1.0
C      1  0.5518260000000  0.5148440000000  0.5102440000000 1.0
C      1  0.5338430000000  0.4395470000000  0.5226390000000 1.0
C      1  0.4813100000000  0.4315740000000  0.5440220000000 1.0
C      1  0.4305660000000  0.4944750000000  0.5437920000000 1.0
C      1  0.4725890000000  0.5639620000000  0.5450630000000 1.0
C      1  0.5529730000000  0.5455920000000  0.5410020000000 1.0
C      1  0.5600050000000  0.4623600000000  0.5432600000000 1.0
C      1  0.4386690000000  0.5493600000000  0.5024980000000 1.0
C      1  0.5240640000000  0.5808670000000  0.5020730000000 1.0
C      1  0.5740160000000  0.4966910000000  0.5012710000000 1.0
C      1  0.5192180000000  0.4233920000000  0.5031190000000 1.0
C      1  0.4320600000000  0.4566610000000  0.5026440000000 1.0
C      1  0.5019230000000  0.5236950000000  0.4993140000000 1.0
C      1  0.5260750000000  0.5089870000000  0.4962920000000 1.0
C      1  0.5159580000000  0.4821210000000  0.4959050000000 1.0
C      1  0.4890650000000  0.4758240000000  0.4950460000000 1.0
C      1  0.4828390000000  0.5026130000000  0.4986630000000 1.0
C      1  0.5254700000000  0.4914950000000  0.4372710000000 1.0
C      1  0.5019780000000  0.4749340000000  0.4368600000000 1.0
C      1  0.4789000000000  0.4919840000000  0.4379770000000 1.0
C      1  0.4880340000000  0.5191570000000  0.4389200000000 1.0
C      1  0.5167410000000  0.5188600000000  0.4381290000000 1.0
C      1  0.5587900000000  0.5443590000000  0.5134460000000 1.0
C      1  0.5610900000000  0.4504560000000  0.5171040000000 1.0
C      1  0.4715990000000  0.4284390000000  0.5173540000000 1.0
C      1  0.4229390000000  0.5033470000000  0.5178480000000 1.0
C      1  0.4773730000000  0.5757720000000  0.5197350000000 1.0
C      1  0.5015930000000  0.4476820000000  0.4406270000000 1.0
C      1  0.4530490000000  0.4834690000000  0.4420550000000 1.0
C      1  0.4721220000000  0.5412310000000  0.4430150000000 1.0
C      1  0.5328400000000  0.5406500000000  0.4428300000000 1.0
C      1  0.5514470000000  0.4827580000000  0.4403610000000 1.0
C      1  0.4356390000000  0.5448180000000  0.4747070000000 1.0
C      1  0.5182340000000  0.5743940000000  0.4744420000000 1.0
C      1  0.5823280000000  0.4988820000000  0.4739960000000 1.0
C      1  0.5254710000000  0.4241080000000  0.4754710000000 1.0
C      1  0.4371790000000  0.4516000000000  0.4751770000000 1.0
C      1  0.5725610000000  0.4785000000000  0.4571970000000 1.0
C      1  0.5029730000000  0.4275020000000  0.4589470000000 1.0
C      1  0.4335000000000  0.4738990000000  0.4584970000000 1.0
C      1  0.4559780000000  0.5562300000000  0.4590900000000 1.0
C      1  0.5385490000000  0.5619340000000  0.4589770000000 1.0
C      1  0.5229350000000  0.5089460000000  0.5568840000000 1.0
C      1  0.5160180000000  0.4810000000000  0.5566840000000 1.0
C      1  0.4873240000000  0.4786730000000  0.5585510000000 1.0
C      1  0.4765230000000  0.5053230000000  0.5588910000000 1.0
C      1  0.4983350000000  0.5239810000000  0.5569080000000 1.0
END
