TITL C-9258-7861-51 1.05926305722514e-05 125000 -367.353358174865 0 0 60 (C1) n - 1
REM
REM in /home/bkarasulu/CARBON/AIRSS/Generating-Clusters/EDIP-Nigel-Params/Higher-Symm/Box-15A/Only-C60/SD-CG/HFTN-CG
REM
REM
REM
REM
REM
REM ./C.cell (414f73aa93bd7a1190c7fd0f31ff2f98)
REM
REM compiler GCC version 9.2.1 20190827 (Red Hat 9.2.1-1)
REM options -cpp -mtune=generic -march=x86-64 -g -O0 -fpre-include=/usr/include/finclude/math-vector-fortran.h
REM seed 277661417 123364101 482601000 899064944 16787139 -1819448817 1088909533 -732460598 694506916 -766004712 1103129519 -1937480684 266740709 -24137916 1807981053 2026643831 -1054728228 59922645 -824680472 936758359 -977006329 -38875544 2050874962 1191453595 1770514348 -1218476005 1775747473 -1076997879 1163976983 189976731 -669612196 -1560346762 -808857733
REM
CELL 1.54180   50.00000   50.00000   50.00000   90.00000   90.00000   90.00000
LATT -1
SFAC C  
C      1  0.4740330000000  0.4606840000000  0.4641820000000 1.0
C      1  0.5256990000000  0.5667660000000  0.4910220000000 1.0
C      1  0.5134830000000  0.5351770000000  0.5569840000000 1.0
C      1  0.4354090000000  0.4668380000000  0.5088140000000 1.0
C      1  0.4646740000000  0.4333870000000  0.5318610000000 1.0
C      1  0.5122390000000  0.4741120000000  0.4984720000000 1.0
C      1  0.4376620000000  0.4892940000000  0.5278680000000 1.0
C      1  0.4700750000000  0.5174100000000  0.5573650000000 1.0
C      1  0.5162900000000  0.4952410000000  0.4600650000000 1.0
C      1  0.5135810000000  0.4373640000000  0.5366260000000 1.0
C      1  0.4893120000000  0.4797630000000  0.4228960000000 1.0
C      1  0.5095320000000  0.4910750000000  0.5451860000000 1.0
C      1  0.4770480000000  0.5736440000000  0.4889150000000 1.0
C      1  0.5434580000000  0.5344310000000  0.5566140000000 1.0
C      1  0.5420010000000  0.4793150000000  0.5593930000000 1.0
C      1  0.4522420000000  0.5010840000000  0.4474870000000 1.0
C      1  0.4396060000000  0.5239430000000  0.4577540000000 1.0
C      1  0.5534410000000  0.4556190000000  0.5140700000000 1.0
C      1  0.5150950000000  0.4267850000000  0.5074240000000 1.0
C      1  0.5278070000000  0.5691590000000  0.5195450000000 1.0
C      1  0.4301050000000  0.4736410000000  0.4820540000000 1.0
C      1  0.4712000000000  0.4387200000000  0.4838400000000 1.0
C      1  0.4611390000000  0.4512980000000  0.5086640000000 1.0
C      1  0.5677220000000  0.5028660000000  0.5006860000000 1.0
C      1  0.5375790000000  0.4572880000000  0.5397840000000 1.0
C      1  0.5474110000000  0.5126730000000  0.5197520000000 1.0
C      1  0.4747990000000  0.5033720000000  0.5003770000000 1.0
C      1  0.4975360000000  0.5388170000000  0.5296800000000 1.0
C      1  0.4739990000000  0.5030560000000  0.4283120000000 1.0
C      1  0.4408810000000  0.5357210000000  0.4832940000000 1.0
C      1  0.4843110000000  0.4752420000000  0.5396300000000 1.0
C      1  0.4491250000000  0.5163370000000  0.5032110000000 1.0
C      1  0.5304430000000  0.4495820000000  0.4956270000000 1.0
C      1  0.4679630000000  0.5432760000000  0.5387920000000 1.0
C      1  0.5545310000000  0.5045340000000  0.5495870000000 1.0
C      1  0.4866990000000  0.5277460000000  0.4285050000000 1.0
C      1  0.4979280000000  0.5403010000000  0.4506070000000 1.0
C      1  0.4991900000000  0.4709960000000  0.4488520000000 1.0
C      1  0.5193290000000  0.4998390000000  0.5159590000000 1.0
C      1  0.4495090000000  0.4761500000000  0.4617470000000 1.0
C      1  0.4860300000000  0.4459640000000  0.5453910000000 1.0
C      1  0.5464280000000  0.5493990000000  0.5308450000000 1.0
C      1  0.5386040000000  0.4446740000000  0.4668180000000 1.0
C      1  0.5391340000000  0.5348500000000  0.4762760000000 1.0
C      1  0.5051210000000  0.5805450000000  0.5331000000000 1.0
C      1  0.4990400000000  0.5115660000000  0.5642610000000 1.0
C      1  0.4538130000000  0.5603140000000  0.4861960000000 1.0
C      1  0.4821450000000  0.4750380000000  0.5095260000000 1.0
C      1  0.5710480000000  0.4754260000000  0.5047760000000 1.0
C      1  0.5184570000000  0.4491220000000  0.4476380000000 1.0
C      1  0.4794430000000  0.5713980000000  0.5415300000000 1.0
C      1  0.4925870000000  0.4221390000000  0.4912030000000 1.0
C      1  0.4994920000000  0.5197250000000  0.5032000000000 1.0
C      1  0.5019310000000  0.5679090000000  0.4501670000000 1.0
C      1  0.5587950000000  0.5127780000000  0.4739570000000 1.0
C      1  0.5118950000000  0.5234880000000  0.4715120000000 1.0
C      1  0.5451860000000  0.4916840000000  0.4580220000000 1.0
C      1  0.4592050000000  0.4902600000000  0.5483330000000 1.0
C      1  0.5553890000000  0.4653550000000  0.4588060000000 1.0
C      1  0.5021690000000  0.5758200000000  0.4769400000000 1.0
END
