TITL C-9269-7444-133 2.4282430259491e-06 125000 -359.489598620405 0 0 60 (C1) n - 1
REM
REM in /home/bkarasulu/CARBON/AIRSS/Generating-Clusters/EDIP-Nigel-Params/Higher-Symm/Box-15A/Only-C60/SD-CG/HFTN-CG
REM
REM
REM
REM
REM
REM ./C.cell (414f73aa93bd7a1190c7fd0f31ff2f98)
REM
REM compiler GCC version 9.2.1 20190827 (Red Hat 9.2.1-1)
REM options -cpp -mtune=generic -march=x86-64 -g -O0 -fpre-include=/usr/include/finclude/math-vector-fortran.h
REM seed 1071656296 -530120488 1241230056 -553417711 1269657692 -1618240589 1192207818 -789279762 -27028865 -885588534 399098530 -1116893219 1927906400 -1954457502 196095958 -1461552213 -140613406 485930623 181562693 -1943277525 -993600638 -1245142079 976431433 1906644653 -2102611210 1486527709 907685245 -1569542419 45030237 412113956 1968708196 893642872 734013921
REM
CELL 1.54180   50.00000   50.00000   50.00000   90.00000   90.00000   90.00000
LATT -1
SFAC C  
C      1  0.5267480000000  0.4915350000000  0.5142740000000 1.0
C      1  0.5810260000000  0.5197960000000  0.4774990000000 1.0
C      1  0.4889770000000  0.5605720000000  0.4800060000000 1.0
C      1  0.4586880000000  0.5103510000000  0.4635010000000 1.0
C      1  0.4821440000000  0.4859070000000  0.5740260000000 1.0
C      1  0.4987870000000  0.4232150000000  0.5109930000000 1.0
C      1  0.4691130000000  0.5386210000000  0.5604680000000 1.0
C      1  0.5229040000000  0.4892280000000  0.4858470000000 1.0
C      1  0.5243650000000  0.5407980000000  0.5624330000000 1.0
C      1  0.4554840000000  0.5075480000000  0.4959220000000 1.0
C      1  0.5482080000000  0.4825980000000  0.4718620000000 1.0
C      1  0.4722990000000  0.4675560000000  0.4763320000000 1.0
C      1  0.5103470000000  0.5636210000000  0.5613000000000 1.0
C      1  0.5286290000000  0.4543850000000  0.5261310000000 1.0
C      1  0.5287380000000  0.4433930000000  0.4560590000000 1.0
C      1  0.5557340000000  0.5240530000000  0.5296590000000 1.0
C      1  0.5446490000000  0.4937040000000  0.4434710000000 1.0
C      1  0.4780370000000  0.4464760000000  0.5430990000000 1.0
C      1  0.4783080000000  0.5116520000000  0.5185270000000 1.0
C      1  0.5197380000000  0.4834010000000  0.4303950000000 1.0
C      1  0.5591050000000  0.4979680000000  0.5162380000000 1.0
C      1  0.5096460000000  0.4576190000000  0.4411010000000 1.0
C      1  0.4592510000000  0.4883510000000  0.5577300000000 1.0
C      1  0.4819780000000  0.5623940000000  0.5095810000000 1.0
C      1  0.4737180000000  0.4298350000000  0.5022610000000 1.0
C      1  0.5525710000000  0.5457680000000  0.5125200000000 1.0
C      1  0.4656680000000  0.5537990000000  0.4630410000000 1.0
C      1  0.4260920000000  0.4765350000000  0.4658380000000 1.0
C      1  0.5068440000000  0.5104510000000  0.4748770000000 1.0
C      1  0.5704370000000  0.4959590000000  0.4880740000000 1.0
C      1  0.5302870000000  0.4908070000000  0.5593850000000 1.0
C      1  0.4358950000000  0.5297090000000  0.4964730000000 1.0
C      1  0.5026790000000  0.4811920000000  0.5545950000000 1.0
C      1  0.4943240000000  0.5280520000000  0.4282510000000 1.0
C      1  0.4844430000000  0.4584870000000  0.5018770000000 1.0
C      1  0.5045170000000  0.4372190000000  0.5349790000000 1.0
C      1  0.5421350000000  0.4450020000000  0.5020890000000 1.0
C      1  0.5006370000000  0.5019570000000  0.4178520000000 1.0
C      1  0.4422760000000  0.5488810000000  0.4775890000000 1.0
C      1  0.5585840000000  0.5330270000000  0.4667650000000 1.0
C      1  0.4357430000000  0.5296690000000  0.5445940000000 1.0
C      1  0.4692530000000  0.5379670000000  0.4388650000000 1.0
C      1  0.4383040000000  0.4949740000000  0.4504890000000 1.0
C      1  0.5406130000000  0.5451150000000  0.4872010000000 1.0
C      1  0.4434200000000  0.4751700000000  0.5121400000000 1.0
C      1  0.4967450000000  0.4854040000000  0.5234210000000 1.0
C      1  0.5702580000000  0.4784610000000  0.5349930000000 1.0
C      1  0.5340740000000  0.5188550000000  0.5484370000000 1.0
C      1  0.4612460000000  0.5148780000000  0.5446100000000 1.0
C      1  0.5467650000000  0.4527620000000  0.4752460000000 1.0
C      1  0.4837600000000  0.4593940000000  0.4519360000000 1.0
C      1  0.5462590000000  0.4685430000000  0.5466390000000 1.0
C      1  0.4256710000000  0.5375960000000  0.5206190000000 1.0
C      1  0.5485910000000  0.5217180000000  0.4427670000000 1.0
C      1  0.4865030000000  0.5579070000000  0.5472560000000 1.0
C      1  0.4445790000000  0.4667060000000  0.4842920000000 1.0
C      1  0.4587040000000  0.4673790000000  0.5367970000000 1.0
C      1  0.4876020000000  0.5023560000000  0.4541680000000 1.0
C      1  0.4969590000000  0.5362680000000  0.5157760000000 1.0
C      1  0.5109420000000  0.5374590000000  0.4868320000000 1.0
END
