TITL C-9261-551-164 -1.10006717681762e-06 125000 -372.023475921696 0 0 60 (C2) n - 1
REM
REM in /home/bkarasulu/CARBON/AIRSS/Generating-Clusters/EDIP-Nigel-Params/Higher-Symm/Box-15A/Only-C60/SD-CG/HFTN-CG
REM
REM
REM
REM
REM
REM ./C.cell (414f73aa93bd7a1190c7fd0f31ff2f98)
REM
REM compiler GCC version 9.2.1 20190827 (Red Hat 9.2.1-1)
REM options -cpp -mtune=generic -march=x86-64 -g -O0 -fpre-include=/usr/include/finclude/math-vector-fortran.h
REM seed -1746020307 -1063838693 -1678610242 -1335138912 -531217447 2089877470 -1399676726 534468394 539757089 -854910730 4982254 2038068066 -1373670058 -1232561965 1552097483 699343307 1632062524 -475206420 -501568603 -1437463615 1250866789 1533996383 -1816529108 861124432 1438697817 -1972369065 -1125098723 -401762705 1510808690 -1282716707 -55463111 -2036082079 -2130002813
REM
CELL 1.54180   50.00000   50.00000   50.00000   90.00000   90.00000   90.00000
LATT -1
SFAC C  
C      1  0.4318660000000  0.4893160000000  0.5351080000000 1.0
C      1  0.5681730000000  0.5352690000000  0.5105560000000 1.0
C      1  0.4318640000000  0.5107000000000  0.4649010000000 1.0
C      1  0.5681640000000  0.4647150000000  0.4894350000000 1.0
C      1  0.4472350000000  0.4876510000000  0.4703730000000 1.0
C      1  0.5527610000000  0.4702480000000  0.5124400000000 1.0
C      1  0.4472420000000  0.5123610000000  0.5296340000000 1.0
C      1  0.5527660000000  0.5297390000000  0.4875530000000 1.0
C      1  0.5293060000000  0.4932250000000  0.4290390000000 1.0
C      1  0.4705760000000  0.4287270000000  0.5067920000000 1.0
C      1  0.5293170000000  0.5067680000000  0.5709570000000 1.0
C      1  0.4705920000000  0.5712800000000  0.4932120000000 1.0
C      1  0.4616400000000  0.5241680000000  0.5517300000000 1.0
C      1  0.5382630000000  0.5518160000000  0.4758100000000 1.0
C      1  0.4616270000000  0.4758410000000  0.4482750000000 1.0
C      1  0.5382540000000  0.4481750000000  0.5241850000000 1.0
C      1  0.4762850000000  0.5042770000000  0.5678910000000 1.0
C      1  0.5236220000000  0.5679570000000  0.4957270000000 1.0
C      1  0.4762750000000  0.4957290000000  0.4321120000000 1.0
C      1  0.5236060000000  0.4320380000000  0.5042700000000 1.0
C      1  0.4518010000000  0.4690930000000  0.5375740000000 1.0
C      1  0.5482890000000  0.5376870000000  0.5308220000000 1.0
C      1  0.4518040000000  0.5309190000000  0.4624320000000 1.0
C      1  0.5482760000000  0.4623010000000  0.4691710000000 1.0
C      1  0.5232680000000  0.4476340000000  0.4784220000000 1.0
C      1  0.4767200000000  0.4783970000000  0.5523400000000 1.0
C      1  0.5232830000000  0.5523600000000  0.5215750000000 1.0
C      1  0.4767180000000  0.5216080000000  0.4476630000000 1.0
C      1  0.5125470000000  0.4936630000000  0.4705370000000 1.0
C      1  0.4875460000000  0.4710600000000  0.5062210000000 1.0
C      1  0.5125530000000  0.5063340000000  0.5294620000000 1.0
C      1  0.4875520000000  0.5289430000000  0.4937800000000 1.0
C      1  0.4408600000000  0.5350760000000  0.5121220000000 1.0
C      1  0.5592470000000  0.5121760000000  0.4649100000000 1.0
C      1  0.4408500000000  0.4649380000000  0.4878860000000 1.0
C      1  0.5592480000000  0.4878100000000  0.5350820000000 1.0
C      1  0.4998490000000  0.4670990000000  0.4787140000000 1.0
C      1  0.5002060000000  0.4788020000000  0.5329650000000 1.0
C      1  0.4998590000000  0.5329010000000  0.5212860000000 1.0
C      1  0.5002060000000  0.5211980000000  0.4670350000000 1.0
C      1  0.5389810000000  0.5105310000000  0.5419800000000 1.0
C      1  0.4612900000000  0.5420110000000  0.4895570000000 1.0
C      1  0.5389730000000  0.4894600000000  0.4580150000000 1.0
C      1  0.4612810000000  0.4579980000000  0.5104480000000 1.0
C      1  0.4788860000000  0.5463560000000  0.5409310000000 1.0
C      1  0.5210510000000  0.5409960000000  0.4536410000000 1.0
C      1  0.4788700000000  0.4536490000000  0.4590720000000 1.0
C      1  0.5210470000000  0.4589990000000  0.5463570000000 1.0
C      1  0.4438870000000  0.4418940000000  0.4705560000000 1.0
C      1  0.5560180000000  0.4704740000000  0.5581130000000 1.0
C      1  0.4439040000000  0.5581190000000  0.5294510000000 1.0
C      1  0.5560170000000  0.5295130000000  0.4418800000000 1.0
C      1  0.4651240000000  0.5750120000000  0.5214810000000 1.0
C      1  0.5348040000000  0.5214440000000  0.4250160000000 1.0
C      1  0.4651040000000  0.4249960000000  0.4785240000000 1.0
C      1  0.5348080000000  0.4785480000000  0.5749790000000 1.0
C      1  0.4976670000000  0.4239520000000  0.5126890000000 1.0
C      1  0.5022520000000  0.5127740000000  0.5757830000000 1.0
C      1  0.4976830000000  0.5760490000000  0.4873110000000 1.0
C      1  0.5022390000000  0.4872260000000  0.4242170000000 1.0
END
