TITL C-9255-4564-62 0.00034435176820602 125000 -361.901502383154 0 0 60 (C2) n - 1
REM
REM in /home/bkarasulu/CARBON/AIRSS/Generating-Clusters/EDIP-Nigel-Params/Higher-Symm/Box-15A/Only-C60/SD-CG/HFTN-CG
REM
REM
REM
REM
REM
REM ./C.cell (414f73aa93bd7a1190c7fd0f31ff2f98)
REM
REM compiler GCC version 9.2.1 20190827 (Red Hat 9.2.1-1)
REM options -cpp -mtune=generic -march=x86-64 -g -O0 -fpre-include=/usr/include/finclude/math-vector-fortran.h
REM seed -1154210787 -1299524255 -1824805578 -999989161 1953971528 852303374 1402454187 479197286 1812528508 -1103681221 -1689529555 -1365899497 -872058389 839007704 1538298773 263603168 358630716 -1891479818 1805492828 105475461 -1661782036 2116607686 217041574 342747609 40598411 -197391474 415259567 -1267011240 325195454 -407107150 537654774 999497961 -2069677169
REM
CELL 1.54180   50.00000   50.00000   50.00000   90.00000   90.00000   90.00000
LATT -1
SFAC C  
C      1  0.5395520000000  0.5136870000000  0.5851920000000 1.0
C      1  0.5395640000000  0.4863300000000  0.4148110000000 1.0
C      1  0.4583120000000  0.4854440000000  0.5852380000000 1.0
C      1  0.4583120000000  0.5145380000000  0.4147580000000 1.0
C      1  0.5447370000000  0.4751200000000  0.4397660000000 1.0
C      1  0.5447220000000  0.5249000000000  0.5602380000000 1.0
C      1  0.4536120000000  0.5259000000000  0.4397410000000 1.0
C      1  0.4536180000000  0.4740800000000  0.5602560000000 1.0
C      1  0.5420280000000  0.4876630000000  0.5073350000000 1.0
C      1  0.5420230000000  0.5123550000000  0.4926680000000 1.0
C      1  0.4638650000000  0.5125610000000  0.5067220000000 1.0
C      1  0.4638700000000  0.4874240000000  0.4932750000000 1.0
C      1  0.4853260000000  0.5549660000000  0.5030790000000 1.0
C      1  0.4853500000000  0.4450280000000  0.4969190000000 1.0
C      1  0.5148780000000  0.4472280000000  0.5044390000000 1.0
C      1  0.5148550000000  0.5527790000000  0.4955620000000 1.0
C      1  0.4853950000000  0.4337010000000  0.4543210000000 1.0
C      1  0.4853630000000  0.5662930000000  0.5456780000000 1.0
C      1  0.5138480000000  0.5663310000000  0.4533420000000 1.0
C      1  0.5138730000000  0.4336750000000  0.5466590000000 1.0
C      1  0.4473630000000  0.4674670000000  0.5047360000000 1.0
C      1  0.4473500000000  0.5325100000000  0.4952600000000 1.0
C      1  0.5550270000000  0.5335730000000  0.5061540000000 1.0
C      1  0.5550420000000  0.4664500000000  0.4938500000000 1.0
C      1  0.5343440000000  0.4519590000000  0.4820870000000 1.0
C      1  0.5343220000000  0.5480550000000  0.5179160000000 1.0
C      1  0.4650980000000  0.5491800000000  0.4817390000000 1.0
C      1  0.4651180000000  0.4508050000000  0.5182580000000 1.0
C      1  0.4704760000000  0.4655080000000  0.4086520000000 1.0
C      1  0.4704540000000  0.5344790000000  0.5913460000000 1.0
C      1  0.5273700000000  0.5351200000000  0.4074730000000 1.0
C      1  0.5273780000000  0.4648920000000  0.5925290000000 1.0
C      1  0.5270590000000  0.5403640000000  0.5451160000000 1.0
C      1  0.5270800000000  0.4596480000000  0.4548860000000 1.0
C      1  0.4717470000000  0.4587760000000  0.5455370000000 1.0
C      1  0.4717330000000  0.5412120000000  0.4544610000000 1.0
C      1  0.5169200000000  0.4751880000000  0.4034320000000 1.0
C      1  0.5169020000000  0.5248190000000  0.5965690000000 1.0
C      1  0.4806720000000  0.5256820000000  0.4027780000000 1.0
C      1  0.4806750000000  0.4743090000000  0.5972200000000 1.0
C      1  0.4968030000000  0.5396380000000  0.5844700000000 1.0
C      1  0.4968270000000  0.4603600000000  0.4155300000000 1.0
C      1  0.5010870000000  0.4595910000000  0.5854810000000 1.0
C      1  0.5010760000000  0.5404090000000  0.4145190000000 1.0
C      1  0.4781590000000  0.5754290000000  0.5217910000000 1.0
C      1  0.4781930000000  0.4245610000000  0.4782080000000 1.0
C      1  0.5239870000000  0.4274330000000  0.5229560000000 1.0
C      1  0.5239570000000  0.5725770000000  0.4770460000000 1.0
C      1  0.4550310000000  0.5126780000000  0.5888960000000 1.0
C      1  0.4550430000000  0.4873030000000  0.4111000000000 1.0
C      1  0.5429110000000  0.4865290000000  0.5893220000000 1.0
C      1  0.5429120000000  0.5134900000000  0.4106810000000 1.0
C      1  0.4954370000000  0.5503640000000  0.4408750000000 1.0
C      1  0.4954540000000  0.4496340000000  0.5591240000000 1.0
C      1  0.5028400000000  0.4508290000000  0.4419610000000 1.0
C      1  0.5028140000000  0.5491730000000  0.5580390000000 1.0
C      1  0.4934110000000  0.5177560000000  0.5116590000000 1.0
C      1  0.4934190000000  0.4822410000000  0.4883400000000 1.0
C      1  0.5127050000000  0.4845650000000  0.5147830000000 1.0
C      1  0.5127000000000  0.5154400000000  0.4852180000000 1.0
END
