TITL C-9262-5533-214 -1.51245298067484e-06 125000 -358.259824918181 0 0 60 (C4) n - 1
REM
REM in /home/bkarasulu/CARBON/AIRSS/Generating-Clusters/EDIP-Nigel-Params/Higher-Symm/Box-15A/Only-C60/SD-CG/HFTN-CG
REM
REM
REM
REM
REM
REM ./C.cell (414f73aa93bd7a1190c7fd0f31ff2f98)
REM
REM compiler GCC version 9.2.1 20190827 (Red Hat 9.2.1-1)
REM options -cpp -mtune=generic -march=x86-64 -g -O0 -fpre-include=/usr/include/finclude/math-vector-fortran.h
REM seed -326826435 597588478 -192257542 2101478975 -1434615301 2085598251 630170396 -947586762 -279150339 -1459885386 556822909 1182941550 -253761386 -2102166248 -1281119108 413851718 1051944717 -1859054901 -1836248079 -1426389535 1392460011 -694633521 -1167348979 439314697 1746074016 -756574473 2107697492 1092623592 1220943450 676546006 -2047304401 -680702170 121537682
REM
CELL 1.54180   50.00000   50.00000   50.00000   90.00000   90.00000   90.00000
LATT -1
SFAC C  
C      1  0.4996040000000  0.4668140000000  0.4237830000000 1.0
C      1  0.5331780000000  0.4995830000000  0.4237800000000 1.0
C      1  0.5004090000000  0.5331580000000  0.4237710000000 1.0
C      1  0.4668350000000  0.5003890000000  0.4237740000000 1.0
C      1  0.4991570000000  0.5822510000000  0.5058290000000 1.0
C      1  0.4177490000000  0.4991590000000  0.5058380000000 1.0
C      1  0.5008420000000  0.4177510000000  0.5058600000000 1.0
C      1  0.5822500000000  0.5008430000000  0.5058520000000 1.0
C      1  0.5623890000000  0.5328430000000  0.5418720000000 1.0
C      1  0.4671610000000  0.5624000000000  0.5418580000000 1.0
C      1  0.4376040000000  0.4671720000000  0.5418730000000 1.0
C      1  0.5328320000000  0.4376160000000  0.5418870000000 1.0
C      1  0.5583510000000  0.5222860000000  0.4700920000000 1.0
C      1  0.4777110000000  0.5583430000000  0.4700780000000 1.0
C      1  0.4416540000000  0.4777030000000  0.4700900000000 1.0
C      1  0.5222940000000  0.4416460000000  0.4701030000000 1.0
C      1  0.5281530000000  0.5543390000000  0.4753830000000 1.0
C      1  0.4456590000000  0.5281460000000  0.4753800000000 1.0
C      1  0.4718510000000  0.4456520000000  0.4753980000000 1.0
C      1  0.5543450000000  0.4718450000000  0.4754000000000 1.0
C      1  0.5463210000000  0.5200530000000  0.5617690000000 1.0
C      1  0.4799530000000  0.5463380000000  0.5617580000000 1.0
C      1  0.4536680000000  0.4799690000000  0.5617680000000 1.0
C      1  0.5200370000000  0.4536850000000  0.5617790000000 1.0
C      1  0.5641970000000  0.4982010000000  0.4846790000000 1.0
C      1  0.5017980000000  0.5641930000000  0.4846620000000 1.0
C      1  0.4358060000000  0.5017940000000  0.4846680000000 1.0
C      1  0.4982050000000  0.4358020000000  0.4846850000000 1.0
C      1  0.4695960000000  0.5327910000000  0.4593890000000 1.0
C      1  0.4672050000000  0.4695850000000  0.4594010000000 1.0
C      1  0.5304110000000  0.4671940000000  0.4594070000000 1.0
C      1  0.5328020000000  0.5304000000000  0.4593950000000 1.0
C      1  0.4497470000000  0.4491380000000  0.4946090000000 1.0
C      1  0.5508620000000  0.4497450000000  0.4946170000000 1.0
C      1  0.5502540000000  0.5508600000000  0.4945990000000 1.0
C      1  0.4491390000000  0.5502530000000  0.4945900000000 1.0
C      1  0.4749310000000  0.5257030000000  0.4320570000000 1.0
C      1  0.4742900000000  0.4749130000000  0.4320660000000 1.0
C      1  0.5250810000000  0.4742720000000  0.4320710000000 1.0
C      1  0.5257220000000  0.5250620000000  0.4320620000000 1.0
C      1  0.5090960000000  0.4798320000000  0.5664860000000 1.0
C      1  0.5201750000000  0.5091140000000  0.5664810000000 1.0
C      1  0.4908930000000  0.5201930000000  0.5664770000000 1.0
C      1  0.4798130000000  0.4909110000000  0.5664810000000 1.0
C      1  0.4978050000000  0.5274840000000  0.5079040000000 1.0
C      1  0.4725170000000  0.4978070000000  0.5079080000000 1.0
C      1  0.5021940000000  0.4725190000000  0.5079150000000 1.0
C      1  0.5274810000000  0.5021960000000  0.5079120000000 1.0
C      1  0.4197030000000  0.4835360000000  0.5276990000000 1.0
C      1  0.5164660000000  0.4197110000000  0.5277190000000 1.0
C      1  0.5802920000000  0.5164740000000  0.5277060000000 1.0
C      1  0.4835290000000  0.5803000000000  0.5276860000000 1.0
C      1  0.5258550000000  0.4782130000000  0.5255540000000 1.0
C      1  0.5217900000000  0.5258620000000  0.5255450000000 1.0
C      1  0.4741410000000  0.5217970000000  0.5255410000000 1.0
C      1  0.4782060000000  0.4741480000000  0.5255500000000 1.0
C      1  0.5431980000000  0.5464370000000  0.5228720000000 1.0
C      1  0.4535650000000  0.5432050000000  0.5228650000000 1.0
C      1  0.4567980000000  0.4535720000000  0.5228820000000 1.0
C      1  0.5464310000000  0.4568040000000  0.5228890000000 1.0
END
