TITL C-9260-5597-239 2.55423998061445e-06 125000 -375.907217520076 0 0 60 (D2) n - 1
REM
REM in /home/bkarasulu/CARBON/AIRSS/Generating-Clusters/EDIP-Nigel-Params/Higher-Symm/Box-15A/Only-C60/SD-CG/HFTN-CG
REM
REM
REM
REM
REM
REM ./C.cell (414f73aa93bd7a1190c7fd0f31ff2f98)
REM
REM compiler GCC version 9.2.1 20190827 (Red Hat 9.2.1-1)
REM options -cpp -mtune=generic -march=x86-64 -g -O0 -fpre-include=/usr/include/finclude/math-vector-fortran.h
REM seed 1573986454 -1925583841 174171345 -1581089810 1033578180 1531456178 -179432000 -1461290224 1233348824 619558545 -982290921 -1830143047 -724626637 1514823954 522815375 451271796 99634176 637155208 1454611329 -530402118 1388362877 -1259648914 758188546 -1864360805 -2007827469 57166586 -1995539893 1060542520 -1555821208 -1461026404 17000044 -1049644352 1816485484
REM
CELL 1.54180   50.00000   50.00000   50.00000   90.00000   90.00000   90.00000
LATT -1
SFAC C  
C      1  0.4412170000000  0.4781780000000  0.4574850000000 1.0
C      1  0.5072440000000  0.4766540000000  0.4270280000000 1.0
C      1  0.5648960000000  0.4755410000000  0.4711420000000 1.0
C      1  0.5586740000000  0.4789160000000  0.5430350000000 1.0
C      1  0.4926420000000  0.4784660000000  0.5735150000000 1.0
C      1  0.4349820000000  0.4765780000000  0.5294380000000 1.0
C      1  0.5589320000000  0.5207880000000  0.4571740000000 1.0
C      1  0.4930110000000  0.5215700000000  0.4264590000000 1.0
C      1  0.4352060000000  0.5237500000000  0.4703320000000 1.0
C      1  0.4411770000000  0.5221190000000  0.5423060000000 1.0
C      1  0.5071030000000  0.5233100000000  0.5729970000000 1.0
C      1  0.5649160000000  0.5241320000000  0.5290880000000 1.0
C      1  0.4333450000000  0.4857750000000  0.5032340000000 1.0
C      1  0.4615250000000  0.4859220000000  0.4397760000000 1.0
C      1  0.5326260000000  0.4833720000000  0.4368800000000 1.0
C      1  0.5665820000000  0.4853610000000  0.4971150000000 1.0
C      1  0.5384070000000  0.4871890000000  0.5605500000000 1.0
C      1  0.4672930000000  0.4850720000000  0.5635030000000 1.0
C      1  0.5666440000000  0.5143020000000  0.5031210000000 1.0
C      1  0.5386850000000  0.5126160000000  0.4395870000000 1.0
C      1  0.4675940000000  0.5150920000000  0.4363820000000 1.0
C      1  0.4334290000000  0.5145620000000  0.4965300000000 1.0
C      1  0.4613830000000  0.5142730000000  0.5600870000000 1.0
C      1  0.5324860000000  0.5164640000000  0.5632360000000 1.0
C      1  0.5567510000000  0.4673830000000  0.5176990000000 1.0
C      1  0.5140360000000  0.4711220000000  0.5571420000000 1.0
C      1  0.4577360000000  0.4671750000000  0.5422270000000 1.0
C      1  0.4430830000000  0.4672530000000  0.4830930000000 1.0
C      1  0.4858130000000  0.4698180000000  0.4435730000000 1.0
C      1  0.5420940000000  0.4659470000000  0.4585830000000 1.0
C      1  0.4431890000000  0.5330340000000  0.5167060000000 1.0
C      1  0.4857660000000  0.5302530000000  0.5563760000000 1.0
C      1  0.5421180000000  0.5338400000000  0.5415660000000 1.0
C      1  0.5569770000000  0.5323300000000  0.4825030000000 1.0
C      1  0.5143840000000  0.5288060000000  0.4429080000000 1.0
C      1  0.4580520000000  0.5330370000000  0.4576240000000 1.0
C      1  0.5074310000000  0.4649080000000  0.5293360000000 1.0
C      1  0.4793650000000  0.4549910000000  0.5241340000000 1.0
C      1  0.4704640000000  0.4549240000000  0.4900830000000 1.0
C      1  0.4923890000000  0.4642460000000  0.4715220000000 1.0
C      1  0.5204040000000  0.4543150000000  0.4769650000000 1.0
C      1  0.5293070000000  0.4550280000000  0.5110080000000 1.0
C      1  0.4924680000000  0.5357930000000  0.5284510000000 1.0
C      1  0.5205520000000  0.5455820000000  0.5231080000000 1.0
C      1  0.5295720000000  0.5448230000000  0.4890970000000 1.0
C      1  0.5077120000000  0.5350540000000  0.4706910000000 1.0
C      1  0.4796780000000  0.5451130000000  0.4757940000000 1.0
C      1  0.4706570000000  0.5452240000000  0.5098130000000 1.0
C      1  0.4801270000000  0.5757800000000  0.4782610000000 1.0
C      1  0.5063740000000  0.5862360000000  0.4761110000000 1.0
C      1  0.5280300000000  0.5756020000000  0.4909810000000 1.0
C      1  0.5202600000000  0.5761820000000  0.5198980000000 1.0
C      1  0.4940670000000  0.5868210000000  0.5217920000000 1.0
C      1  0.4723560000000  0.5759400000000  0.5071830000000 1.0
C      1  0.5199450000000  0.4237170000000  0.4801730000000 1.0
C      1  0.4937060000000  0.4132100000000  0.4781860000000 1.0
C      1  0.4719990000000  0.4242000000000  0.4927180000000 1.0
C      1  0.4796680000000  0.4243220000000  0.5216670000000 1.0
C      1  0.5058540000000  0.4137330000000  0.5239110000000 1.0
C      1  0.5276160000000  0.4242570000000  0.5091170000000 1.0
END
