TITL C-9269-7444-136 1.78618253220257e-06 125000 -374.803796828969 0 0 60 (C1) n - 1
REM
REM in /home/bkarasulu/CARBON/AIRSS/Generating-Clusters/EDIP-Nigel-Params/Higher-Symm/Box-15A/Only-C60/SD-CG/HFTN-CG
REM
REM
REM
REM
REM
REM ./C.cell (414f73aa93bd7a1190c7fd0f31ff2f98)
REM
REM compiler GCC version 9.2.1 20190827 (Red Hat 9.2.1-1)
REM options -cpp -mtune=generic -march=x86-64 -g -O0 -fpre-include=/usr/include/finclude/math-vector-fortran.h
REM seed -2070980792 -1736473191 -1469351031 -1122637943 147562454 968637511 807881784 2120096096 -439572497 -1290281116 -1072565035 -1172242958 693189417 -1862212731 996870072 -1373801452 182217796 324942667 -1910097842 -1953348545 -2144616481 1954305687 -1163888621 -2135893039 -1344340943 166189409 2109224014 197883457 1929945800 1699497261 -1049980757 -493342893 -287686770
REM
CELL 1.54180   50.00000   50.00000   50.00000   90.00000   90.00000   90.00000
LATT -1
SFAC C  
C      1  0.5372900000000  0.4526010000000  0.5128920000000 1.0
C      1  0.4867790000000  0.4420240000000  0.5107140000000 1.0
C      1  0.4491160000000  0.4764190000000  0.5099070000000 1.0
C      1  0.4433110000000  0.5268740000000  0.5101210000000 1.0
C      1  0.4864290000000  0.5537890000000  0.5102590000000 1.0
C      1  0.5366500000000  0.5449050000000  0.5110790000000 1.0
C      1  0.5595530000000  0.4987030000000  0.5129860000000 1.0
C      1  0.5112130000000  0.4461470000000  0.5569110000000 1.0
C      1  0.4656650000000  0.4597460000000  0.5547550000000 1.0
C      1  0.4413400000000  0.5006520000000  0.5549120000000 1.0
C      1  0.4625040000000  0.5442780000000  0.5551260000000 1.0
C      1  0.5097210000000  0.5504260000000  0.5551460000000 1.0
C      1  0.5484970000000  0.5229370000000  0.5571480000000 1.0
C      1  0.5501160000000  0.4747110000000  0.5580980000000 1.0
C      1  0.4482680000000  0.5243160000000  0.5390170000000 1.0
C      1  0.4853650000000  0.5565900000000  0.5398270000000 1.0
C      1  0.5338780000000  0.5427080000000  0.5404900000000 1.0
C      1  0.5572450000000  0.4988960000000  0.5425090000000 1.0
C      1  0.5356150000000  0.4541520000000  0.5424210000000 1.0
C      1  0.4867120000000  0.4455800000000  0.5401250000000 1.0
C      1  0.4458310000000  0.4751780000000  0.5394200000000 1.0
C      1  0.5149140000000  0.4409560000000  0.4688550000000 1.0
C      1  0.4677570000000  0.4573180000000  0.4665000000000 1.0
C      1  0.4440130000000  0.5024420000000  0.4668890000000 1.0
C      1  0.4625780000000  0.5427480000000  0.4669720000000 1.0
C      1  0.5130560000000  0.5511740000000  0.4669360000000 1.0
C      1  0.5545620000000  0.5235800000000  0.4690530000000 1.0
C      1  0.5549210000000  0.4726350000000  0.4699040000000 1.0
C      1  0.5139940000000  0.4406770000000  0.4980270000000 1.0
C      1  0.4643810000000  0.4553110000000  0.4956080000000 1.0
C      1  0.4399670000000  0.5007140000000  0.4956930000000 1.0
C      1  0.4616430000000  0.5460850000000  0.4959650000000 1.0
C      1  0.5125180000000  0.5546750000000  0.4960460000000 1.0
C      1  0.5543280000000  0.5243510000000  0.4981970000000 1.0
C      1  0.5551180000000  0.4724640000000  0.4991790000000 1.0
C      1  0.5138270000000  0.5287340000000  0.4144860000000 1.0
C      1  0.5164160000000  0.5036340000000  0.4006680000000 1.0
C      1  0.5078050000000  0.4792610000000  0.4150750000000 1.0
C      1  0.4818150000000  0.4694310000000  0.4105730000000 1.0
C      1  0.4654100000000  0.4876170000000  0.4250920000000 1.0
C      1  0.4693920000000  0.5152760000000  0.4197850000000 1.0
C      1  0.4878740000000  0.5363290000000  0.4249100000000 1.0
C      1  0.4895930000000  0.4425550000000  0.4565560000000 1.0
C      1  0.4582120000000  0.4814380000000  0.4527420000000 1.0
C      1  0.4411620000000  0.5282170000000  0.4553530000000 1.0
C      1  0.4880160000000  0.5447040000000  0.4530460000000 1.0
C      1  0.5379610000000  0.5427870000000  0.4567860000000 1.0
C      1  0.5592570000000  0.4979880000000  0.4583940000000 1.0
C      1  0.5379660000000  0.4532760000000  0.4584320000000 1.0
C      1  0.5066030000000  0.4660870000000  0.5795050000000 1.0
C      1  0.4786130000000  0.4771950000000  0.5745270000000 1.0
C      1  0.4603760000000  0.5010340000000  0.5792520000000 1.0
C      1  0.4738910000000  0.5289030000000  0.5793930000000 1.0
C      1  0.5039460000000  0.5293660000000  0.5748070000000 1.0
C      1  0.5299470000000  0.5141220000000  0.5796670000000 1.0
C      1  0.5323650000000  0.4832490000000  0.5815610000000 1.0
C      1  0.5027530000000  0.4977490000000  0.4908390000000 1.0
C      1  0.5106360000000  0.4928320000000  0.4656460000000 1.0
C      1  0.4999830000000  0.4992540000000  0.5162850000000 1.0
C      1  0.5061440000000  0.4988350000000  0.4381110000000 1.0
END
