TITL C-9269-7444-114 0.717663167321314 125000 -355.845053259171 0 0 60 (C1) n - 1
REM
REM in /home/bkarasulu/CARBON/AIRSS/Generating-Clusters/EDIP-Nigel-Params/Higher-Symm/Box-15A/Only-C60/SD-CG/HFTN-CG
REM
REM
REM
REM
REM
REM ./C.cell (414f73aa93bd7a1190c7fd0f31ff2f98)
REM
REM compiler GCC version 9.2.1 20190827 (Red Hat 9.2.1-1)
REM options -cpp -mtune=generic -march=x86-64 -g -O0 -fpre-include=/usr/include/finclude/math-vector-fortran.h
REM seed 1214502180 -828753670 1159879538 1003019414 -2027224578 1271563829 71494255 -1558243646 1042481431 -1857839975 -1632734984 807216357 -1967003666 -436887358 -1445932930 -495010310 1551748596 -2133568806 -940461993 -637573656 -772515374 1857278338 -1881268540 1657214052 1837690165 -612420124 1939512670 -474698157 -276103817 -228157102 -1321538875 -1586263035 -640303042
REM
CELL 1.54180   50.00000   50.00000   50.00000   90.00000   90.00000   90.00000
LATT -1
SFAC C  
C      1  0.5506710000000  0.4892100000000  0.5258490000000 1.0
C      1  0.5498500000000  0.5298910000000  0.4956390000000 1.0
C      1  0.5530790000000  0.4833300000000  0.4754670000000 1.0
C      1  0.4560830000000  0.5163140000000  0.4503180000000 1.0
C      1  0.4532170000000  0.4426110000000  0.5087110000000 1.0
C      1  0.4536660000000  0.5256970000000  0.5377290000000 1.0
C      1  0.5314690000000  0.4826420000000  0.5475600000000 1.0
C      1  0.5307740000000  0.5513070000000  0.4880210000000 1.0
C      1  0.5365830000000  0.4652860000000  0.4585510000000 1.0
C      1  0.4781110000000  0.4567470000000  0.4829640000000 1.0
C      1  0.4765780000000  0.5062230000000  0.5413300000000 1.0
C      1  0.4756790000000  0.5309560000000  0.4683930000000 1.0
C      1  0.5169060000000  0.4589580000000  0.5391440000000 1.0
C      1  0.5134100000000  0.5561340000000  0.5108150000000 1.0
C      1  0.5197050000000  0.4818920000000  0.4419740000000 1.0
C      1  0.5305020000000  0.5101100000000  0.4453330000000 1.0
C      1  0.5304290000000  0.4497310000000  0.5139720000000 1.0
C      1  0.5255940000000  0.5407050000000  0.5341250000000 1.0
C      1  0.5256250000000  0.5563820000000  0.4608340000000 1.0
C      1  0.5312980000000  0.4388910000000  0.4665670000000 1.0
C      1  0.5232190000000  0.5024070000000  0.5657290000000 1.0
C      1  0.5957190000000  0.5088730000000  0.5272160000000 1.0
C      1  0.5968980000000  0.5231380000000  0.4830880000000 1.0
C      1  0.5990460000000  0.4779710000000  0.4928640000000 1.0
C      1  0.4683860000000  0.4764770000000  0.5421480000000 1.0
C      1  0.4658470000000  0.5477030000000  0.4923310000000 1.0
C      1  0.4714220000000  0.4667250000000  0.4546810000000 1.0
C      1  0.4977180000000  0.4731670000000  0.4951410000000 1.0
C      1  0.4954270000000  0.5111350000000  0.5202450000000 1.0
C      1  0.4976120000000  0.5138490000000  0.4748910000000 1.0
C      1  0.5199020000000  0.4317070000000  0.4913970000000 1.0
C      1  0.5120690000000  0.5270490000000  0.5581110000000 1.0
C      1  0.5167830000000  0.5372090000000  0.4422500000000 1.0
C      1  0.4680620000000  0.5245130000000  0.4261260000000 1.0
C      1  0.4738710000000  0.4233130000000  0.5108670000000 1.0
C      1  0.4627090000000  0.5443490000000  0.5567650000000 1.0
C      1  0.4896740000000  0.4585920000000  0.5451620000000 1.0
C      1  0.4865720000000  0.5618210000000  0.5048410000000 1.0
C      1  0.4936870000000  0.4721040000000  0.4385880000000 1.0
C      1  0.4485320000000  0.4670450000000  0.5232270000000 1.0
C      1  0.4501070000000  0.5348170000000  0.5114730000000 1.0
C      1  0.4541590000000  0.4886860000000  0.4542420000000 1.0
C      1  0.5711200000000  0.5284360000000  0.4741210000000 1.0
C      1  0.5739970000000  0.4664240000000  0.4894670000000 1.0
C      1  0.5693830000000  0.5108600000000  0.5359030000000 1.0
C      1  0.4889320000000  0.5416350000000  0.4338350000000 1.0
C      1  0.4897460000000  0.4287970000000  0.4878380000000 1.0
C      1  0.4852300000000  0.5323830000000  0.5684050000000 1.0
C      1  0.5591500000000  0.5072350000000  0.4569780000000 1.0
C      1  0.5590790000000  0.4614500000000  0.5146390000000 1.0
C      1  0.5548270000000  0.5346630000000  0.5256040000000 1.0
C      1  0.4250270000000  0.4809380000000  0.5198310000000 1.0
C      1  0.4019960000000  0.4932000000000  0.5155650000000 1.0
C      1  0.3341330000000  0.5305410000000  0.5038380000000 1.0
C      1  0.6344710000000  0.5054730000000  0.5027570000000 1.0
C      1  0.5071620000000  0.4995560000000  0.4972600000000 1.0
C      1  0.3791720000000  0.5058590000000  0.5116910000000 1.0
C      1  0.3562710000000  0.5183190000000  0.5076340000000 1.0
C      1  0.5383010000000  0.5003460000000  0.4985010000000 1.0
C      1  0.6073100000000  0.5039210000000  0.5015320000000 1.0
END
