TITL C-9262-5533-208 -1.22485110727669e-05 125000 -362.195522846259 0 0 60 (C1) n - 1
REM
REM in /home/bkarasulu/CARBON/AIRSS/Generating-Clusters/EDIP-Nigel-Params/Higher-Symm/Box-15A/Only-C60/SD-CG/HFTN-CG
REM
REM
REM
REM
REM
REM ./C.cell (414f73aa93bd7a1190c7fd0f31ff2f98)
REM
REM compiler GCC version 9.2.1 20190827 (Red Hat 9.2.1-1)
REM options -cpp -mtune=generic -march=x86-64 -g -O0 -fpre-include=/usr/include/finclude/math-vector-fortran.h
REM seed 1415093192 -1323504693 -1884181830 -1810976040 -237009786 1152501625 963973961 1577487313 606013600 1616091270 -3693408 -2089870193 -1119283662 -38094847 1429069574 2147378383 -2125923706 1531079594 114806081 210722922 -1231655940 -1336499746 627351779 1864163970 314617916 1064318127 818315081 -2009780388 -1565146837 169735059 -1440587614 494959990 -820588699
REM
CELL 1.54180   50.00000   50.00000   50.00000   90.00000   90.00000   90.00000
LATT -1
SFAC C  
C      1  0.4346790000000  0.4995810000000  0.4535430000000 1.0
C      1  0.4323900000000  0.4542270000000  0.4839110000000 1.0
C      1  0.4336700000000  0.4714740000000  0.5355830000000 1.0
C      1  0.4338100000000  0.5250800000000  0.5361570000000 1.0
C      1  0.4347960000000  0.5424670000000  0.4857800000000 1.0
C      1  0.4799970000000  0.5140590000000  0.5239600000000 1.0
C      1  0.4802050000000  0.5263000000000  0.4947420000000 1.0
C      1  0.4794850000000  0.5018070000000  0.4745340000000 1.0
C      1  0.4651040000000  0.4827470000000  0.4920910000000 1.0
C      1  0.4765690000000  0.4839340000000  0.5185790000000 1.0
C      1  0.4723910000000  0.5548810000000  0.5469810000000 1.0
C      1  0.4768610000000  0.5573410000000  0.4607000000000 1.0
C      1  0.4785740000000  0.4829840000000  0.4316180000000 1.0
C      1  0.4773870000000  0.4357780000000  0.4988500000000 1.0
C      1  0.4768060000000  0.4730680000000  0.5647620000000 1.0
C      1  0.5539810000000  0.4845300000000  0.4621050000000 1.0
C      1  0.5564850000000  0.4568860000000  0.5045320000000 1.0
C      1  0.5565010000000  0.4907320000000  0.5405500000000 1.0
C      1  0.5563320000000  0.5373660000000  0.5186100000000 1.0
C      1  0.5583030000000  0.5340080000000  0.4695740000000 1.0
C      1  0.5000430000000  0.5041010000000  0.5616380000000 1.0
C      1  0.5087590000000  0.5643610000000  0.5158910000000 1.0
C      1  0.5050670000000  0.5387740000000  0.4408820000000 1.0
C      1  0.5069650000000  0.4585340000000  0.4423720000000 1.0
C      1  0.5062730000000  0.4325730000000  0.5243010000000 1.0
C      1  0.4622420000000  0.5289130000000  0.5431890000000 1.0
C      1  0.4635180000000  0.5498540000000  0.4852360000000 1.0
C      1  0.4639490000000  0.5025090000000  0.4478530000000 1.0
C      1  0.4622260000000  0.4547120000000  0.4827600000000 1.0
C      1  0.4629070000000  0.4684670000000  0.5398740000000 1.0
C      1  0.4997310000000  0.5523800000000  0.5398790000000 1.0
C      1  0.5039090000000  0.5511020000000  0.4666530000000 1.0
C      1  0.5050250000000  0.4873590000000  0.4412590000000 1.0
C      1  0.5059450000000  0.4346070000000  0.4949000000000 1.0
C      1  0.5061660000000  0.4713620000000  0.5640240000000 1.0
C      1  0.5808040000000  0.4746690000000  0.5012730000000 1.0
C      1  0.5804430000000  0.4951880000000  0.5232780000000 1.0
C      1  0.5808170000000  0.5223930000000  0.5111520000000 1.0
C      1  0.5825130000000  0.5196420000000  0.4809130000000 1.0
C      1  0.5802950000000  0.4896480000000  0.4748920000000 1.0
C      1  0.5196710000000  0.5599560000000  0.4902320000000 1.0
C      1  0.5200000000000  0.5137040000000  0.4388150000000 1.0
C      1  0.5225290000000  0.4445920000000  0.4629660000000 1.0
C      1  0.5205190000000  0.4527090000000  0.5426170000000 1.0
C      1  0.5160820000000  0.5318590000000  0.5543030000000 1.0
C      1  0.4262560000000  0.4983000000000  0.5385710000000 1.0
C      1  0.4268330000000  0.5374820000000  0.5120640000000 1.0
C      1  0.4271720000000  0.5229030000000  0.4671210000000 1.0
C      1  0.4264300000000  0.4749690000000  0.4654460000000 1.0
C      1  0.4256070000000  0.4598860000000  0.5109560000000 1.0
C      1  0.5194450000000  0.4956950000000  0.5296340000000 1.0
C      1  0.5154720000000  0.5221450000000  0.5117670000000 1.0
C      1  0.5170970000000  0.5080600000000  0.4827690000000 1.0
C      1  0.5148880000000  0.4797740000000  0.4883170000000 1.0
C      1  0.5043360000000  0.4743160000000  0.5147230000000 1.0
C      1  0.5384370000000  0.4647050000000  0.4793470000000 1.0
C      1  0.5478220000000  0.4623460000000  0.5330860000000 1.0
C      1  0.5438480000000  0.5272780000000  0.5436670000000 1.0
C      1  0.5459280000000  0.5476620000000  0.4927620000000 1.0
C      1  0.5397040000000  0.5112650000000  0.4614530000000 1.0
END
