TITL C-9256-7861-304 2.75062580307242e-06 125000 -348.923915062874 0 0 60 (Ci) n - 1
REM
REM in /home/bkarasulu/CARBON/AIRSS/Generating-Clusters/EDIP-Nigel-Params/Higher-Symm/Box-15A/Only-C60/SD-CG/HFTN-CG
REM
REM
REM
REM
REM
REM ./C.cell (414f73aa93bd7a1190c7fd0f31ff2f98)
REM
REM compiler GCC version 9.2.1 20190827 (Red Hat 9.2.1-1)
REM options -cpp -mtune=generic -march=x86-64 -g -O0 -fpre-include=/usr/include/finclude/math-vector-fortran.h
REM seed -927899482 -1816828626 -535008389 -1927359616 -1687180807 -517432694 1654266573 1212804892 -571462566 2032038045 1774065960 -951540971 -216041837 -480318552 -1258995742 -1691998138 -1003448660 1735593342 -1100815379 -999402277 1248846778 -909545872 -173793006 1573599596 1677001123 1137754643 -609222009 73219292 -496976253 -1012745998 -443460361 -1268808103 228824804
REM
CELL 1.54180   50.00000   50.00000   50.00000   90.00000   90.00000   90.00000
LATT -1
SFAC C  
C      1  0.4792220000000  0.4966770000000  0.5194480000000 1.0
C      1  0.4736930000000  0.4998960000000  0.4918290000000 1.0
C      1  0.4947330000000  0.4966650000000  0.4725140000000 1.0
C      1  0.5207780000000  0.5033230000000  0.4805520000000 1.0
C      1  0.5263070000000  0.5001040000000  0.5081710000000 1.0
C      1  0.5052670000000  0.5033350000000  0.5274860000000 1.0
C      1  0.5093070000000  0.5395690000000  0.5023500000000 1.0
C      1  0.5017930000000  0.4594820000000  0.5263500000000 1.0
C      1  0.4828580000000  0.5405250000000  0.5182900000000 1.0
C      1  0.4906930000000  0.4604310000000  0.4976500000000 1.0
C      1  0.4982070000000  0.5405180000000  0.4736500000000 1.0
C      1  0.5171420000000  0.4594750000000  0.4817100000000 1.0
C      1  0.5633410000000  0.5265260000000  0.5208580000000 1.0
C      1  0.5084770000000  0.4763470000000  0.5658540000000 1.0
C      1  0.4512290000000  0.5247520000000  0.5448030000000 1.0
C      1  0.4366590000000  0.4734740000000  0.4791420000000 1.0
C      1  0.4915230000000  0.5236530000000  0.4341460000000 1.0
C      1  0.5487710000000  0.4752480000000  0.4551970000000 1.0
C      1  0.5195510000000  0.5550560000000  0.4569490000000 1.0
C      1  0.5430330000000  0.4472760000000  0.4936660000000 1.0
C      1  0.5254250000000  0.5519220000000  0.5361050000000 1.0
C      1  0.4804490000000  0.4449440000000  0.5430510000000 1.0
C      1  0.4569670000000  0.5527240000000  0.5063340000000 1.0
C      1  0.4745750000000  0.4480780000000  0.4638950000000 1.0
C      1  0.4616590000000  0.4903780000000  0.4429040000000 1.0
C      1  0.5377620000000  0.5174430000000  0.4370170000000 1.0
C      1  0.5705670000000  0.4894680000000  0.4943740000000 1.0
C      1  0.5383410000000  0.5096220000000  0.5570960000000 1.0
C      1  0.4622380000000  0.4825570000000  0.5629830000000 1.0
C      1  0.4294330000000  0.5105320000000  0.5056260000000 1.0
C      1  0.4989580000000  0.4423310000000  0.4465110000000 1.0
C      1  0.5449240000000  0.5524030000000  0.4766310000000 1.0
C      1  0.5412650000000  0.4463290000000  0.5252550000000 1.0
C      1  0.5010420000000  0.5576690000000  0.5534890000000 1.0
C      1  0.4550760000000  0.4475970000000  0.5233690000000 1.0
C      1  0.4587350000000  0.5536710000000  0.4747450000000 1.0
C      1  0.4406050000000  0.4750330000000  0.5175410000000 1.0
C      1  0.4624250000000  0.5259480000000  0.4585260000000 1.0
C      1  0.5145320000000  0.4694570000000  0.4439840000000 1.0
C      1  0.5593950000000  0.5249670000000  0.4824590000000 1.0
C      1  0.5375750000000  0.4740520000000  0.5414740000000 1.0
C      1  0.4854680000000  0.5305430000000  0.5560160000000 1.0
C      1  0.4846030000000  0.5669680000000  0.4688390000000 1.0
C      1  0.5183060000000  0.4328810000000  0.4671870000000 1.0
C      1  0.5301370000000  0.5623960000000  0.5002170000000 1.0
C      1  0.5153970000000  0.4330320000000  0.5311610000000 1.0
C      1  0.4816940000000  0.5671190000000  0.5328130000000 1.0
C      1  0.4698630000000  0.4376040000000  0.4997830000000 1.0
C      1  0.5436620000000  0.5042160000000  0.4616600000000 1.0
C      1  0.5546310000000  0.4987870000000  0.5170130000000 1.0
C      1  0.5095050000000  0.5047240000000  0.5564620000000 1.0
C      1  0.4563380000000  0.4957840000000  0.5383400000000 1.0
C      1  0.4453690000000  0.5012130000000  0.4829870000000 1.0
C      1  0.4904950000000  0.4952760000000  0.4435380000000 1.0
C      1  0.5474570000000  0.5335850000000  0.5440600000000 1.0
C      1  0.4821810000000  0.4638300000000  0.5658350000000 1.0
C      1  0.4375410000000  0.5341940000000  0.5202720000000 1.0
C      1  0.4525430000000  0.4664150000000  0.4559400000000 1.0
C      1  0.5178190000000  0.5361700000000  0.4341650000000 1.0
C      1  0.5624590000000  0.4658060000000  0.4797280000000 1.0
END
