TITL C-9259-5960-230 -2.15254439340703e-06 125000 -363.809809643682 0 0 60 (C1) n - 1
REM
REM in /home/bkarasulu/CARBON/AIRSS/Generating-Clusters/EDIP-Nigel-Params/Higher-Symm/Box-15A/Only-C60/SD-CG/HFTN-CG
REM
REM
REM
REM
REM
REM ./C.cell (414f73aa93bd7a1190c7fd0f31ff2f98)
REM
REM compiler GCC version 9.2.1 20190827 (Red Hat 9.2.1-1)
REM options -cpp -mtune=generic -march=x86-64 -g -O0 -fpre-include=/usr/include/finclude/math-vector-fortran.h
REM seed 838576976 -95009326 -371351432 -814061799 -859558526 479125503 -862697454 -1439249458 1246683419 -467764290 -458817422 84360350 -1257390156 1356797821 1123547030 875312132 -1773956549 -511078484 -1428367397 -961243269 -716166691 -1687928371 982385301 1366967551 -516089959 -685589890 159590545 -949291542 -133584192 -1556859184 1346960565 -1770885569 1362763583
REM
CELL 1.54180   50.00000   50.00000   50.00000   90.00000   90.00000   90.00000
LATT -1
SFAC C  
C      1  0.4429280000000  0.5460000000000  0.4944010000000 1.0
C      1  0.4469820000000  0.5501440000000  0.5325710000000 1.0
C      1  0.4904140000000  0.5691410000000  0.5493720000000 1.0
C      1  0.5171520000000  0.5647200000000  0.5564560000000 1.0
C      1  0.5387460000000  0.5768840000000  0.5426440000000 1.0
C      1  0.5497530000000  0.5557350000000  0.5275630000000 1.0
C      1  0.5555590000000  0.5574620000000  0.4995730000000 1.0
C      1  0.5361750000000  0.5541850000000  0.4673650000000 1.0
C      1  0.5080940000000  0.5429170000000  0.4658470000000 1.0
C      1  0.4714180000000  0.5469550000000  0.4542290000000 1.0
C      1  0.4449460000000  0.5478430000000  0.4655910000000 1.0
C      1  0.4831020000000  0.4420990000000  0.5466510000000 1.0
C      1  0.5095350000000  0.4333470000000  0.5417960000000 1.0
C      1  0.5349470000000  0.4447960000000  0.5479990000000 1.0
C      1  0.5553000000000  0.4445890000000  0.5287050000000 1.0
C      1  0.5510750000000  0.4432800000000  0.4544720000000 1.0
C      1  0.5259830000000  0.4452830000000  0.4432170000000 1.0
C      1  0.5034810000000  0.4462550000000  0.4610390000000 1.0
C      1  0.4759900000000  0.4478790000000  0.4509770000000 1.0
C      1  0.4589580000000  0.4465910000000  0.4747300000000 1.0
C      1  0.4751660000000  0.4395040000000  0.4975130000000 1.0
C      1  0.4663910000000  0.4481440000000  0.5236300000000 1.0
C      1  0.4809670000000  0.4565720000000  0.5705860000000 1.0
C      1  0.5055470000000  0.4674460000000  0.5753100000000 1.0
C      1  0.5294530000000  0.4709300000000  0.5605960000000 1.0
C      1  0.5655230000000  0.4426240000000  0.5040460000000 1.0
C      1  0.5644470000000  0.4420610000000  0.4774580000000 1.0
C      1  0.5213280000000  0.4569730000000  0.4182210000000 1.0
C      1  0.4977620000000  0.4707760000000  0.4174840000000 1.0
C      1  0.4739240000000  0.4711980000000  0.4327810000000 1.0
C      1  0.4309350000000  0.4498410000000  0.4776070000000 1.0
C      1  0.4292930000000  0.4687730000000  0.4988840000000 1.0
C      1  0.4401670000000  0.4586530000000  0.5232000000000 1.0
C      1  0.4601700000000  0.5040000000000  0.5395060000000 1.0
C      1  0.4811330000000  0.5218450000000  0.5454600000000 1.0
C      1  0.5086760000000  0.5156650000000  0.5526610000000 1.0
C      1  0.5267230000000  0.4935740000000  0.5400790000000 1.0
C      1  0.5534440000000  0.5062640000000  0.5287410000000 1.0
C      1  0.5572650000000  0.5083140000000  0.4996540000000 1.0
C      1  0.5451050000000  0.5060370000000  0.4633390000000 1.0
C      1  0.5239140000000  0.5018300000000  0.4455500000000 1.0
C      1  0.4670100000000  0.4961370000000  0.4477360000000 1.0
C      1  0.4399250000000  0.4989270000000  0.4598650000000 1.0
C      1  0.4386250000000  0.4949460000000  0.4892470000000 1.0
C      1  0.4325350000000  0.5201610000000  0.5031790000000 1.0
C      1  0.4391390000000  0.5218450000000  0.5313710000000 1.0
C      1  0.4719230000000  0.5487300000000  0.5463410000000 1.0
C      1  0.5230040000000  0.5374110000000  0.5663950000000 1.0
C      1  0.5508790000000  0.5320710000000  0.5690540000000 1.0
C      1  0.5594820000000  0.5320280000000  0.5420090000000 1.0
C      1  0.5684220000000  0.5333240000000  0.4892900000000 1.0
C      1  0.5564460000000  0.5328850000000  0.4627630000000 1.0
C      1  0.5079170000000  0.5247170000000  0.4413350000000 1.0
C      1  0.4785460000000  0.5224680000000  0.4394260000000 1.0
C      1  0.4316550000000  0.5254620000000  0.4552690000000 1.0
C      1  0.5189550000000  0.4566900000000  0.5064130000000 1.0
C      1  0.5031180000000  0.5016040000000  0.4984330000000 1.0
C      1  0.5043720000000  0.5265870000000  0.4889610000000 1.0
C      1  0.5032980000000  0.4402160000000  0.4896100000000 1.0
C      1  0.5127960000000  0.4826900000000  0.5159420000000 1.0
END
