TITL C-9255-4564-53 -5.15823407860692e-05 125000 -361.049667876654 0 0 60 (C1) n - 1
REM
REM in /home/bkarasulu/CARBON/AIRSS/Generating-Clusters/EDIP-Nigel-Params/Higher-Symm/Box-15A/Only-C60/SD-CG/HFTN-CG
REM
REM
REM
REM
REM
REM ./C.cell (414f73aa93bd7a1190c7fd0f31ff2f98)
REM
REM compiler GCC version 9.2.1 20190827 (Red Hat 9.2.1-1)
REM options -cpp -mtune=generic -march=x86-64 -g -O0 -fpre-include=/usr/include/finclude/math-vector-fortran.h
REM seed -1160908254 -2014738441 -72746799 -1190862894 -727683083 891907666 284165495 1080666670 -306785524 -1523406374 702532875 1350743327 1566845333 -1703912914 -941638999 1307736983 2118637208 -407017383 -975595363 -1272241292 -111099785 1047405354 -693736291 1597388812 -446442820 -1137815894 1414612958 -1119481222 694276087 -808485170 1946831413 -1632257530 -1732988840
REM
CELL 1.54180   50.00000   50.00000   50.00000   90.00000   90.00000   90.00000
LATT -1
SFAC C  
C      1  0.4785650000000  0.5261540000000  0.5773360000000 1.0
C      1  0.5227930000000  0.4696380000000  0.5190160000000 1.0
C      1  0.5049580000000  0.4498410000000  0.4241890000000 1.0
C      1  0.4631290000000  0.4515660000000  0.4535500000000 1.0
C      1  0.4785390000000  0.4465840000000  0.5014870000000 1.0
C      1  0.5527730000000  0.5070020000000  0.5384820000000 1.0
C      1  0.4926210000000  0.4455100000000  0.5487350000000 1.0
C      1  0.5451860000000  0.5509560000000  0.5143060000000 1.0
C      1  0.4942820000000  0.5424170000000  0.5238720000000 1.0
C      1  0.5641050000000  0.4834530000000  0.4894340000000 1.0
C      1  0.5060910000000  0.5360000000000  0.5659640000000 1.0
C      1  0.5507990000000  0.4624530000000  0.5069170000000 1.0
C      1  0.5099280000000  0.4645250000000  0.4696140000000 1.0
C      1  0.5071450000000  0.5154780000000  0.5108800000000 1.0
C      1  0.5694900000000  0.4848960000000  0.5428010000000 1.0
C      1  0.5354020000000  0.4636990000000  0.4548200000000 1.0
C      1  0.4847410000000  0.4953620000000  0.5044020000000 1.0
C      1  0.5145630000000  0.5069830000000  0.5609710000000 1.0
C      1  0.4564810000000  0.5529880000000  0.4780060000000 1.0
C      1  0.4870620000000  0.5190740000000  0.4181160000000 1.0
C      1  0.4445140000000  0.4831380000000  0.4809090000000 1.0
C      1  0.5536270000000  0.5172950000000  0.4507280000000 1.0
C      1  0.4923690000000  0.4541520000000  0.4490780000000 1.0
C      1  0.4667700000000  0.5346780000000  0.5995380000000 1.0
C      1  0.4288570000000  0.4847250000000  0.4561720000000 1.0
C      1  0.5446200000000  0.4447170000000  0.5517220000000 1.0
C      1  0.5256260000000  0.5144500000000  0.4864740000000 1.0
C      1  0.5078010000000  0.5159550000000  0.4357020000000 1.0
C      1  0.5202410000000  0.5577420000000  0.5551470000000 1.0
C      1  0.5239420000000  0.4996860000000  0.5330600000000 1.0
C      1  0.4883700000000  0.4963120000000  0.5733550000000 1.0
C      1  0.4277210000000  0.5220080000000  0.5030120000000 1.0
C      1  0.5646380000000  0.5320180000000  0.4739490000000 1.0
C      1  0.5314150000000  0.4558890000000  0.4280970000000 1.0
C      1  0.4849820000000  0.5522130000000  0.4700110000000 1.0
C      1  0.4686840000000  0.5008820000000  0.4800960000000 1.0
C      1  0.5253930000000  0.5204870000000  0.4567400000000 1.0
C      1  0.4395460000000  0.4834680000000  0.5286990000000 1.0
C      1  0.4612320000000  0.4902330000000  0.4223060000000 1.0
C      1  0.4622800000000  0.5176930000000  0.4318550000000 1.0
C      1  0.5051590000000  0.5714720000000  0.5139660000000 1.0
C      1  0.5545290000000  0.5118320000000  0.4952620000000 1.0
C      1  0.4451280000000  0.4557760000000  0.5329830000000 1.0
C      1  0.4657650000000  0.5426600000000  0.5224940000000 1.0
C      1  0.4459350000000  0.5435440000000  0.5031070000000 1.0
C      1  0.5625330000000  0.5314630000000  0.5272610000000 1.0
C      1  0.4995460000000  0.4682650000000  0.4982150000000 1.0
C      1  0.4461290000000  0.4713130000000  0.4380610000000 1.0
C      1  0.5085840000000  0.5542980000000  0.4894350000000 1.0
C      1  0.5288640000000  0.5688770000000  0.5309800000000 1.0
C      1  0.4766500000000  0.4796180000000  0.5528590000000 1.0
C      1  0.4275460000000  0.4936360000000  0.5036590000000 1.0
C      1  0.4551250000000  0.4528880000000  0.4830490000000 1.0
C      1  0.4701600000000  0.4423630000000  0.5295000000000 1.0
C      1  0.5629330000000  0.4587270000000  0.5346650000000 1.0
C      1  0.5465920000000  0.5535560000000  0.4848270000000 1.0
C      1  0.5576980000000  0.4811390000000  0.4608700000000 1.0
C      1  0.4732610000000  0.5229670000000  0.4601310000000 1.0
C      1  0.4668390000000  0.4945540000000  0.5300170000000 1.0
C      1  0.5197430000000  0.4487320000000  0.5391120000000 1.0
END
