TITL C-9266-5713-54 4.76964546380354e-05 125000 -367.612834148813 0 0 60 (C1) n - 1
REM
REM in /home/bkarasulu/CARBON/AIRSS/Generating-Clusters/EDIP-Nigel-Params/Higher-Symm/Box-15A/Only-C60/SD-CG/HFTN-CG
REM
REM
REM
REM
REM
REM ./C.cell (414f73aa93bd7a1190c7fd0f31ff2f98)
REM
REM compiler GCC version 9.2.1 20190827 (Red Hat 9.2.1-1)
REM options -cpp -mtune=generic -march=x86-64 -g -O0 -fpre-include=/usr/include/finclude/math-vector-fortran.h
REM seed -1068319917 948044953 645965216 -1229155110 1967896843 -1466672224 -2136190329 452865049 1945164020 545122421 -2034961441 -1596886315 293088012 -1741494876 -1806021405 1323518221 1676323978 -959267300 755786355 -311146683 -1987345021 -1649776243 591526122 1937881264 -280652131 1205915425 -1581002348 -1615646849 1584908943 -775116301 -824651291 73226393 -1486390715
REM
CELL 1.54180   50.00000   50.00000   50.00000   90.00000   90.00000   90.00000
LATT -1
SFAC C  
C      1  0.5054720000000  0.4586620000000  0.5643460000000 1.0
C      1  0.5401060000000  0.4638220000000  0.5281200000000 1.0
C      1  0.5636650000000  0.4583700000000  0.4833250000000 1.0
C      1  0.5267710000000  0.4595050000000  0.4421180000000 1.0
C      1  0.4724520000000  0.4614940000000  0.4452820000000 1.0
C      1  0.4347310000000  0.4614650000000  0.4825100000000 1.0
C      1  0.4567440000000  0.4585540000000  0.5479340000000 1.0
C      1  0.5605990000000  0.5042750000000  0.5113680000000 1.0
C      1  0.5468480000000  0.5025020000000  0.4589270000000 1.0
C      1  0.4996050000000  0.5022400000000  0.4321770000000 1.0
C      1  0.4489580000000  0.5037900000000  0.4573050000000 1.0
C      1  0.4269620000000  0.5042130000000  0.5046220000000 1.0
C      1  0.4777660000000  0.5016330000000  0.5707080000000 1.0
C      1  0.5241230000000  0.5037550000000  0.5472250000000 1.0
C      1  0.4773610000000  0.4944460000000  0.5322720000000 1.0
C      1  0.5059580000000  0.4990010000000  0.5228120000000 1.0
C      1  0.5168850000000  0.4734860000000  0.5117890000000 1.0
C      1  0.5242950000000  0.4738140000000  0.4837840000000 1.0
C      1  0.5014720000000  0.4860960000000  0.4677470000000 1.0
C      1  0.4720770000000  0.4854130000000  0.4821620000000 1.0
C      1  0.4593330000000  0.4848710000000  0.5102370000000 1.0
C      1  0.4811670000000  0.4431310000000  0.5546110000000 1.0
C      1  0.5291450000000  0.4465490000000  0.5506350000000 1.0
C      1  0.5579480000000  0.4456700000000  0.5103710000000 1.0
C      1  0.5427600000000  0.4452990000000  0.4645190000000 1.0
C      1  0.4988000000000  0.4481010000000  0.4447290000000 1.0
C      1  0.4550280000000  0.4482430000000  0.4658430000000 1.0
C      1  0.4516000000000  0.4557280000000  0.5166200000000 1.0
C      1  0.5567860000000  0.5332580000000  0.5103420000000 1.0
C      1  0.5453790000000  0.5312760000000  0.4599710000000 1.0
C      1  0.5004200000000  0.5319170000000  0.4356290000000 1.0
C      1  0.4553890000000  0.5325260000000  0.4623040000000 1.0
C      1  0.4440750000000  0.5266380000000  0.5112350000000 1.0
C      1  0.4751910000000  0.5295460000000  0.5582640000000 1.0
C      1  0.5258780000000  0.5330390000000  0.5517090000000 1.0
C      1  0.4564630000000  0.5309430000000  0.5366780000000 1.0
C      1  0.4999190000000  0.5428610000000  0.5558840000000 1.0
C      1  0.5429820000000  0.5442780000000  0.5323970000000 1.0
C      1  0.5534790000000  0.5428520000000  0.4841440000000 1.0
C      1  0.5249460000000  0.5419720000000  0.4444410000000 1.0
C      1  0.4777180000000  0.5416510000000  0.4484010000000 1.0
C      1  0.4517370000000  0.5410150000000  0.4886440000000 1.0
C      1  0.5236510000000  0.4299720000000  0.4810840000000 1.0
C      1  0.4983160000000  0.4268460000000  0.4658770000000 1.0
C      1  0.4722460000000  0.4286930000000  0.4806290000000 1.0
C      1  0.4740180000000  0.4376100000000  0.5084780000000 1.0
C      1  0.4888800000000  0.4258020000000  0.5313720000000 1.0
C      1  0.5195510000000  0.4230460000000  0.5333910000000 1.0
C      1  0.5363250000000  0.4236820000000  0.5073590000000 1.0
C      1  0.5507430000000  0.4907630000000  0.5365490000000 1.0
C      1  0.5595860000000  0.4891820000000  0.4838800000000 1.0
C      1  0.5307530000000  0.4888810000000  0.4366990000000 1.0
C      1  0.4697170000000  0.4897370000000  0.4376710000000 1.0
C      1  0.4289110000000  0.4900450000000  0.4784410000000 1.0
C      1  0.4553040000000  0.4838970000000  0.5622900000000 1.0
C      1  0.5056830000000  0.4888810000000  0.5673330000000 1.0
C      1  0.5054340000000  0.5217200000000  0.5032430000000 1.0
C      1  0.4999640000000  0.5742290000000  0.5074450000000 1.0
C      1  0.5025490000000  0.5486540000000  0.5103320000000 1.0
C      1  0.4919210000000  0.5140280000000  0.4794690000000 1.0
END
