TITL C-9257-5531-18 -0.025862816066085 125000 -353.451222232401 0 0 60 (C1) n - 1
REM
REM in /home/bkarasulu/CARBON/AIRSS/Generating-Clusters/EDIP-Nigel-Params/Higher-Symm/Box-15A/Only-C60/SD-CG/HFTN-CG
REM
REM
REM
REM
REM
REM ./C.cell (414f73aa93bd7a1190c7fd0f31ff2f98)
REM
REM compiler GCC version 9.2.1 20190827 (Red Hat 9.2.1-1)
REM options -cpp -mtune=generic -march=x86-64 -g -O0 -fpre-include=/usr/include/finclude/math-vector-fortran.h
REM seed -901982694 -601598041 -1245035301 1412770820 -1491243274 -772096870 1317377556 1761399344 -1256747577 -931994611 -1360713884 -1125289971 -857952378 -1786938231 1380777907 943955179 678435589 -1719117174 230945823 283209830 -5772983 -2022870347 127800709 -1005505869 -362584210 1865315802 -502085954 1401485998 2109372370 -1797309783 506113714 1302631247 1087944213
REM
CELL 1.54180   50.00000   50.00000   50.00000   90.00000   90.00000   90.00000
LATT -1
SFAC C  
C      1  0.5322170000000  0.4644330000000  0.4349200000000 1.0
C      1  0.5672920000000  0.4526060000000  0.4594360000000 1.0
C      1  0.5706320000000  0.4654690000000  0.5017350000000 1.0
C      1  0.5606060000000  0.4588860000000  0.5453580000000 1.0
C      1  0.5234400000000  0.4600890000000  0.5693580000000 1.0
C      1  0.4796200000000  0.4629450000000  0.5636800000000 1.0
C      1  0.4493920000000  0.4664390000000  0.5278550000000 1.0
C      1  0.4249780000000  0.4268440000000  0.5202010000000 1.0
C      1  0.4213230000000  0.4322830000000  0.4738420000000 1.0
C      1  0.4467440000000  0.4537040000000  0.4445030000000 1.0
C      1  0.4872400000000  0.4631300000000  0.4294920000000 1.0
C      1  0.4232860000000  0.4540820000000  0.5298500000000 1.0
C      1  0.4079260000000  0.4364190000000  0.4988700000000 1.0
C      1  0.4197240000000  0.4502490000000  0.4517530000000 1.0
C      1  0.4595830000000  0.4704870000000  0.4257000000000 1.0
C      1  0.5102640000000  0.4821960000000  0.4258040000000 1.0
C      1  0.5588170000000  0.4736650000000  0.4413830000000 1.0
C      1  0.5779600000000  0.4746600000000  0.4752690000000 1.0
C      1  0.5688880000000  0.4813080000000  0.5268070000000 1.0
C      1  0.5502100000000  0.4681460000000  0.5706360000000 1.0
C      1  0.5008430000000  0.4722470000000  0.5811080000000 1.0
C      1  0.4617490000000  0.4825630000000  0.5498810000000 1.0
C      1  0.5208140000000  0.4495070000000  0.4567780000000 1.0
C      1  0.5430510000000  0.4394560000000  0.4737250000000 1.0
C      1  0.5460740000000  0.4505920000000  0.5011370000000 1.0
C      1  0.5406530000000  0.4420670000000  0.5287710000000 1.0
C      1  0.5169780000000  0.4499800000000  0.5436500000000 1.0
C      1  0.4885040000000  0.4427130000000  0.5429670000000 1.0
C      1  0.4696800000000  0.4457700000000  0.5202350000000 1.0
C      1  0.4534820000000  0.4226550000000  0.5091960000000 1.0
C      1  0.4493440000000  0.4248130000000  0.4792280000000 1.0
C      1  0.4656070000000  0.4424710000000  0.4625940000000 1.0
C      1  0.4925670000000  0.4438480000000  0.4515160000000 1.0
C      1  0.5454830000000  0.5012090000000  0.5263490000000 1.0
C      1  0.5229940000000  0.5129030000000  0.5553660000000 1.0
C      1  0.4952980000000  0.5217540000000  0.5576760000000 1.0
C      1  0.4730850000000  0.5090140000000  0.5422760000000 1.0
C      1  0.4533970000000  0.5273630000000  0.5290220000000 1.0
C      1  0.4488460000000  0.5222390000000  0.5003000000000 1.0
C      1  0.4765480000000  0.5191070000000  0.4853480000000 1.0
C      1  0.4809270000000  0.5143700000000  0.4549060000000 1.0
C      1  0.5090010000000  0.5076160000000  0.4445200000000 1.0
C      1  0.5312610000000  0.5075000000000  0.4657430000000 1.0
C      1  0.5266350000000  0.5133870000000  0.4949680000000 1.0
C      1  0.5351910000000  0.5381380000000  0.5470370000000 1.0
C      1  0.4993550000000  0.5501610000000  0.5537750000000 1.0
C      1  0.4778070000000  0.5656130000000  0.5459830000000 1.0
C      1  0.4595390000000  0.5558000000000  0.5277270000000 1.0
C      1  0.4502420000000  0.5505370000000  0.4908550000000 1.0
C      1  0.4698110000000  0.5568430000000  0.4707410000000 1.0
C      1  0.4837410000000  0.5433600000000  0.4496120000000 1.0
C      1  0.5122550000000  0.5480910000000  0.4466570000000 1.0
C      1  0.5355470000000  0.5362960000000  0.4591990000000 1.0
C      1  0.5459450000000  0.5367350000000  0.4966930000000 1.0
C      1  0.5534830000000  0.5311050000000  0.5248000000000 1.0
C      1  0.5142550000000  0.5783260000000  0.5017460000000 1.0
C      1  0.5220680000000  0.6034820000000  0.4996090000000 1.0
C      1  0.5309000000000  0.6272770000000  0.4965000000000 1.0
C      1  0.5007860000000  0.5265360000000  0.5009520000000 1.0
C      1  0.5035790000000  0.5540700000000  0.5061780000000 1.0
END
