TITL C-9269-7444-238 8.74896981714783e-05 125000 -357.960298302869 0 0 60 (C2) n - 1
REM
REM in /home/bkarasulu/CARBON/AIRSS/Generating-Clusters/EDIP-Nigel-Params/Higher-Symm/Box-15A/Only-C60/SD-CG/HFTN-CG
REM
REM
REM
REM
REM
REM ./C.cell (414f73aa93bd7a1190c7fd0f31ff2f98)
REM
REM compiler GCC version 9.2.1 20190827 (Red Hat 9.2.1-1)
REM options -cpp -mtune=generic -march=x86-64 -g -O0 -fpre-include=/usr/include/finclude/math-vector-fortran.h
REM seed -116855924 1763504970 1592359810 485176033 327503267 1190226191 1161715393 -546773878 -728650124 -248576387 1917123983 1688238506 196399970 -1788787970 44730459 1629869552 818183051 1063202828 -1956005403 -943549114 -315346179 1408509679 -1270841672 -1843935807 739268753 626702348 -724569631 1130023748 430632973 -1091640737 496033013 1283591995 -1884239907
REM
CELL 1.54180   50.00000   50.00000   50.00000   90.00000   90.00000   90.00000
LATT -1
SFAC C  
C      1  0.4956400000000  0.5427620000000  0.4852360000000 1.0
C      1  0.5043710000000  0.5427670000000  0.5147470000000 1.0
C      1  0.5147830000000  0.4284930000000  0.4880630000000 1.0
C      1  0.4851980000000  0.4285010000000  0.5119650000000 1.0
C      1  0.4584080000000  0.5395590000000  0.5231710000000 1.0
C      1  0.5416020000000  0.5395390000000  0.4768130000000 1.0
C      1  0.4682030000000  0.5628720000000  0.4516210000000 1.0
C      1  0.5318130000000  0.5628820000000  0.5483550000000 1.0
C      1  0.5510520000000  0.4342960000000  0.5201280000000 1.0
C      1  0.4489310000000  0.4343010000000  0.4798980000000 1.0
C      1  0.4490860000000  0.5513110000000  0.4973700000000 1.0
C      1  0.5509270000000  0.5512980000000  0.5026100000000 1.0
C      1  0.4901190000000  0.5483430000000  0.4409320000000 1.0
C      1  0.5098930000000  0.5483640000000  0.5590490000000 1.0
C      1  0.5289650000000  0.5585370000000  0.5204880000000 1.0
C      1  0.4710500000000  0.5585370000000  0.4794890000000 1.0
C      1  0.4640230000000  0.4977960000000  0.5549290000000 1.0
C      1  0.5359770000000  0.4977660000000  0.4450710000000 1.0
C      1  0.4588810000000  0.4416600000000  0.4558840000000 1.0
C      1  0.5411040000000  0.4416670000000  0.5441390000000 1.0
C      1  0.4251180000000  0.5438250000000  0.4848950000000 1.0
C      1  0.5748940000000  0.5438110000000  0.5150870000000 1.0
C      1  0.5827670000000  0.5011170000000  0.5017810000000 1.0
C      1  0.4172340000000  0.5011370000000  0.4982180000000 1.0
C      1  0.5071550000000  0.5132710000000  0.5218140000000 1.0
C      1  0.4928480000000  0.5132640000000  0.4781800000000 1.0
C      1  0.5043170000000  0.4986120000000  0.4380990000000 1.0
C      1  0.4956830000000  0.4986370000000  0.5619020000000 1.0
C      1  0.4776240000000  0.4704130000000  0.5247870000000 1.0
C      1  0.5223680000000  0.4703970000000  0.4752240000000 1.0
C      1  0.4354700000000  0.5099670000000  0.4542830000000 1.0
C      1  0.5645320000000  0.5099680000000  0.5457130000000 1.0
C      1  0.4720720000000  0.4993250000000  0.4909200000000 1.0
C      1  0.5279280000000  0.4993220000000  0.5090800000000 1.0
C      1  0.4998460000000  0.4509230000000  0.5233420000000 1.0
C      1  0.5001410000000  0.4509140000000  0.4766770000000 1.0
C      1  0.5150710000000  0.4508350000000  0.5476500000000 1.0
C      1  0.4849160000000  0.4508200000000  0.4523690000000 1.0
C      1  0.5436930000000  0.4669830000000  0.4507880000000 1.0
C      1  0.4562980000000  0.4670140000000  0.5492250000000 1.0
C      1  0.5543300000000  0.5174780000000  0.4617430000000 1.0
C      1  0.4456750000000  0.5175070000000  0.5382500000000 1.0
C      1  0.5086910000000  0.4736590000000  0.5624550000000 1.0
C      1  0.4913020000000  0.4736370000000  0.4375550000000 1.0
C      1  0.5429630000000  0.4355130000000  0.4933070000000 1.0
C      1  0.4570210000000  0.4355270000000  0.5067180000000 1.0
C      1  0.5172460000000  0.5515910000000  0.4669210000000 1.0
C      1  0.4827670000000  0.5516080000000  0.5330580000000 1.0
C      1  0.5752520000000  0.5053460000000  0.4761390000000 1.0
C      1  0.4247490000000  0.5053750000000  0.5238580000000 1.0
C      1  0.5204300000000  0.5008790000000  0.4814780000000 1.0
C      1  0.4795700000000  0.5008910000000  0.5185220000000 1.0
C      1  0.4842460000000  0.5203740000000  0.4354330000000 1.0
C      1  0.5157590000000  0.5203950000000  0.5645590000000 1.0
C      1  0.5799770000000  0.5179090000000  0.5238670000000 1.0
C      1  0.4200270000000  0.5179200000000  0.4761260000000 1.0
C      1  0.4571980000000  0.5130150000000  0.4385080000000 1.0
C      1  0.5428050000000  0.5130280000000  0.5614870000000 1.0
C      1  0.5566380000000  0.4532600000000  0.4741600000000 1.0
C      1  0.4433500000000  0.4532850000000  0.5258580000000 1.0
END
