TITL C-9258-7861-15 -1.09553080651087e-06 125000 -367.951620101351 0 0 60 (C1) n - 1
REM
REM in /home/bkarasulu/CARBON/AIRSS/Generating-Clusters/EDIP-Nigel-Params/Higher-Symm/Box-15A/Only-C60/SD-CG/HFTN-CG
REM
REM
REM
REM
REM
REM ./C.cell (414f73aa93bd7a1190c7fd0f31ff2f98)
REM
REM compiler GCC version 9.2.1 20190827 (Red Hat 9.2.1-1)
REM options -cpp -mtune=generic -march=x86-64 -g -O0 -fpre-include=/usr/include/finclude/math-vector-fortran.h
REM seed -784172360 1303365242 -1814226611 -398412297 263596280 -1030929671 2040297641 -1411647879 1476126965 -640507748 -669167344 271821726 -1285624723 -1957507310 -1056576089 -1810957096 -274642073 -675741239 888932358 832248993 -2046786130 1548273369 1803608071 -1773493583 1744870187 -1008351477 -999646799 1993645814 -842396776 490717949 236548954 -1889416445 -169331659
REM
CELL 1.54180   50.00000   50.00000   50.00000   90.00000   90.00000   90.00000
LATT -1
SFAC C  
C      1  0.5555810000000  0.4713070000000  0.5314850000000 1.0
C      1  0.5149230000000  0.4304430000000  0.5037520000000 1.0
C      1  0.5800600000000  0.4888120000000  0.4713290000000 1.0
C      1  0.5536150000000  0.4869960000000  0.5059870000000 1.0
C      1  0.4324920000000  0.5109300000000  0.4993740000000 1.0
C      1  0.4339320000000  0.5352110000000  0.4846320000000 1.0
C      1  0.4746990000000  0.4844650000000  0.4954010000000 1.0
C      1  0.5662340000000  0.5339450000000  0.4768990000000 1.0
C      1  0.4417890000000  0.5535670000000  0.4655270000000 1.0
C      1  0.4455600000000  0.4872550000000  0.4565410000000 1.0
C      1  0.4483890000000  0.5089540000000  0.5266980000000 1.0
C      1  0.5017690000000  0.5046180000000  0.5266520000000 1.0
C      1  0.4453940000000  0.4852460000000  0.4860830000000 1.0
C      1  0.4472150000000  0.4352650000000  0.4917030000000 1.0
C      1  0.5086850000000  0.4542480000000  0.5221850000000 1.0
C      1  0.4761210000000  0.5085140000000  0.5114640000000 1.0
C      1  0.4330550000000  0.4599570000000  0.4970590000000 1.0
C      1  0.4288840000000  0.4634900000000  0.5246050000000 1.0
C      1  0.4773780000000  0.5266770000000  0.5555440000000 1.0
C      1  0.5674390000000  0.4907080000000  0.5495360000000 1.0
C      1  0.5634500000000  0.4671490000000  0.4747890000000 1.0
C      1  0.4905710000000  0.5459260000000  0.5373890000000 1.0
C      1  0.4933250000000  0.4722570000000  0.4496460000000 1.0
C      1  0.4497760000000  0.5282350000000  0.5489100000000 1.0
C      1  0.4707160000000  0.5558120000000  0.4987260000000 1.0
C      1  0.4847750000000  0.5713050000000  0.4772740000000 1.0
C      1  0.5762750000000  0.5072630000000  0.5154390000000 1.0
C      1  0.4920740000000  0.4493310000000  0.4679830000000 1.0
C      1  0.5045110000000  0.4759550000000  0.5006640000000 1.0
C      1  0.5192650000000  0.4427650000000  0.4762580000000 1.0
C      1  0.5839620000000  0.5120360000000  0.4861920000000 1.0
C      1  0.5124080000000  0.5294760000000  0.4849110000000 1.0
C      1  0.5204440000000  0.4852810000000  0.5615630000000 1.0
C      1  0.5386060000000  0.5261660000000  0.5374770000000 1.0
C      1  0.4669010000000  0.5185860000000  0.4626740000000 1.0
C      1  0.4729370000000  0.4290390000000  0.4786070000000 1.0
C      1  0.5253330000000  0.5020330000000  0.5025150000000 1.0
C      1  0.4712490000000  0.4730150000000  0.5491170000000 1.0
C      1  0.4690040000000  0.4274340000000  0.5227020000000 1.0
C      1  0.5288700000000  0.5589960000000  0.5042000000000 1.0
C      1  0.5576010000000  0.5496270000000  0.5009660000000 1.0
C      1  0.4775440000000  0.5362870000000  0.4409400000000 1.0
C      1  0.4751150000000  0.5653700000000  0.5249710000000 1.0
C      1  0.4830070000000  0.4489210000000  0.5361690000000 1.0
C      1  0.4697380000000  0.4862170000000  0.4417520000000 1.0
C      1  0.5047250000000  0.5307130000000  0.4365590000000 1.0
C      1  0.5293190000000  0.4634590000000  0.5425960000000 1.0
C      1  0.5633620000000  0.5324920000000  0.5241210000000 1.0
C      1  0.5350330000000  0.4675080000000  0.4710690000000 1.0
C      1  0.5183270000000  0.5452310000000  0.5294130000000 1.0
C      1  0.5464860000000  0.5261510000000  0.4582450000000 1.0
C      1  0.4812310000000  0.5282960000000  0.4896940000000 1.0
C      1  0.4447380000000  0.4817250000000  0.5391190000000 1.0
C      1  0.4873840000000  0.4164890000000  0.5019530000000 1.0
C      1  0.5429760000000  0.5050340000000  0.5578690000000 1.0
C      1  0.4671250000000  0.5618610000000  0.4540570000000 1.0
C      1  0.5131220000000  0.5610730000000  0.4768240000000 1.0
C      1  0.4913330000000  0.4960620000000  0.5549030000000 1.0
C      1  0.5194840000000  0.4852610000000  0.4529380000000 1.0
C      1  0.5246820000000  0.5135530000000  0.4463520000000 1.0
END
