TITL C-9267-1554-173 -1.03776627530218e-08 125000 -359.395025350686 0 0 60 (C1) n - 1
REM
REM in /home/bkarasulu/CARBON/AIRSS/Generating-Clusters/EDIP-Nigel-Params/Higher-Symm/Box-15A/Only-C60/SD-CG/HFTN-CG
REM
REM
REM
REM
REM
REM ./C.cell (414f73aa93bd7a1190c7fd0f31ff2f98)
REM
REM compiler GCC version 9.2.1 20190827 (Red Hat 9.2.1-1)
REM options -cpp -mtune=generic -march=x86-64 -g -O0 -fpre-include=/usr/include/finclude/math-vector-fortran.h
REM seed 1224423902 774806148 1166612398 -1289374414 -853680878 -1338691195 322430384 -759279924 -579688749 -112138389 -2003639621 218131417 -1888423148 -974748698 -1079274424 1888051234 1725145991 -53200337 969992537 -378121349 -1154330502 1601867643 1792301659 -1992115177 -510155725 62893801 1780027592 1116765404 -1422367746 1910860904 -937316682 -982602747 1504145025
REM
CELL 1.54180   50.00000   50.00000   50.00000   90.00000   90.00000   90.00000
LATT -1
SFAC C  
C      1  0.5185130000000  0.4490630000000  0.4612600000000 1.0
C      1  0.4797740000000  0.5510970000000  0.5089880000000 1.0
C      1  0.4912290000000  0.4354410000000  0.4683930000000 1.0
C      1  0.4757610000000  0.4429560000000  0.5371070000000 1.0
C      1  0.4344180000000  0.4875630000000  0.5297060000000 1.0
C      1  0.5318960000000  0.5292130000000  0.4951200000000 1.0
C      1  0.5160520000000  0.4649820000000  0.5598340000000 1.0
C      1  0.4681550000000  0.4540080000000  0.4675780000000 1.0
C      1  0.4512070000000  0.4494100000000  0.4929890000000 1.0
C      1  0.4331970000000  0.5456020000000  0.4963970000000 1.0
C      1  0.4660390000000  0.5281280000000  0.4457910000000 1.0
C      1  0.4682010000000  0.4322080000000  0.5105260000000 1.0
C      1  0.5036490000000  0.4466440000000  0.5412690000000 1.0
C      1  0.4446560000000  0.5370470000000  0.5396710000000 1.0
C      1  0.5726480000000  0.4798200000000  0.5155770000000 1.0
C      1  0.5507770000000  0.5517390000000  0.5303950000000 1.0
C      1  0.5504030000000  0.5256030000000  0.4720490000000 1.0
C      1  0.5588900000000  0.4873560000000  0.4517300000000 1.0
C      1  0.4504510000000  0.5528040000000  0.5172150000000 1.0
C      1  0.5480700000000  0.4716380000000  0.5259130000000 1.0
C      1  0.4583770000000  0.4514120000000  0.5573170000000 1.0
C      1  0.5453300000000  0.4671480000000  0.5550250000000 1.0
C      1  0.5068180000000  0.5129500000000  0.4915790000000 1.0
C      1  0.5183380000000  0.4658120000000  0.4312810000000 1.0
C      1  0.5271880000000  0.5589020000000  0.4996210000000 1.0
C      1  0.4637390000000  0.5005210000000  0.5689200000000 1.0
C      1  0.5463790000000  0.4643560000000  0.4399970000000 1.0
C      1  0.4917610000000  0.5372750000000  0.5560820000000 1.0
C      1  0.5446310000000  0.4551620000000  0.5038250000000 1.0
C      1  0.5079600000000  0.5406940000000  0.4375970000000 1.0
C      1  0.4759580000000  0.4829390000000  0.4726470000000 1.0
C      1  0.4851930000000  0.5499900000000  0.4516210000000 1.0
C      1  0.5731760000000  0.5077110000000  0.5089120000000 1.0
C      1  0.4890900000000  0.4224600000000  0.4937130000000 1.0
C      1  0.5365190000000  0.5092590000000  0.5464870000000 1.0
C      1  0.5485830000000  0.5230880000000  0.5212140000000 1.0
C      1  0.5097820000000  0.4936510000000  0.5493050000000 1.0
C      1  0.5029150000000  0.4832530000000  0.4943460000000 1.0
C      1  0.5253730000000  0.4652020000000  0.4853090000000 1.0
C      1  0.4621550000000  0.5203140000000  0.4175390000000 1.0
C      1  0.5393530000000  0.5082650000000  0.4522870000000 1.0
C      1  0.4939650000000  0.4806330000000  0.5247850000000 1.0
C      1  0.4994810000000  0.5527380000000  0.5338510000000 1.0
C      1  0.4799170000000  0.5221670000000  0.5011420000000 1.0
C      1  0.4397470000000  0.4763300000000  0.5030870000000 1.0
C      1  0.4708270000000  0.5009280000000  0.5217250000000 1.0
C      1  0.4763080000000  0.4947070000000  0.4190350000000 1.0
C      1  0.5128440000000  0.5756250000000  0.4814620000000 1.0
C      1  0.4612030000000  0.4730350000000  0.5731320000000 1.0
C      1  0.4452400000000  0.5236710000000  0.4841480000000 1.0
C      1  0.5538710000000  0.4934810000000  0.5640110000000 1.0
C      1  0.4911450000000  0.5109630000000  0.5660380000000 1.0
C      1  0.4882120000000  0.5627470000000  0.4795560000000 1.0
C      1  0.4844990000000  0.5023070000000  0.4500150000000 1.0
C      1  0.4503840000000  0.4949320000000  0.4835270000000 1.0
C      1  0.5735830000000  0.5096490000000  0.4799020000000 1.0
C      1  0.5076350000000  0.4924890000000  0.4201640000000 1.0
C      1  0.4507240000000  0.5088400000000  0.5433720000000 1.0
C      1  0.5218060000000  0.5169470000000  0.4316950000000 1.0
C      1  0.5260080000000  0.5651240000000  0.5372230000000 1.0
END
