TITL C-9264-7143-13 -3.14459591809692e-07 125000 -367.213540481132 0 0 60 (D2) n - 1
REM
REM in /home/bkarasulu/CARBON/AIRSS/Generating-Clusters/EDIP-Nigel-Params/Higher-Symm/Box-15A/Only-C60/SD-CG/HFTN-CG
REM
REM
REM
REM
REM
REM ./C.cell (414f73aa93bd7a1190c7fd0f31ff2f98)
REM
REM compiler GCC version 9.2.1 20190827 (Red Hat 9.2.1-1)
REM options -cpp -mtune=generic -march=x86-64 -g -O0 -fpre-include=/usr/include/finclude/math-vector-fortran.h
REM seed -1967894622 470307125 -1144634689 -60933318 1736594007 -1655746411 -1534189777 965183779 -953660199 -336133060 -514845500 -357124560 -440618087 1635025532 498959285 -715774871 990877256 562723276 -1776002652 -122803508 -1610405967 1690444536 1922439332 -106937941 723742141 -292733834 1742271372 -665052708 -149827795 -1845950510 -1404977352 1294673345 673676903
REM
CELL 1.54180   50.00000   50.00000   50.00000   90.00000   90.00000   90.00000
LATT -1
SFAC C  
C      1  0.4807200000000  0.4618700000000  0.5415010000000 1.0
C      1  0.5192800000000  0.5381300000000  0.5415010000000 1.0
C      1  0.4807200000000  0.5381300000000  0.4584990000000 1.0
C      1  0.5192800000000  0.4618700000000  0.4584990000000 1.0
C      1  0.5294130000000  0.4517360000000  0.5525570000000 1.0
C      1  0.4705880000000  0.5482640000000  0.5525570000000 1.0
C      1  0.5294120000000  0.5482640000000  0.4474430000000 1.0
C      1  0.4705870000000  0.4517360000000  0.4474430000000 1.0
C      1  0.4958460000000  0.5386510000000  0.5619140000000 1.0
C      1  0.5041550000000  0.4613490000000  0.5619140000000 1.0
C      1  0.4958450000000  0.4613490000000  0.4380860000000 1.0
C      1  0.5041540000000  0.5386510000000  0.4380860000000 1.0
C      1  0.5063960000000  0.5774460000000  0.5119500000000 1.0
C      1  0.4936040000000  0.4225540000000  0.5119500000000 1.0
C      1  0.5063960000000  0.4225540000000  0.4880500000000 1.0
C      1  0.4936040000000  0.5774460000000  0.4880500000000 1.0
C      1  0.5183900000000  0.4722130000000  0.5067360000000 1.0
C      1  0.4816100000000  0.5277870000000  0.5067370000000 1.0
C      1  0.5183900000000  0.5277870000000  0.4932630000000 1.0
C      1  0.4816100000000  0.4722130000000  0.4932640000000 1.0
C      1  0.4385150000000  0.5135170000000  0.4732750000000 1.0
C      1  0.5614850000000  0.4864830000000  0.4732740000000 1.0
C      1  0.4385150000000  0.4864830000000  0.5267260000000 1.0
C      1  0.5614850000000  0.5135170000000  0.5267250000000 1.0
C      1  0.4549830000000  0.5227630000000  0.4493090000000 1.0
C      1  0.5450170000000  0.4772370000000  0.4493080000000 1.0
C      1  0.4549830000000  0.4772370000000  0.5506920000000 1.0
C      1  0.5450170000000  0.5227630000000  0.5506910000000 1.0
C      1  0.5611680000000  0.4696520000000  0.4982040000000 1.0
C      1  0.4388320000000  0.5303480000000  0.4982040000000 1.0
C      1  0.5611680000000  0.5303480000000  0.5017960000000 1.0
C      1  0.4388320000000  0.4696520000000  0.5017960000000 1.0
C      1  0.5103240000000  0.5105710000000  0.4298280000000 1.0
C      1  0.4896760000000  0.4894290000000  0.4298280000000 1.0
C      1  0.5103240000000  0.4894290000000  0.5701720000000 1.0
C      1  0.4896760000000  0.5105710000000  0.5701720000000 1.0
C      1  0.5389570000000  0.4964040000000  0.5654030000000 1.0
C      1  0.4610430000000  0.5035960000000  0.5654030000000 1.0
C      1  0.5389570000000  0.5035960000000  0.4345970000000 1.0
C      1  0.4610430000000  0.4964040000000  0.4345970000000 1.0
C      1  0.4920680000000  0.5206140000000  0.4791500000000 1.0
C      1  0.5079320000000  0.4793860000000  0.4791500000000 1.0
C      1  0.4920680000000  0.4793860000000  0.5208500000000 1.0
C      1  0.5079320000000  0.5206140000000  0.5208500000000 1.0
C      1  0.4731290000000  0.5628600000000  0.4755190000000 1.0
C      1  0.5268710000000  0.4371400000000  0.4755190000000 1.0
C      1  0.4731290000000  0.4371400000000  0.5244810000000 1.0
C      1  0.5268720000000  0.5628600000000  0.5244810000000 1.0
C      1  0.5449230000000  0.4455280000000  0.4965680000000 1.0
C      1  0.4550770000000  0.5544720000000  0.4965690000000 1.0
C      1  0.5449230000000  0.5544720000000  0.5034320000000 1.0
C      1  0.4550770000000  0.4455280000000  0.5034320000000 1.0
C      1  0.5485080000000  0.4729040000000  0.5495480000000 1.0
C      1  0.4514930000000  0.5270960000000  0.5495480000000 1.0
C      1  0.5485070000000  0.5270960000000  0.4504520000000 1.0
C      1  0.4514920000000  0.4729040000000  0.4504520000000 1.0
C      1  0.5568140000000  0.4846540000000  0.5236310000000 1.0
C      1  0.4431860000000  0.5153460000000  0.5236310000000 1.0
C      1  0.5568140000000  0.5153460000000  0.4763690000000 1.0
C      1  0.4431860000000  0.4846540000000  0.4763690000000 1.0
END
