TITL C-9258-7861-43 0.00156509049256305 125000 -364.119620115081 0 0 60 (C1) n - 1
REM
REM in /home/bkarasulu/CARBON/AIRSS/Generating-Clusters/EDIP-Nigel-Params/Higher-Symm/Box-15A/Only-C60/SD-CG/HFTN-CG
REM
REM
REM
REM
REM
REM ./C.cell (414f73aa93bd7a1190c7fd0f31ff2f98)
REM
REM compiler GCC version 9.2.1 20190827 (Red Hat 9.2.1-1)
REM options -cpp -mtune=generic -march=x86-64 -g -O0 -fpre-include=/usr/include/finclude/math-vector-fortran.h
REM seed 1718375863 407795089 -258267690 843410439 -2138233758 235604952 -1103386063 -634179506 2060995454 1117528715 -936495364 -1575528678 -961447360 -790157970 972563516 -1975336394 -2111660119 -1492571382 -997156316 1672004044 -979425561 1160045610 1619251960 -1249714444 -1929541137 -664219418 400689199 -385997426 360199516 1715185436 578628335 1505508252 -1694768937
REM
CELL 1.54180   50.00000   50.00000   50.00000   90.00000   90.00000   90.00000
LATT -1
SFAC C  
C      1  0.4821370000000  0.5473800000000  0.5416130000000 1.0
C      1  0.4800970000000  0.5606310000000  0.4885840000000 1.0
C      1  0.4807360000000  0.5296240000000  0.4449160000000 1.0
C      1  0.4810560000000  0.4757480000000  0.4429160000000 1.0
C      1  0.4807600000000  0.4407570000000  0.4822630000000 1.0
C      1  0.4782190000000  0.4499670000000  0.5364180000000 1.0
C      1  0.4816690000000  0.4980300000000  0.5640780000000 1.0
C      1  0.4871820000000  0.4892140000000  0.4696780000000 1.0
C      1  0.4998360000000  0.4741140000000  0.4916830000000 1.0
C      1  0.4815610000000  0.4752160000000  0.5170060000000 1.0
C      1  0.4944870000000  0.4961670000000  0.5354550000000 1.0
C      1  0.4966670000000  0.5252650000000  0.5234310000000 1.0
C      1  0.4863490000000  0.5317510000000  0.4958930000000 1.0
C      1  0.4900850000000  0.5175030000000  0.4710700000000 1.0
C      1  0.5323350000000  0.4505040000000  0.4777910000000 1.0
C      1  0.5327870000000  0.4507140000000  0.5266810000000 1.0
C      1  0.5321380000000  0.4910460000000  0.5549730000000 1.0
C      1  0.5330530000000  0.5388640000000  0.5427210000000 1.0
C      1  0.5324560000000  0.5575650000000  0.4968990000000 1.0
C      1  0.5328180000000  0.5346110000000  0.4528440000000 1.0
C      1  0.5327940000000  0.4858810000000  0.4435310000000 1.0
C      1  0.4509490000000  0.4727430000000  0.4438920000000 1.0
C      1  0.4504230000000  0.4430880000000  0.4868890000000 1.0
C      1  0.4476550000000  0.4527830000000  0.5391970000000 1.0
C      1  0.4518280000000  0.5003360000000  0.5613380000000 1.0
C      1  0.4521910000000  0.5456590000000  0.5361310000000 1.0
C      1  0.4498170000000  0.5590710000000  0.4853590000000 1.0
C      1  0.4504850000000  0.5254430000000  0.4449250000000 1.0
C      1  0.4975610000000  0.4284000000000  0.5027390000000 1.0
C      1  0.4971190000000  0.4567770000000  0.5590830000000 1.0
C      1  0.4987310000000  0.5209880000000  0.5732820000000 1.0
C      1  0.4983250000000  0.5694950000000  0.5297200000000 1.0
C      1  0.4974980000000  0.5659340000000  0.4645460000000 1.0
C      1  0.4980830000000  0.5143940000000  0.4256100000000 1.0
C      1  0.4983710000000  0.4513470000000  0.4432040000000 1.0
C      1  0.4403260000000  0.5428380000000  0.4644650000000 1.0
C      1  0.4408830000000  0.4990160000000  0.4437010000000 1.0
C      1  0.4411250000000  0.4543500000000  0.4626620000000 1.0
C      1  0.4404840000000  0.4598350000000  0.5103660000000 1.0
C      1  0.4410680000000  0.4750770000000  0.5553770000000 1.0
C      1  0.4421070000000  0.5229820000000  0.5485100000000 1.0
C      1  0.4411640000000  0.5534830000000  0.5115350000000 1.0
C      1  0.4862920000000  0.5813610000000  0.5079370000000 1.0
C      1  0.4864780000000  0.5578310000000  0.4404410000000 1.0
C      1  0.4875360000000  0.4899270000000  0.4183650000000 1.0
C      1  0.4873440000000  0.4294940000000  0.4566130000000 1.0
C      1  0.4852580000000  0.4235810000000  0.5269590000000 1.0
C      1  0.4877120000000  0.4738870000000  0.5791640000000 1.0
C      1  0.4875020000000  0.5461530000000  0.5702000000000 1.0
C      1  0.5245380000000  0.4393160000000  0.5025330000000 1.0
C      1  0.5230940000000  0.4650490000000  0.5486590000000 1.0
C      1  0.5248570000000  0.5179490000000  0.5599810000000 1.0
C      1  0.5253590000000  0.5588930000000  0.5243180000000 1.0
C      1  0.5251090000000  0.5562950000000  0.4695380000000 1.0
C      1  0.5256900000000  0.5124770000000  0.4364670000000 1.0
C      1  0.5254930000000  0.4597200000000  0.4518330000000 1.0
C      1  0.5436570000000  0.4975370000000  0.5031510000000 1.0
C      1  0.5158390000000  0.4992500000000  0.5019140000000 1.0
C      1  0.4549330000000  0.4844630000000  0.5085430000000 1.0
C      1  0.5692330000000  0.4991450000000  0.5018260000000 1.0
END
