TITL C-9261-551-283 -9.04041854714873e-08 125000 -370.322714116051 0 0 60 (D2d) n - 1
REM
REM in /home/bkarasulu/CARBON/AIRSS/Generating-Clusters/EDIP-Nigel-Params/Higher-Symm/Box-15A/Only-C60/SD-CG/HFTN-CG
REM
REM
REM
REM
REM
REM ./C.cell (414f73aa93bd7a1190c7fd0f31ff2f98)
REM
REM compiler GCC version 9.2.1 20190827 (Red Hat 9.2.1-1)
REM options -cpp -mtune=generic -march=x86-64 -g -O0 -fpre-include=/usr/include/finclude/math-vector-fortran.h
REM seed 555883914 -768214314 63058810 -596005949 727741907 2125323578 340744393 -106404212 1885260667 -1897311561 410501518 1027823363 1372833277 1193981570 1944949002 74729569 1015371860 800711609 1043364244 536213574 -766647020 1843699589 239305946 1300765065 -1273879721 -2066168055 -1858783390 -675630185 -1121673906 -1740531315 -1441672926 570685280 497264728
REM
CELL 1.54180   50.00000   50.00000   50.00000   90.00000   90.00000   90.00000
LATT -1
SFAC C  
C      1  0.5639810000000  0.4792570000000  0.4591200000000 1.0
C      1  0.4363240000000  0.4807560000000  0.5420720000000 1.0
C      1  0.4368130000000  0.5182410000000  0.4567590000000 1.0
C      1  0.5628810000000  0.5217470000000  0.5420480000000 1.0
C      1  0.4574760000000  0.4815600000000  0.5636140000000 1.0
C      1  0.5428290000000  0.4784530000000  0.4375790000000 1.0
C      1  0.4583690000000  0.5177750000000  0.4356110000000 1.0
C      1  0.5413260000000  0.5222130000000  0.5631960000000 1.0
C      1  0.4716920000000  0.5293230000000  0.5479070000000 1.0
C      1  0.5278790000000  0.5268450000000  0.4504180000000 1.0
C      1  0.5273820000000  0.4735920000000  0.5500920000000 1.0
C      1  0.4730470000000  0.4702400000000  0.4515830000000 1.0
C      1  0.5490660000000  0.5276500000000  0.4719950000000 1.0
C      1  0.4505050000000  0.5285180000000  0.5263300000000 1.0
C      1  0.5489730000000  0.4731250000000  0.5289080000000 1.0
C      1  0.4514560000000  0.4707060000000  0.4727670000000 1.0
C      1  0.5118190000000  0.4887890000000  0.4674200000000 1.0
C      1  0.4883390000000  0.4905710000000  0.5331960000000 1.0
C      1  0.4888050000000  0.5092480000000  0.4665940000000 1.0
C      1  0.5110380000000  0.5113920000000  0.5327910000000 1.0
C      1  0.4669640000000  0.4897590000000  0.5114270000000 1.0
C      1  0.5331930000000  0.4896010000000  0.4891880000000 1.0
C      1  0.4670220000000  0.5097190000000  0.4879650000000 1.0
C      1  0.5328200000000  0.5109210000000  0.5114200000000 1.0
C      1  0.5019490000000  0.4608030000000  0.4587870000000 1.0
C      1  0.4986300000000  0.4633030000000  0.5434770000000 1.0
C      1  0.4988510000000  0.5366770000000  0.4565000000000 1.0
C      1  0.5005690000000  0.5392170000000  0.5412360000000 1.0
C      1  0.4579040000000  0.4617550000000  0.5020000000000 1.0
C      1  0.5426760000000  0.4623510000000  0.5002630000000 1.0
C      1  0.4573480000000  0.5375740000000  0.4972200000000 1.0
C      1  0.5420720000000  0.5383200000000  0.5005170000000 1.0
C      1  0.4775680000000  0.5596300000000  0.4980710000000 1.0
C      1  0.5215190000000  0.5599740000000  0.4983620000000 1.0
C      1  0.5224310000000  0.4403730000000  0.5020430000000 1.0
C      1  0.4784820000000  0.4400220000000  0.5015240000000 1.0
C      1  0.4998080000000  0.5591490000000  0.4762510000000 1.0
C      1  0.4992790000000  0.5604550000000  0.5201820000000 1.0
C      1  0.5003060000000  0.4408520000000  0.5237500000000 1.0
C      1  0.5006070000000  0.4395440000000  0.4798170000000 1.0
C      1  0.4742090000000  0.4935090000000  0.4345950000000 1.0
C      1  0.5258570000000  0.4978120000000  0.5656640000000 1.0
C      1  0.5270240000000  0.5026060000000  0.4348230000000 1.0
C      1  0.4729090000000  0.5060720000000  0.5649180000000 1.0
C      1  0.4349650000000  0.4943580000000  0.4730980000000 1.0
C      1  0.5651020000000  0.4969640000000  0.5271610000000 1.0
C      1  0.4343990000000  0.5046090000000  0.5256990000000 1.0
C      1  0.5655350000000  0.5040690000000  0.4740420000000 1.0
C      1  0.5271730000000  0.4532670000000  0.4419540000000 1.0
C      1  0.4735160000000  0.4564000000000  0.5607400000000 1.0
C      1  0.4739530000000  0.5431850000000  0.4387770000000 1.0
C      1  0.5253570000000  0.5471480000000  0.5585300000000 1.0
C      1  0.4404380000000  0.4551430000000  0.5270520000000 1.0
C      1  0.5602520000000  0.4545240000000  0.4756420000000 1.0
C      1  0.4402440000000  0.5439140000000  0.4718490000000 1.0
C      1  0.5590660000000  0.5464190000000  0.5254570000000 1.0
C      1  0.4550860000000  0.4397020000000  0.5463520000000 1.0
C      1  0.5458490000000  0.4377390000000  0.4573030000000 1.0
C      1  0.4550000000000  0.5595870000000  0.4528200000000 1.0
C      1  0.5440650000000  0.5629720000000  0.5435250000000 1.0
END
