TITL C-9266-5713-275 -4.83569241973932e-07 125000 -366.840708265555 0 0 60 (C1) n - 1
REM
REM in /home/bkarasulu/CARBON/AIRSS/Generating-Clusters/EDIP-Nigel-Params/Higher-Symm/Box-15A/Only-C60/SD-CG/HFTN-CG
REM
REM
REM
REM
REM
REM ./C.cell (414f73aa93bd7a1190c7fd0f31ff2f98)
REM
REM compiler GCC version 9.2.1 20190827 (Red Hat 9.2.1-1)
REM options -cpp -mtune=generic -march=x86-64 -g -O0 -fpre-include=/usr/include/finclude/math-vector-fortran.h
REM seed 819112875 541590062 -1561737051 -342261899 -298559744 1817366817 1332094037 2012852775 1042175211 232482422 -10454619 -787170578 -1263793586 -611857678 1143887571 -1689473758 968439834 -1594494911 -1363981175 -1241851781 -457076158 382200080 -827090278 890712116 -1452286010 1352749882 104364070 -764520966 -311686525 -384627335 -495443407 -553209705 -623231378
REM
CELL 1.54180   50.00000   50.00000   50.00000   90.00000   90.00000   90.00000
LATT -1
SFAC C  
C      1  0.4183710000000  0.5148300000000  0.4847760000000 1.0
C      1  0.5743610000000  0.5102170000000  0.5144470000000 1.0
C      1  0.4264200000000  0.4889170000000  0.4848640000000 1.0
C      1  0.5808170000000  0.4842180000000  0.5169760000000 1.0
C      1  0.5233840000000  0.4859810000000  0.5173770000000 1.0
C      1  0.4749190000000  0.4869580000000  0.4954890000000 1.0
C      1  0.5288180000000  0.5091730000000  0.4989720000000 1.0
C      1  0.4674050000000  0.5134890000000  0.4846420000000 1.0
C      1  0.4413150000000  0.5363670000000  0.5219740000000 1.0
C      1  0.5591950000000  0.5372980000000  0.4780570000000 1.0
C      1  0.4418020000000  0.4629520000000  0.5222810000000 1.0
C      1  0.5586820000000  0.4622590000000  0.4787880000000 1.0
C      1  0.4744750000000  0.4262330000000  0.5124270000000 1.0
C      1  0.5263960000000  0.4250960000000  0.4887850000000 1.0
C      1  0.4727080000000  0.5725510000000  0.5128910000000 1.0
C      1  0.5250520000000  0.5723260000000  0.4882870000000 1.0
C      1  0.4569810000000  0.4517520000000  0.4735620000000 1.0
C      1  0.5457000000000  0.4494660000000  0.5270010000000 1.0
C      1  0.4524120000000  0.5530230000000  0.4716390000000 1.0
C      1  0.5440540000000  0.5475220000000  0.5254230000000 1.0
C      1  0.4817900000000  0.5286290000000  0.5535580000000 1.0
C      1  0.5188390000000  0.5285470000000  0.4483830000000 1.0
C      1  0.4815870000000  0.4747470000000  0.5464520000000 1.0
C      1  0.5194480000000  0.4714090000000  0.4509000000000 1.0
C      1  0.4421070000000  0.5298700000000  0.4927420000000 1.0
C      1  0.5527780000000  0.5264640000000  0.5049060000000 1.0
C      1  0.4478460000000  0.4720520000000  0.4942730000000 1.0
C      1  0.5575450000000  0.4699590000000  0.5077160000000 1.0
C      1  0.4883660000000  0.4475040000000  0.5497640000000 1.0
C      1  0.5139600000000  0.4437870000000  0.4500970000000 1.0
C      1  0.4888480000000  0.5559580000000  0.5544020000000 1.0
C      1  0.5100230000000  0.5553040000000  0.4479500000000 1.0
C      1  0.5454690000000  0.4819600000000  0.4604850000000 1.0
C      1  0.4530620000000  0.4825410000000  0.5427230000000 1.0
C      1  0.5458360000000  0.5169560000000  0.4592210000000 1.0
C      1  0.4547240000000  0.5161080000000  0.5407600000000 1.0
C      1  0.5335910000000  0.4874710000000  0.5459170000000 1.0
C      1  0.4748280000000  0.4892490000000  0.4447790000000 1.0
C      1  0.5420190000000  0.5112960000000  0.5573960000000 1.0
C      1  0.4608230000000  0.5126240000000  0.4558460000000 1.0
C      1  0.5099080000000  0.5129970000000  0.4738230000000 1.0
C      1  0.4910610000000  0.5176340000000  0.5286460000000 1.0
C      1  0.4975820000000  0.4866310000000  0.4640570000000 1.0
C      1  0.4923020000000  0.4894640000000  0.5219470000000 1.0
C      1  0.4794750000000  0.4371840000000  0.4856710000000 1.0
C      1  0.5219060000000  0.4369280000000  0.5150830000000 1.0
C      1  0.4763640000000  0.5647640000000  0.4848110000000 1.0
C      1  0.5209560000000  0.5626520000000  0.5154340000000 1.0
C      1  0.4580870000000  0.5396280000000  0.4465020000000 1.0
C      1  0.5429230000000  0.5373270000000  0.5512640000000 1.0
C      1  0.4618340000000  0.4643750000000  0.4486720000000 1.0
C      1  0.5430750000000  0.4617430000000  0.5526570000000 1.0
C      1  0.4490280000000  0.5631590000000  0.5249360000000 1.0
C      1  0.5491310000000  0.5634750000000  0.4764270000000 1.0
C      1  0.4511070000000  0.4364230000000  0.5247480000000 1.0
C      1  0.5493680000000  0.4357060000000  0.4762400000000 1.0
C      1  0.4960850000000  0.5692410000000  0.5302660000000 1.0
C      1  0.5019790000000  0.5696310000000  0.4708240000000 1.0
C      1  0.4976220000000  0.4297900000000  0.5300360000000 1.0
C      1  0.5034510000000  0.4281850000000  0.4710270000000 1.0
END
