TITL C-9258-7861-280 1.02434846830525e-06 125000 -361.190414719951 0 0 60 (C1) n - 1
REM
REM in /home/bkarasulu/CARBON/AIRSS/Generating-Clusters/EDIP-Nigel-Params/Higher-Symm/Box-15A/Only-C60/SD-CG/HFTN-CG
REM
REM
REM
REM
REM
REM ./C.cell (414f73aa93bd7a1190c7fd0f31ff2f98)
REM
REM compiler GCC version 9.2.1 20190827 (Red Hat 9.2.1-1)
REM options -cpp -mtune=generic -march=x86-64 -g -O0 -fpre-include=/usr/include/finclude/math-vector-fortran.h
REM seed 1017047838 -82444060 -218918025 200072962 -523201057 2074128572 -603117932 268326969 511577923 -2042166702 -1032566434 -1874948963 1325564516 -701289045 2043420895 150065323 1418860890 773592103 1307012472 -1615482304 -1563618465 434233039 -246017234 -218239270 54729979 1688472365 2003761886 1177471405 -344300517 109677628 651850155 -1268347837 -135025543
REM
CELL 1.54180   50.00000   50.00000   50.00000   90.00000   90.00000   90.00000
LATT -1
SFAC C  
C      1  0.4618130000000  0.4980900000000  0.4691110000000 1.0
C      1  0.4605050000000  0.5286230000000  0.5153300000000 1.0
C      1  0.4623490000000  0.4726510000000  0.5139010000000 1.0
C      1  0.4621190000000  0.5007220000000  0.5312560000000 1.0
C      1  0.4651310000000  0.5267330000000  0.4843870000000 1.0
C      1  0.4725500000000  0.4751160000000  0.4852690000000 1.0
C      1  0.5246600000000  0.4420000000000  0.4711050000000 1.0
C      1  0.5224670000000  0.5497090000000  0.4722890000000 1.0
C      1  0.5226980000000  0.4992500000000  0.5532650000000 1.0
C      1  0.5233230000000  0.4429150000000  0.5296620000000 1.0
C      1  0.5218590000000  0.5497720000000  0.5262500000000 1.0
C      1  0.5231690000000  0.4985930000000  0.4470380000000 1.0
C      1  0.5146440000000  0.4468230000000  0.5581360000000 1.0
C      1  0.5172760000000  0.4747780000000  0.4306930000000 1.0
C      1  0.5150850000000  0.5756250000000  0.5141800000000 1.0
C      1  0.5161570000000  0.4459970000000  0.4424540000000 1.0
C      1  0.5161200000000  0.4755370000000  0.5697220000000 1.0
C      1  0.5154360000000  0.5755760000000  0.4841420000000 1.0
C      1  0.4738010000000  0.5514690000000  0.4688090000000 1.0
C      1  0.4738330000000  0.5009930000000  0.5594920000000 1.0
C      1  0.4754840000000  0.4492890000000  0.4715050000000 1.0
C      1  0.4728680000000  0.5525730000000  0.5297130000000 1.0
C      1  0.4737880000000  0.4994320000000  0.4406880000000 1.0
C      1  0.4736230000000  0.4483910000000  0.5290690000000 1.0
C      1  0.5700510000000  0.5328280000000  0.5142870000000 1.0
C      1  0.5652660000000  0.4743650000000  0.5191460000000 1.0
C      1  0.5702860000000  0.4986610000000  0.4678410000000 1.0
C      1  0.5703170000000  0.5326220000000  0.4856670000000 1.0
C      1  0.5655510000000  0.4741030000000  0.4818750000000 1.0
C      1  0.5699100000000  0.4991910000000  0.5327080000000 1.0
C      1  0.4843880000000  0.4758330000000  0.5727530000000 1.0
C      1  0.4839210000000  0.4480500000000  0.4425330000000 1.0
C      1  0.4833090000000  0.5765210000000  0.4833120000000 1.0
C      1  0.4854960000000  0.4744630000000  0.4273750000000 1.0
C      1  0.4824300000000  0.4491100000000  0.5577770000000 1.0
C      1  0.4831390000000  0.5768150000000  0.5144840000000 1.0
C      1  0.4317140000000  0.5000580000000  0.4722940000000 1.0
C      1  0.4224080000000  0.5230400000000  0.5151480000000 1.0
C      1  0.4311320000000  0.4740660000000  0.5134900000000 1.0
C      1  0.4310080000000  0.4994740000000  0.5306320000000 1.0
C      1  0.4274440000000  0.5250910000000  0.4868310000000 1.0
C      1  0.4208350000000  0.4792160000000  0.4877940000000 1.0
C      1  0.4994070000000  0.5466970000000  0.4540870000000 1.0
C      1  0.4995860000000  0.5161610000000  0.5614130000000 1.0
C      1  0.4981930000000  0.4329670000000  0.4822030000000 1.0
C      1  0.4986300000000  0.5471280000000  0.5443120000000 1.0
C      1  0.4997900000000  0.5150760000000  0.4385080000000 1.0
C      1  0.4973810000000  0.4336930000000  0.5178390000000 1.0
C      1  0.5483900000000  0.5372970000000  0.4669010000000 1.0
C      1  0.5482680000000  0.5123210000000  0.5472780000000 1.0
C      1  0.5383980000000  0.4634350000000  0.4857540000000 1.0
C      1  0.5477890000000  0.5377290000000  0.5326070000000 1.0
C      1  0.5488170000000  0.5116220000000  0.4527900000000 1.0
C      1  0.5381130000000  0.4636680000000  0.5149810000000 1.0
C      1  0.5016840000000  0.5586950000000  0.5723480000000 1.0
C      1  0.4939140000000  0.4037210000000  0.5146930000000 1.0
C      1  0.5031090000000  0.5315430000000  0.4129870000000 1.0
C      1  0.5022100000000  0.5570080000000  0.4254860000000 1.0
C      1  0.4940000000000  0.4031950000000  0.4864050000000 1.0
C      1  0.5029620000000  0.5338760000000  0.5860000000000 1.0
END
