TITL C-9257-5531-365 1.44726085147155e-05 125000 -366.297084560932 0 0 60 (C1) n - 1
REM
REM in /home/bkarasulu/CARBON/AIRSS/Generating-Clusters/EDIP-Nigel-Params/Higher-Symm/Box-15A/Only-C60/SD-CG/HFTN-CG
REM
REM
REM
REM
REM
REM ./C.cell (414f73aa93bd7a1190c7fd0f31ff2f98)
REM
REM compiler GCC version 9.2.1 20190827 (Red Hat 9.2.1-1)
REM options -cpp -mtune=generic -march=x86-64 -g -O0 -fpre-include=/usr/include/finclude/math-vector-fortran.h
REM seed -101493358 -83933850 -307706317 -1827801937 -32687916 1652322626 -1550008832 -18826170 651412999 1438253595 -1780580117 2121053156 -1537321193 34266470 1421848291 -687699428 976817633 1076257186 1009320474 -1123174443 -1962918171 -343562837 -2130178711 2018094772 307669986 -534730880 -215592888 60904447 499378173 2126136115 -1212174537 -599346155 2035220541
REM
CELL 1.54180   50.00000   50.00000   50.00000   90.00000   90.00000   90.00000
LATT -1
SFAC C  
C      1  0.4269850000000  0.5288110000000  0.4651280000000 1.0
C      1  0.4672650000000  0.4428550000000  0.4491890000000 1.0
C      1  0.5494370000000  0.5052480000000  0.5131870000000 1.0
C      1  0.5011950000000  0.5196990000000  0.5077640000000 1.0
C      1  0.4565520000000  0.5060260000000  0.5365150000000 1.0
C      1  0.5215810000000  0.4877970000000  0.5683080000000 1.0
C      1  0.4392450000000  0.5512610000000  0.4944220000000 1.0
C      1  0.4498620000000  0.5192300000000  0.4498060000000 1.0
C      1  0.4261270000000  0.5249650000000  0.4945710000000 1.0
C      1  0.5364530000000  0.4473660000000  0.4706740000000 1.0
C      1  0.5295760000000  0.5276800000000  0.5161890000000 1.0
C      1  0.4810580000000  0.5793500000000  0.4880410000000 1.0
C      1  0.4817150000000  0.4619270000000  0.5434500000000 1.0
C      1  0.5417810000000  0.5095920000000  0.5601710000000 1.0
C      1  0.5050250000000  0.5182860000000  0.4764370000000 1.0
C      1  0.5254260000000  0.4638400000000  0.5479940000000 1.0
C      1  0.5228280000000  0.4702850000000  0.4545980000000 1.0
C      1  0.4858530000000  0.5742250000000  0.5178070000000 1.0
C      1  0.4726560000000  0.5304590000000  0.5400400000000 1.0
C      1  0.5543800000000  0.4605830000000  0.4912120000000 1.0
C      1  0.4702110000000  0.4335210000000  0.4761540000000 1.0
C      1  0.4705140000000  0.4712770000000  0.4435770000000 1.0
C      1  0.5274670000000  0.5366850000000  0.4680190000000 1.0
C      1  0.5597710000000  0.4953950000000  0.5397020000000 1.0
C      1  0.5617630000000  0.5005560000000  0.4539280000000 1.0
C      1  0.4637950000000  0.4548850000000  0.4965870000000 1.0
C      1  0.4520600000000  0.4899400000000  0.4600410000000 1.0
C      1  0.4966540000000  0.5265940000000  0.5558200000000 1.0
C      1  0.4987710000000  0.4629860000000  0.4389160000000 1.0
C      1  0.5177100000000  0.4753160000000  0.5217530000000 1.0
C      1  0.4740210000000  0.5358700000000  0.4602540000000 1.0
C      1  0.4662010000000  0.5004360000000  0.4855500000000 1.0
C      1  0.5387850000000  0.5473410000000  0.4943320000000 1.0
C      1  0.4855920000000  0.4244490000000  0.5320230000000 1.0
C      1  0.4764490000000  0.5467040000000  0.5175090000000 1.0
C      1  0.4700690000000  0.4863480000000  0.5556150000000 1.0
C      1  0.4939350000000  0.5006000000000  0.5689210000000 1.0
C      1  0.4619960000000  0.5579290000000  0.4772990000000 1.0
C      1  0.5553030000000  0.4635920000000  0.5423890000000 1.0
C      1  0.4380220000000  0.4720310000000  0.4911840000000 1.0
C      1  0.4931410000000  0.4901040000000  0.5190650000000 1.0
C      1  0.4891560000000  0.5493800000000  0.4397540000000 1.0
C      1  0.5192740000000  0.4320260000000  0.4889770000000 1.0
C      1  0.4845340000000  0.4784160000000  0.4924430000000 1.0
C      1  0.5154010000000  0.5775560000000  0.5246020000000 1.0
C      1  0.5251210000000  0.5335880000000  0.5464570000000 1.0
C      1  0.5286910000000  0.5748590000000  0.4976460000000 1.0
C      1  0.4948640000000  0.4210410000000  0.4807020000000 1.0
C      1  0.4657560000000  0.4447810000000  0.5251540000000 1.0
C      1  0.5358130000000  0.4828260000000  0.5000530000000 1.0
C      1  0.5464130000000  0.5230960000000  0.4492270000000 1.0
C      1  0.5422160000000  0.4869370000000  0.4396390000000 1.0
C      1  0.5269760000000  0.5625330000000  0.5462790000000 1.0
C      1  0.5565330000000  0.4449690000000  0.5170040000000 1.0
C      1  0.5120910000000  0.5580690000000  0.4540300000000 1.0
C      1  0.4428870000000  0.5017500000000  0.5060240000000 1.0
C      1  0.5313150000000  0.4278610000000  0.5157960000000 1.0
C      1  0.5084860000000  0.5792660000000  0.4749830000000 1.0
C      1  0.5142170000000  0.4878660000000  0.4777140000000 1.0
C      1  0.5130280000000  0.4311370000000  0.5393730000000 1.0
END
