TITL C-9270-2362-171 -0.0251959984852728 125000 -358.174016473392 0 0 60 (C1) n - 1
REM
REM in /home/bkarasulu/CARBON/AIRSS/Generating-Clusters/EDIP-Nigel-Params/Higher-Symm/Box-15A/Only-C60/SD-CG/HFTN-CG
REM
REM
REM
REM
REM
REM ./C.cell (414f73aa93bd7a1190c7fd0f31ff2f98)
REM
REM compiler GCC version 9.2.1 20190827 (Red Hat 9.2.1-1)
REM options -cpp -mtune=generic -march=x86-64 -g -O0 -fpre-include=/usr/include/finclude/math-vector-fortran.h
REM seed 1638569414 -1512452565 -442880929 -159355472 -1031319416 -1886889831 -746946762 1012102267 1896206315 339315298 2117506082 480897814 -1068371560 1826851197 -1986098997 1558639220 -1250261807 -1522510726 888994074 1909895565 -876866508 -2073121336 886132395 774608828 819078805 -720803963 -1234532293 555557148 1906383260 -140874689 306193864 1806249479 1963750210
REM
CELL 1.54180   50.00000   50.00000   50.00000   90.00000   90.00000   90.00000
LATT -1
SFAC C  
C      1  0.4950850000000  0.4497710000000  0.4856120000000 1.0
C      1  0.4828760000000  0.4370130000000  0.5336200000000 1.0
C      1  0.5195290000000  0.4642560000000  0.5569820000000 1.0
C      1  0.5377480000000  0.4889550000000  0.6000390000000 1.0
C      1  0.5724150000000  0.5160360000000  0.5823170000000 1.0
C      1  0.5775400000000  0.5562460000000  0.5555210000000 1.0
C      1  0.5524580000000  0.5915360000000  0.5333710000000 1.0
C      1  0.5357330000000  0.5681810000000  0.4892860000000 1.0
C      1  0.5036530000000  0.5654340000000  0.4494360000000 1.0
C      1  0.5052450000000  0.5147130000000  0.4428690000000 1.0
C      1  0.4741750000000  0.4739030000000  0.4452600000000 1.0
C      1  0.4967080000000  0.4499270000000  0.5521610000000 1.0
C      1  0.5236510000000  0.4753610000000  0.5818920000000 1.0
C      1  0.5580090000000  0.5061170000000  0.6037230000000 1.0
C      1  0.5789600000000  0.5432290000000  0.5803460000000 1.0
C      1  0.5679960000000  0.5820060000000  0.5528970000000 1.0
C      1  0.5399990000000  0.5849230000000  0.5107560000000 1.0
C      1  0.5167670000000  0.5745480000000  0.4705830000000 1.0
C      1  0.5004430000000  0.5413920000000  0.4387230000000 1.0
C      1  0.4850630000000  0.4968680000000  0.4377080000000 1.0
C      1  0.4788060000000  0.4562770000000  0.4645170000000 1.0
C      1  0.4839470000000  0.4369520000000  0.5071320000000 1.0
C      1  0.5412210000000  0.4544200000000  0.5093970000000 1.0
C      1  0.5404530000000  0.4664080000000  0.5369390000000 1.0
C      1  0.5649600000000  0.4798210000000  0.5454290000000 1.0
C      1  0.5609660000000  0.5067630000000  0.5570740000000 1.0
C      1  0.5651000000000  0.5383370000000  0.5354610000000 1.0
C      1  0.5732310000000  0.5398400000000  0.5063110000000 1.0
C      1  0.5518710000000  0.5440770000000  0.4865900000000 1.0
C      1  0.5518250000000  0.5245290000000  0.4637310000000 1.0
C      1  0.5276690000000  0.5064530000000  0.4596260000000 1.0
C      1  0.5334590000000  0.4766550000000  0.4638450000000 1.0
C      1  0.5210410000000  0.4628550000000  0.4882180000000 1.0
C      1  0.4165640000000  0.4987390000000  0.4579150000000 1.0
C      1  0.4214830000000  0.4981850000000  0.4848770000000 1.0
C      1  0.4011780000000  0.4920930000000  0.5022570000000 1.0
C      1  0.3765900000000  0.4856010000000  0.5096670000000 1.0
C      1  0.3512310000000  0.4797140000000  0.5048750000000 1.0
C      1  0.3315360000000  0.4760280000000  0.4875430000000 1.0
C      1  0.3243720000000  0.4759370000000  0.4620200000000 1.0
C      1  0.3329790000000  0.4796550000000  0.4372160000000 1.0
C      1  0.3541240000000  0.4857840000000  0.4224480000000 1.0
C      1  0.3798580000000  0.4920790000000  0.4223750000000 1.0
C      1  0.4022470000000  0.4966830000000  0.4357250000000 1.0
C      1  0.6136280000000  0.5143310000000  0.5168060000000 1.0
C      1  0.5967730000000  0.5255280000000  0.4978650000000 1.0
C      1  0.6010240000000  0.5223000000000  0.4704780000000 1.0
C      1  0.5774470000000  0.5107740000000  0.4607410000000 1.0
C      1  0.5781110000000  0.4873350000000  0.4453450000000 1.0
C      1  0.5615860000000  0.4695270000000  0.4594740000000 1.0
C      1  0.5717470000000  0.4463850000000  0.4717140000000 1.0
C      1  0.5684060000000  0.4511980000000  0.4991300000000 1.0
C      1  0.5903540000000  0.4505200000000  0.5164500000000 1.0
C      1  0.5891120000000  0.4744000000000  0.5307980000000 1.0
C      1  0.6103530000000  0.4922130000000  0.5316000000000 1.0
C      1  0.4945580000000  0.5150240000000  0.5131480000000 1.0
C      1  0.5173960000000  0.5218630000000  0.5245270000000 1.0
C      1  0.5363570000000  0.5320270000000  0.5411880000000 1.0
C      1  0.4709090000000  0.5089930000000  0.5031160000000 1.0
C      1  0.4465340000000  0.5037030000000  0.4943980000000 1.0
END
