TITL C-9266-5713-153 3.13857760326209e-06 125000 -359.220708806471 0 0 60 (C1) n - 1
REM
REM in /home/bkarasulu/CARBON/AIRSS/Generating-Clusters/EDIP-Nigel-Params/Higher-Symm/Box-15A/Only-C60/SD-CG/HFTN-CG
REM
REM
REM
REM
REM
REM ./C.cell (414f73aa93bd7a1190c7fd0f31ff2f98)
REM
REM compiler GCC version 9.2.1 20190827 (Red Hat 9.2.1-1)
REM options -cpp -mtune=generic -march=x86-64 -g -O0 -fpre-include=/usr/include/finclude/math-vector-fortran.h
REM seed -676005482 -1456591288 -1118749219 888663413 -1824017990 -1728287883 -1819588503 1262271032 -907263529 1932826917 -1239993230 474497187 2055051673 1099492386 1585197472 350580836 572128250 -2024494333 416024249 -655718797 -2020850979 -1065679087 1433806438 1584560960 -2124001096 594384023 324745913 911091525 -1121409796 -1182112481 340118734 -194842181 263165712
REM
CELL 1.54180   50.00000   50.00000   50.00000   90.00000   90.00000   90.00000
LATT -1
SFAC C  
C      1  0.4754110000000  0.5265950000000  0.4902930000000 1.0
C      1  0.4743820000000  0.4796980000000  0.4815960000000 1.0
C      1  0.4755900000000  0.4922170000000  0.5275470000000 1.0
C      1  0.5245340000000  0.5025170000000  0.5648230000000 1.0
C      1  0.5238130000000  0.5575180000000  0.4616260000000 1.0
C      1  0.5279710000000  0.4455660000000  0.4774260000000 1.0
C      1  0.4964290000000  0.4392080000000  0.5175240000000 1.0
C      1  0.5002870000000  0.5463780000000  0.5420910000000 1.0
C      1  0.4991050000000  0.5138980000000  0.4326920000000 1.0
C      1  0.5740980000000  0.5282100000000  0.5085070000000 1.0
C      1  0.5731920000000  0.4922960000000  0.4738120000000 1.0
C      1  0.5704620000000  0.4814980000000  0.5229070000000 1.0
C      1  0.5083990000000  0.4831260000000  0.5791290000000 1.0
C      1  0.5078660000000  0.5766830000000  0.4740850000000 1.0
C      1  0.5093740000000  0.4381750000000  0.4562060000000 1.0
C      1  0.4813930000000  0.5099980000000  0.5712020000000 1.0
C      1  0.4784870000000  0.5544320000000  0.4532340000000 1.0
C      1  0.4755620000000  0.4318990000000  0.4735160000000 1.0
C      1  0.5244240000000  0.5275560000000  0.4378140000000 1.0
C      1  0.5229320000000  0.4359900000000  0.5056750000000 1.0
C      1  0.5260140000000  0.5354950000000  0.5478040000000 1.0
C      1  0.5767090000000  0.5189400000000  0.4823430000000 1.0
C      1  0.5678200000000  0.4738270000000  0.4954180000000 1.0
C      1  0.5646440000000  0.5091060000000  0.5269840000000 1.0
C      1  0.4704990000000  0.4578790000000  0.4615680000000 1.0
C      1  0.4708650000000  0.4872800000000  0.5565630000000 1.0
C      1  0.4705950000000  0.5543410000000  0.4806460000000 1.0
C      1  0.4924090000000  0.4592620000000  0.4420940000000 1.0
C      1  0.4883640000000  0.4651890000000  0.5655610000000 1.0
C      1  0.4884750000000  0.5728180000000  0.4949210000000 1.0
C      1  0.4616350000000  0.5059680000000  0.4720690000000 1.0
C      1  0.4614180000000  0.4722240000000  0.5088060000000 1.0
C      1  0.4647170000000  0.5205990000000  0.5188210000000 1.0
C      1  0.5065280000000  0.4896990000000  0.4908000000000 1.0
C      1  0.5054850000000  0.4888780000000  0.5203950000000 1.0
C      1  0.5047320000000  0.5189010000000  0.4877490000000 1.0
C      1  0.4947010000000  0.4462560000000  0.5449230000000 1.0
C      1  0.4959100000000  0.5643380000000  0.5209280000000 1.0
C      1  0.4988030000000  0.4857510000000  0.4336530000000 1.0
C      1  0.4355350000000  0.5197530000000  0.5169910000000 1.0
C      1  0.4326060000000  0.5055970000000  0.4745770000000 1.0
C      1  0.4325070000000  0.4761070000000  0.5088600000000 1.0
C      1  0.4297900000000  0.4505120000000  0.5183110000000 1.0
C      1  0.4348570000000  0.5416000000000  0.5333660000000 1.0
C      1  0.4307600000000  0.5093730000000  0.4474290000000 1.0
C      1  0.5472900000000  0.5494000000000  0.5364520000000 1.0
C      1  0.5455380000000  0.5089740000000  0.4382920000000 1.0
C      1  0.5419940000000  0.4449270000000  0.5240130000000 1.0
C      1  0.5642590000000  0.5534590000000  0.5154440000000 1.0
C      1  0.5511220000000  0.4873010000000  0.4548800000000 1.0
C      1  0.5495180000000  0.4678170000000  0.5380930000000 1.0
C      1  0.5335010000000  0.4750190000000  0.4789330000000 1.0
C      1  0.5309170000000  0.4936920000000  0.5372180000000 1.0
C      1  0.5262820000000  0.5334490000000  0.4761120000000 1.0
C      1  0.4786010000000  0.5357080000000  0.5578770000000 1.0
C      1  0.4758270000000  0.5303120000000  0.4380100000000 1.0
C      1  0.4735120000000  0.4302040000000  0.5023190000000 1.0
C      1  0.4480270000000  0.4308660000000  0.5134940000000 1.0
C      1  0.4529920000000  0.5451950000000  0.5532410000000 1.0
C      1  0.4505310000000  0.5205250000000  0.4323400000000 1.0
END
