TITL C-9270-2362-291 -5.39179800961517e-06 125000 -368.663905272803 0 0 60 (Ci) n - 1
REM
REM in /home/bkarasulu/CARBON/AIRSS/Generating-Clusters/EDIP-Nigel-Params/Higher-Symm/Box-15A/Only-C60/SD-CG/HFTN-CG
REM
REM
REM
REM
REM
REM ./C.cell (414f73aa93bd7a1190c7fd0f31ff2f98)
REM
REM compiler GCC version 9.2.1 20190827 (Red Hat 9.2.1-1)
REM options -cpp -mtune=generic -march=x86-64 -g -O0 -fpre-include=/usr/include/finclude/math-vector-fortran.h
REM seed -1818807669 739647901 1592569726 517427778 231643285 -183726629 -1988155342 330091436 -350643600 1412090524 -190617967 1194773136 1113902381 -2065805046 -1317070413 1811452368 703301033 949413483 1702187175 -832893290 1200982626 1355642699 1152466210 428795704 1056030519 1201500214 -219579431 468085985 -2020826972 -1429571538 911176885 2127476453 -1973102520
REM
CELL 1.54180   50.00000   50.00000   50.00000   90.00000   90.00000   90.00000
LATT -1
SFAC C  
C      1  0.5167240000000  0.4360330000000  0.5246210000000 1.0
C      1  0.4829420000000  0.4894350000000  0.5678060000000 1.0
C      1  0.5165440000000  0.5532620000000  0.5429360000000 1.0
C      1  0.4832760000000  0.5639670000000  0.4753790000000 1.0
C      1  0.5170580000000  0.5105650000000  0.4321940000000 1.0
C      1  0.4834560000000  0.4467380000000  0.4570640000000 1.0
C      1  0.5593570000000  0.4742930000000  0.4768440000000 1.0
C      1  0.4416390000000  0.4684980000000  0.5113170000000 1.0
C      1  0.5569340000000  0.4948980000000  0.5345340000000 1.0
C      1  0.4406430000000  0.5257070000000  0.5231560000000 1.0
C      1  0.5583610000000  0.5315020000000  0.4886830000000 1.0
C      1  0.4430660000000  0.5051020000000  0.4654660000000 1.0
C      1  0.4531010000000  0.5306390000000  0.4546220000000 1.0
C      1  0.5475270000000  0.4758520000000  0.4497030000000 1.0
C      1  0.4518960000000  0.4453150000000  0.4952670000000 1.0
C      1  0.5468990000000  0.4693610000000  0.5453780000000 1.0
C      1  0.4524730000000  0.5241480000000  0.5502970000000 1.0
C      1  0.5481040000000  0.5546850000000  0.5047330000000 1.0
C      1  0.4595860000000  0.5458000000000  0.4796820000000 1.0
C      1  0.5402060000000  0.5048650000000  0.4503680000000 1.0
C      1  0.4602430000000  0.4599560000000  0.4707210000000 1.0
C      1  0.5404140000000  0.4542000000000  0.5203180000000 1.0
C      1  0.4597940000000  0.4951350000000  0.5496320000000 1.0
C      1  0.5397570000000  0.5400440000000  0.5292790000000 1.0
C      1  0.4734450000000  0.4313920000000  0.5096560000000 1.0
C      1  0.5254550000000  0.4739300000000  0.5648040000000 1.0
C      1  0.4738690000000  0.5435110000000  0.5547170000000 1.0
C      1  0.5265550000000  0.5686080000000  0.4903440000000 1.0
C      1  0.4745450000000  0.5260700000000  0.4351960000000 1.0
C      1  0.5261310000000  0.4564890000000  0.4452830000000 1.0
C      1  0.4642690000000  0.4890420000000  0.4789280000000 1.0
C      1  0.5376960000000  0.4761440000000  0.4989310000000 1.0
C      1  0.4634720000000  0.4874830000000  0.5202020000000 1.0
C      1  0.5357310000000  0.5109580000000  0.5210720000000 1.0
C      1  0.4623040000000  0.5238560000000  0.5010690000000 1.0
C      1  0.5365280000000  0.5125170000000  0.4797980000000 1.0
C      1  0.5078180000000  0.4735510000000  0.4896310000000 1.0
C      1  0.4929710000000  0.4778560000000  0.5176100000000 1.0
C      1  0.5065610000000  0.5043790000000  0.5281980000000 1.0
C      1  0.4921820000000  0.5264490000000  0.5103690000000 1.0
C      1  0.5070290000000  0.5221440000000  0.4823900000000 1.0
C      1  0.4934390000000  0.4956210000000  0.4718020000000 1.0
C      1  0.4934840000000  0.5539300000000  0.5230830000000 1.0
C      1  0.5066550000000  0.5469880000000  0.4651680000000 1.0
C      1  0.4939050000000  0.4931850000000  0.4416360000000 1.0
C      1  0.5065160000000  0.4460700000000  0.4769170000000 1.0
C      1  0.4933450000000  0.4530120000000  0.5348320000000 1.0
C      1  0.5060950000000  0.5068150000000  0.5583640000000 1.0
C      1  0.5829420000000  0.5152160000000  0.4974340000000 1.0
C      1  0.4194270000000  0.5057530000000  0.4814610000000 1.0
C      1  0.5831400000000  0.4911610000000  0.4799410000000 1.0
C      1  0.4170580000000  0.4847840000000  0.5025660000000 1.0
C      1  0.5805730000000  0.4942470000000  0.5185390000000 1.0
C      1  0.4168600000000  0.5088390000000  0.5200590000000 1.0
C      1  0.4989700000000  0.4635570000000  0.4370570000000 1.0
C      1  0.5008790000000  0.4273620000000  0.5000080000000 1.0
C      1  0.4982140000000  0.4636030000000  0.5628460000000 1.0
C      1  0.5010300000000  0.5364430000000  0.5629430000000 1.0
C      1  0.4991210000000  0.5726380000000  0.4999920000000 1.0
C      1  0.5017860000000  0.5363970000000  0.4371540000000 1.0
END
