TITL C-9257-5531-100 5.58158371274606e-05 125000 -346.614784216637 0 0 60 (C1) n - 1
REM
REM in /home/bkarasulu/CARBON/AIRSS/Generating-Clusters/EDIP-Nigel-Params/Higher-Symm/Box-15A/Only-C60/SD-CG/HFTN-CG
REM
REM
REM
REM
REM
REM ./C.cell (414f73aa93bd7a1190c7fd0f31ff2f98)
REM
REM compiler GCC version 9.2.1 20190827 (Red Hat 9.2.1-1)
REM options -cpp -mtune=generic -march=x86-64 -g -O0 -fpre-include=/usr/include/finclude/math-vector-fortran.h
REM seed 353710608 769118127 1473755394 -169256643 1417589337 -78360628 542272298 -870370787 1031660657 -1898927722 -1019581011 495784299 1185916503 1285066787 270737781 1811079674 -984641698 498193805 -1534723056 1444283039 -1854468929 -1794561037 -1804011407 783674751 -659998345 1046954536 185631047 1507255751 1543831141 -55300856 439474005 -507654018 -1622563400
REM
CELL 1.54180   50.00000   50.00000   50.00000   90.00000   90.00000   90.00000
LATT -1
SFAC C  
C      1  0.5703750000000  0.4422750000000  0.4992480000000 1.0
C      1  0.5561170000000  0.5357940000000  0.5526670000000 1.0
C      1  0.5652220000000  0.5066100000000  0.4555950000000 1.0
C      1  0.4468850000000  0.4492180000000  0.4889410000000 1.0
C      1  0.4299660000000  0.5323560000000  0.4535140000000 1.0
C      1  0.4278070000000  0.5288770000000  0.5517530000000 1.0
C      1  0.4372450000000  0.5738920000000  0.4964470000000 1.0
C      1  0.4460340000000  0.4721670000000  0.4396420000000 1.0
C      1  0.4358700000000  0.4723960000000  0.5495560000000 1.0
C      1  0.5544500000000  0.5498010000000  0.5028220000000 1.0
C      1  0.5754590000000  0.4761350000000  0.5429990000000 1.0
C      1  0.5529240000000  0.4585800000000  0.4425200000000 1.0
C      1  0.4773710000000  0.5216350000000  0.4234620000000 1.0
C      1  0.4864270000000  0.4526250000000  0.5249280000000 1.0
C      1  0.4718740000000  0.5616840000000  0.5634180000000 1.0
C      1  0.5157550000000  0.5114950000000  0.5813390000000 1.0
C      1  0.5220310000000  0.4246690000000  0.4789430000000 1.0
C      1  0.5293490000000  0.5490790000000  0.4554120000000 1.0
C      1  0.5292490000000  0.4880290000000  0.5750010000000 1.0
C      1  0.5067540000000  0.5529950000000  0.4711870000000 1.0
C      1  0.5097460000000  0.4298910000000  0.4546380000000 1.0
C      1  0.4882600000000  0.4972050000000  0.4158390000000 1.0
C      1  0.4765540000000  0.5641250000000  0.5362170000000 1.0
C      1  0.4916070000000  0.4541570000000  0.5522660000000 1.0
C      1  0.4521980000000  0.5174210000000  0.5575480000000 1.0
C      1  0.4544650000000  0.5391640000000  0.4641940000000 1.0
C      1  0.4694160000000  0.4628380000000  0.4806600000000 1.0
C      1  0.5381460000000  0.5006750000000  0.4565150000000 1.0
C      1  0.5307560000000  0.5354200000000  0.5415710000000 1.0
C      1  0.5476640000000  0.4525860000000  0.5109060000000 1.0
C      1  0.5306000000000  0.4736940000000  0.4492650000000 1.0
C      1  0.5504030000000  0.4682710000000  0.5346380000000 1.0
C      1  0.5298610000000  0.5436030000000  0.5139650000000 1.0
C      1  0.4569090000000  0.4896580000000  0.5537590000000 1.0
C      1  0.4696590000000  0.4733220000000  0.4539870000000 1.0
C      1  0.4550340000000  0.5506940000000  0.4922030000000 1.0
C      1  0.5124900000000  0.5148210000000  0.5524890000000 1.0
C      1  0.5207660000000  0.5227330000000  0.4520560000000 1.0
C      1  0.5217910000000  0.4447290000000  0.4999510000000 1.0
C      1  0.4771180000000  0.5277160000000  0.4512480000000 1.0
C      1  0.4744940000000  0.5344070000000  0.5610740000000 1.0
C      1  0.4906140000000  0.4665500000000  0.4999500000000 1.0
C      1  0.4905380000000  0.4918020000000  0.4444220000000 1.0
C      1  0.4838750000000  0.4808270000000  0.5511700000000 1.0
C      1  0.4792060000000  0.5504530000000  0.5111020000000 1.0
C      1  0.5279030000000  0.4793470000000  0.5479720000000 1.0
C      1  0.5096640000000  0.4576570000000  0.4632830000000 1.0
C      1  0.5056690000000  0.5504910000000  0.4994970000000 1.0
C      1  0.4245770000000  0.4551120000000  0.5328120000000 1.0
C      1  0.4235150000000  0.5510460000000  0.5057720000000 1.0
C      1  0.4246840000000  0.4873090000000  0.4344220000000 1.0
C      1  0.5740540000000  0.4447210000000  0.4511540000000 1.0
C      1  0.5751380000000  0.5418980000000  0.4879000000000 1.0
C      1  0.5875230000000  0.4977420000000  0.5529300000000 1.0
C      1  0.5805800000000  0.5240280000000  0.4688780000000 1.0
C      1  0.5820040000000  0.4379530000000  0.4756560000000 1.0
C      1  0.5788060000000  0.5225300000000  0.5571700000000 1.0
C      1  0.4196000000000  0.5451330000000  0.5323010000000 1.0
C      1  0.4290630000000  0.4457050000000  0.5083880000000 1.0
C      1  0.4178830000000  0.5122520000000  0.4408350000000 1.0
END
