TITL C-9268-6400-41 -6.1995095942931e-05 125000 -368.078743342546 0 0 60 (C1) n - 1
REM
REM in /home/bkarasulu/CARBON/AIRSS/Generating-Clusters/EDIP-Nigel-Params/Higher-Symm/Box-15A/Only-C60/SD-CG/HFTN-CG
REM
REM
REM
REM
REM
REM ./C.cell (414f73aa93bd7a1190c7fd0f31ff2f98)
REM
REM compiler GCC version 9.2.1 20190827 (Red Hat 9.2.1-1)
REM options -cpp -mtune=generic -march=x86-64 -g -O0 -fpre-include=/usr/include/finclude/math-vector-fortran.h
REM seed -501013346 504009589 282343940 -44151131 1194734935 -2122488437 -582990578 -846276714 1838458393 710115735 -91205715 1366354329 1097849707 -1443436269 1620286452 827973475 515343860 2045396750 -1814173067 -832646382 -544413402 -51783365 -2052567400 -1993828403 -1839983916 1029924529 -1114983170 -1522895575 171232141 1347326221 -441235552 -1530859397 -446227220
REM
CELL 1.54180   50.00000   50.00000   50.00000   90.00000   90.00000   90.00000
LATT -1
SFAC C  
C      1  0.4308560000000  0.4829500000000  0.4737380000000 1.0
C      1  0.4865170000000  0.4763490000000  0.4441360000000 1.0
C      1  0.4727670000000  0.4209060000000  0.4856120000000 1.0
C      1  0.4434060000000  0.5057570000000  0.5258310000000 1.0
C      1  0.5628980000000  0.4885660000000  0.5276060000000 1.0
C      1  0.5706290000000  0.5175450000000  0.4793880000000 1.0
C      1  0.5032650000000  0.5258910000000  0.5581620000000 1.0
C      1  0.5048960000000  0.4746130000000  0.5589860000000 1.0
C      1  0.5123880000000  0.5271500000000  0.4384860000000 1.0
C      1  0.4727430000000  0.5697220000000  0.5157940000000 1.0
C      1  0.5229220000000  0.4356610000000  0.5124770000000 1.0
C      1  0.5241290000000  0.5762250000000  0.4862380000000 1.0
C      1  0.5752040000000  0.4889490000000  0.4808140000000 1.0
C      1  0.5163300000000  0.4780100000000  0.4421000000000 1.0
C      1  0.5219940000000  0.4292890000000  0.4843480000000 1.0
C      1  0.5578830000000  0.5168170000000  0.5267110000000 1.0
C      1  0.4449310000000  0.4772780000000  0.5206320000000 1.0
C      1  0.4269070000000  0.5109450000000  0.4794750000000 1.0
C      1  0.5290840000000  0.5142440000000  0.5669440000000 1.0
C      1  0.4821150000000  0.4859810000000  0.5722420000000 1.0
C      1  0.4844000000000  0.5237200000000  0.4323990000000 1.0
C      1  0.5200790000000  0.5823060000000  0.5141260000000 1.0
C      1  0.4758970000000  0.4218890000000  0.5144330000000 1.0
C      1  0.4743410000000  0.5754910000000  0.4870330000000 1.0
C      1  0.5504480000000  0.5295520000000  0.5522840000000 1.0
C      1  0.5378770000000  0.5570440000000  0.5498510000000 1.0
C      1  0.5458300000000  0.5732270000000  0.5249650000000 1.0
C      1  0.5704910000000  0.4819810000000  0.4534620000000 1.0
C      1  0.4292030000000  0.5215810000000  0.4528720000000 1.0
C      1  0.4471260000000  0.4542240000000  0.5390540000000 1.0
C      1  0.5185880000000  0.4469670000000  0.4438750000000 1.0
C      1  0.4755190000000  0.5508130000000  0.4339560000000 1.0
C      1  0.4665770000000  0.4527170000000  0.5607210000000 1.0
C      1  0.5490950000000  0.4347270000000  0.4769740000000 1.0
C      1  0.4488770000000  0.5648590000000  0.4791960000000 1.0
C      1  0.4480890000000  0.4295260000000  0.5215700000000 1.0
C      1  0.4554750000000  0.5165440000000  0.5484680000000 1.0
C      1  0.5077970000000  0.5539010000000  0.5510010000000 1.0
C      1  0.4423510000000  0.5507640000000  0.5035960000000 1.0
C      1  0.4416400000000  0.4988720000000  0.4402500000000 1.0
C      1  0.5570070000000  0.5059930000000  0.4451630000000 1.0
C      1  0.5536090000000  0.4754740000000  0.5502670000000 1.0
C      1  0.4874220000000  0.4450140000000  0.4449170000000 1.0
C      1  0.4992730000000  0.5625250000000  0.4455900000000 1.0
C      1  0.4945570000000  0.4483670000000  0.5522150000000 1.0
C      1  0.4396260000000  0.4376950000000  0.4943230000000 1.0
C      1  0.5551480000000  0.5588290000000  0.5009490000000 1.0
C      1  0.5579510000000  0.4466820000000  0.5017990000000 1.0
C      1  0.4992550000000  0.5657630000000  0.5258970000000 1.0
C      1  0.5647120000000  0.5320640000000  0.5032570000000 1.0
C      1  0.4963510000000  0.4258290000000  0.4679810000000 1.0
C      1  0.4994540000000  0.5688780000000  0.4734470000000 1.0
C      1  0.4973330000000  0.4385720000000  0.5249750000000 1.0
C      1  0.5624970000000  0.4749340000000  0.5025710000000 1.0
C      1  0.4406250000000  0.5222090000000  0.5023050000000 1.0
C      1  0.4357350000000  0.4661380000000  0.4959390000000 1.0
C      1  0.5288280000000  0.5040530000000  0.4418860000000 1.0
C      1  0.4776960000000  0.5133870000000  0.5651150000000 1.0
C      1  0.5312270000000  0.4849180000000  0.5641410000000 1.0
C      1  0.4701270000000  0.4991220000000  0.4374580000000 1.0
END
