TITL C-9270-2362-253 -1.075016568908e-06 125000 -360.319447608536 0 0 60 (C1) n - 1
REM
REM in /home/bkarasulu/CARBON/AIRSS/Generating-Clusters/EDIP-Nigel-Params/Higher-Symm/Box-15A/Only-C60/SD-CG/HFTN-CG
REM
REM
REM
REM
REM
REM ./C.cell (414f73aa93bd7a1190c7fd0f31ff2f98)
REM
REM compiler GCC version 9.2.1 20190827 (Red Hat 9.2.1-1)
REM options -cpp -mtune=generic -march=x86-64 -g -O0 -fpre-include=/usr/include/finclude/math-vector-fortran.h
REM seed 196682538 2049796459 -2003918329 806087638 1353793963 1269861090 -68070963 -308171537 -1560912248 1192935736 2136963632 -338039243 -95880421 1940688745 733498090 1777615832 155069981 -2141103462 208481892 -311908526 -2070563476 2000588819 307049769 1976855543 -664529842 485055720 -1583428473 1765141124 1907927203 -1136346782 -393390419 1750567772 2087306440
REM
CELL 1.54180   50.00000   50.00000   50.00000   90.00000   90.00000   90.00000
LATT -1
SFAC C  
C      1  0.5576770000000  0.5459630000000  0.5000410000000 1.0
C      1  0.4489760000000  0.4637140000000  0.4914820000000 1.0
C      1  0.4407150000000  0.5341320000000  0.5129740000000 1.0
C      1  0.5608770000000  0.4630820000000  0.5060980000000 1.0
C      1  0.5330700000000  0.5560960000000  0.4911750000000 1.0
C      1  0.4573110000000  0.4374760000000  0.4966000000000 1.0
C      1  0.5386780000000  0.4444110000000  0.5103180000000 1.0
C      1  0.4494730000000  0.5586160000000  0.5018640000000 1.0
C      1  0.5087060000000  0.4699500000000  0.4157650000000 1.0
C      1  0.5033550000000  0.5363050000000  0.4223800000000 1.0
C      1  0.5044330000000  0.4619770000000  0.5782870000000 1.0
C      1  0.4944360000000  0.5257100000000  0.5823720000000 1.0
C      1  0.4661780000000  0.5033940000000  0.4245900000000 1.0
C      1  0.5322180000000  0.5118790000000  0.4165270000000 1.0
C      1  0.4662520000000  0.4999690000000  0.5793890000000 1.0
C      1  0.5310260000000  0.4900250000000  0.5785570000000 1.0
C      1  0.4703930000000  0.5065850000000  0.4895120000000 1.0
C      1  0.5302470000000  0.4933960000000  0.4869210000000 1.0
C      1  0.5308990000000  0.5069180000000  0.5138070000000 1.0
C      1  0.4719450000000  0.4955490000000  0.5168360000000 1.0
C      1  0.5091570000000  0.4702480000000  0.4858720000000 1.0
C      1  0.4897000000000  0.5330770000000  0.4901010000000 1.0
C      1  0.5026960000000  0.5338600000000  0.5168730000000 1.0
C      1  0.4950090000000  0.4677360000000  0.5122850000000 1.0
C      1  0.4720600000000  0.5571670000000  0.4851460000000 1.0
C      1  0.5229790000000  0.4431150000000  0.4838620000000 1.0
C      1  0.5191990000000  0.5582960000000  0.5184850000000 1.0
C      1  0.4799220000000  0.4406470000000  0.5131730000000 1.0
C      1  0.5574910000000  0.4812690000000  0.4830480000000 1.0
C      1  0.4418320000000  0.5170350000000  0.4884050000000 1.0
C      1  0.5564020000000  0.5232830000000  0.5166420000000 1.0
C      1  0.4477860000000  0.4780480000000  0.5187180000000 1.0
C      1  0.4693810000000  0.5538910000000  0.4561490000000 1.0
C      1  0.5332990000000  0.4487280000000  0.4546460000000 1.0
C      1  0.5308710000000  0.5501970000000  0.5468710000000 1.0
C      1  0.4750180000000  0.4425010000000  0.5428160000000 1.0
C      1  0.5540060000000  0.4702680000000  0.4553700000000 1.0
C      1  0.4431920000000  0.5265470000000  0.4601980000000 1.0
C      1  0.5523780000000  0.5280480000000  0.5461720000000 1.0
C      1  0.4551270000000  0.4654000000000  0.5452190000000 1.0
C      1  0.4490960000000  0.5014060000000  0.5565060000000 1.0
C      1  0.5504870000000  0.4960250000000  0.5573280000000 1.0
C      1  0.5419090000000  0.5032550000000  0.4421080000000 1.0
C      1  0.4517730000000  0.5009770000000  0.4480830000000 1.0
C      1  0.5040400000000  0.4450840000000  0.5545460000000 1.0
C      1  0.4977530000000  0.5468470000000  0.5628500000000 1.0
C      1  0.4975190000000  0.5491730000000  0.4478370000000 1.0
C      1  0.5071500000000  0.4582830000000  0.4411480000000 1.0
C      1  0.4647690000000  0.4826380000000  0.4695680000000 1.0
C      1  0.5265860000000  0.5120180000000  0.4649460000000 1.0
C      1  0.5402740000000  0.4833490000000  0.5311510000000 1.0
C      1  0.4597800000000  0.5192810000000  0.5337570000000 1.0
C      1  0.4921150000000  0.4727780000000  0.4622570000000 1.0
C      1  0.5141080000000  0.5382990000000  0.4715420000000 1.0
C      1  0.4835880000000  0.5374710000000  0.5385470000000 1.0
C      1  0.5189080000000  0.4596940000000  0.5305520000000 1.0
C      1  0.5106070000000  0.4958720000000  0.4049600000000 1.0
C      1  0.4881970000000  0.5140910000000  0.4109730000000 1.0
C      1  0.4883680000000  0.4843760000000  0.5675900000000 1.0
C      1  0.5086010000000  0.5045770000000  0.5682050000000 1.0
END
