TITL C-9268-6400-190 1.77395273105695e-05 125000 -360.6596754955 0 0 60 (C1) n - 1
REM
REM in /home/bkarasulu/CARBON/AIRSS/Generating-Clusters/EDIP-Nigel-Params/Higher-Symm/Box-15A/Only-C60/SD-CG/HFTN-CG
REM
REM
REM
REM
REM
REM ./C.cell (414f73aa93bd7a1190c7fd0f31ff2f98)
REM
REM compiler GCC version 9.2.1 20190827 (Red Hat 9.2.1-1)
REM options -cpp -mtune=generic -march=x86-64 -g -O0 -fpre-include=/usr/include/finclude/math-vector-fortran.h
REM seed 624919805 -125346251 1833249028 1863202233 2074802516 -1845614845 1838524607 -852102165 -677267492 -650364045 -1994239504 317815082 681119812 413595732 132231200 1988194713 -1421087177 -2117552512 1520309752 -850262769 1570125778 -974102437 -1179257545 1753598905 2106344594 -1334738102 166466209 1233829205 -49655404 -1178446923 -165964426 1853323498 -77749265
REM
CELL 1.54180   50.00000   50.00000   50.00000   90.00000   90.00000   90.00000
LATT -1
SFAC C  
C      1  0.4940390000000  0.5439250000000  0.4976950000000 1.0
C      1  0.5186000000000  0.5313090000000  0.5322430000000 1.0
C      1  0.4766990000000  0.4667410000000  0.4875290000000 1.0
C      1  0.5617160000000  0.4972390000000  0.5685570000000 1.0
C      1  0.4673660000000  0.4435140000000  0.5328860000000 1.0
C      1  0.4780890000000  0.5437240000000  0.4477270000000 1.0
C      1  0.4917120000000  0.5026260000000  0.4550080000000 1.0
C      1  0.5709790000000  0.4851630000000  0.5432340000000 1.0
C      1  0.4264870000000  0.5201890000000  0.5009160000000 1.0
C      1  0.5098130000000  0.4568580000000  0.4495520000000 1.0
C      1  0.4975600000000  0.4404410000000  0.4696110000000 1.0
C      1  0.5461020000000  0.4868290000000  0.4399600000000 1.0
C      1  0.5367830000000  0.5087090000000  0.5726570000000 1.0
C      1  0.5282270000000  0.4539790000000  0.5056570000000 1.0
C      1  0.4797210000000  0.5683570000000  0.5079940000000 1.0
C      1  0.4742180000000  0.4968600000000  0.4790090000000 1.0
C      1  0.5235630000000  0.5000690000000  0.4917130000000 1.0
C      1  0.5288280000000  0.5717360000000  0.5044390000000 1.0
C      1  0.4877720000000  0.5134660000000  0.5696680000000 1.0
C      1  0.5571260000000  0.5441810000000  0.4780640000000 1.0
C      1  0.5704140000000  0.4785870000000  0.4929720000000 1.0
C      1  0.4663280000000  0.5325570000000  0.5432360000000 1.0
C      1  0.5174290000000  0.5150160000000  0.4658190000000 1.0
C      1  0.5099060000000  0.4516860000000  0.5524060000000 1.0
C      1  0.4714480000000  0.4793410000000  0.5599690000000 1.0
C      1  0.5274710000000  0.4628630000000  0.5330520000000 1.0
C      1  0.4451570000000  0.5006070000000  0.4732620000000 1.0
C      1  0.5806240000000  0.5060330000000  0.4949540000000 1.0
C      1  0.4592710000000  0.5460180000000  0.4698520000000 1.0
C      1  0.4615940000000  0.5670870000000  0.4880380000000 1.0
C      1  0.5323930000000  0.5605090000000  0.4791490000000 1.0
C      1  0.4850020000000  0.4872830000000  0.5345860000000 1.0
C      1  0.4751620000000  0.5226220000000  0.4279100000000 1.0
C      1  0.5604190000000  0.5305150000000  0.4533760000000 1.0
C      1  0.5396290000000  0.4745030000000  0.4869350000000 1.0
C      1  0.4502780000000  0.4551700000000  0.4822850000000 1.0
C      1  0.4829580000000  0.5157850000000  0.5008140000000 1.0
C      1  0.5423290000000  0.4891300000000  0.5354680000000 1.0
C      1  0.4430510000000  0.4798020000000  0.5498540000000 1.0
C      1  0.5399090000000  0.5131090000000  0.4463680000000 1.0
C      1  0.4822840000000  0.4503950000000  0.5590290000000 1.0
C      1  0.5083160000000  0.5443110000000  0.4705850000000 1.0
C      1  0.4865850000000  0.4616960000000  0.5167020000000 1.0
C      1  0.5151440000000  0.5226940000000  0.5610970000000 1.0
C      1  0.4362710000000  0.5279680000000  0.4740630000000 1.0
C      1  0.4402030000000  0.4990140000000  0.5171200000000 1.0
C      1  0.4596080000000  0.4979840000000  0.4248740000000 1.0
C      1  0.4405300000000  0.4571660000000  0.5313660000000 1.0
C      1  0.5193070000000  0.5589830000000  0.5264930000000 1.0
C      1  0.4675920000000  0.5333220000000  0.5707300000000 1.0
C      1  0.4620550000000  0.4700310000000  0.4330740000000 1.0
C      1  0.5076520000000  0.4370470000000  0.4961000000000 1.0
C      1  0.4332050000000  0.4639160000000  0.5036670000000 1.0
C      1  0.5362360000000  0.4672880000000  0.4574980000000 1.0
C      1  0.4918860000000  0.4781680000000  0.4363850000000 1.0
C      1  0.4463030000000  0.4608160000000  0.4548780000000 1.0
C      1  0.5618670000000  0.5266650000000  0.5026090000000 1.0
C      1  0.4683650000000  0.5094600000000  0.5246830000000 1.0
C      1  0.5367140000000  0.5131350000000  0.5153890000000 1.0
C      1  0.5837090000000  0.4758020000000  0.5192280000000 1.0
END
