TITL C-9268-6400-278 -4.18933322914602e-06 125000 -371.880898840552 0 0 60 (C1) n - 1
REM
REM in /home/bkarasulu/CARBON/AIRSS/Generating-Clusters/EDIP-Nigel-Params/Higher-Symm/Box-15A/Only-C60/SD-CG/HFTN-CG
REM
REM
REM
REM
REM
REM ./C.cell (414f73aa93bd7a1190c7fd0f31ff2f98)
REM
REM compiler GCC version 9.2.1 20190827 (Red Hat 9.2.1-1)
REM options -cpp -mtune=generic -march=x86-64 -g -O0 -fpre-include=/usr/include/finclude/math-vector-fortran.h
REM seed -1829460168 -1011430719 -755088215 1422221190 -2050840047 1079861146 1938783324 -2118978047 1203353151 -1183237813 1763332376 1505703192 -802492618 -738775690 -609318718 1807083503 -282478234 -1105602804 1421364933 636811096 944929628 1748014265 588720639 -1614367612 -1197799358 -1103854393 -180842225 1548451810 -832098741 -1321907265 2103540518 144691636 -1633700178
REM
CELL 1.54180   50.00000   50.00000   50.00000   90.00000   90.00000   90.00000
LATT -1
SFAC C  
C      1  0.4616080000000  0.5126790000000  0.4401230000000 1.0
C      1  0.4629190000000  0.5477720000000  0.4940560000000 1.0
C      1  0.4577780000000  0.5516250000000  0.5231040000000 1.0
C      1  0.4680630000000  0.4916340000000  0.5440360000000 1.0
C      1  0.4837410000000  0.4707400000000  0.5279750000000 1.0
C      1  0.4652780000000  0.4555040000000  0.5096740000000 1.0
C      1  0.4642930000000  0.4847200000000  0.4479290000000 1.0
C      1  0.4955100000000  0.4464730000000  0.4494140000000 1.0
C      1  0.5093800000000  0.5127620000000  0.4272750000000 1.0
C      1  0.4954010000000  0.5546420000000  0.4643660000000 1.0
C      1  0.5033820000000  0.5701150000000  0.5183070000000 1.0
C      1  0.4987920000000  0.5215730000000  0.5653980000000 1.0
C      1  0.5110910000000  0.4656930000000  0.5680200000000 1.0
C      1  0.4977380000000  0.4205650000000  0.5125620000000 1.0
C      1  0.4786130000000  0.5008450000000  0.5709690000000 1.0
C      1  0.4963650000000  0.4506090000000  0.5477220000000 1.0
C      1  0.4774840000000  0.4320780000000  0.4971390000000 1.0
C      1  0.4863160000000  0.4700940000000  0.4365880000000 1.0
C      1  0.4851040000000  0.5271850000000  0.4308410000000 1.0
C      1  0.4784100000000  0.5701820000000  0.4814910000000 1.0
C      1  0.4819050000000  0.5608980000000  0.5368990000000 1.0
C      1  0.5221140000000  0.5479460000000  0.5075400000000 1.0
C      1  0.5158800000000  0.5106120000000  0.5447300000000 1.0
C      1  0.5275730000000  0.4820160000000  0.5479380000000 1.0
C      1  0.5327460000000  0.4525580000000  0.5230040000000 1.0
C      1  0.5114460000000  0.4657620000000  0.4788310000000 1.0
C      1  0.5238680000000  0.4835110000000  0.4555380000000 1.0
C      1  0.5077580000000  0.5317950000000  0.4813540000000 1.0
C      1  0.4354160000000  0.4942790000000  0.5078630000000 1.0
C      1  0.4448070000000  0.4703440000000  0.4945760000000 1.0
C      1  0.4473040000000  0.4721990000000  0.4664580000000 1.0
C      1  0.4415640000000  0.5284200000000  0.4524370000000 1.0
C      1  0.4391590000000  0.5406410000000  0.4776340000000 1.0
C      1  0.4423200000000  0.5323000000000  0.5364410000000 1.0
C      1  0.4443740000000  0.5045870000000  0.5330560000000 1.0
C      1  0.4926770000000  0.5869990000000  0.4987290000000 1.0
C      1  0.4890630000000  0.5471230000000  0.5601500000000 1.0
C      1  0.4927890000000  0.4799620000000  0.5837050000000 1.0
C      1  0.5133250000000  0.4318170000000  0.5327820000000 1.0
C      1  0.4821630000000  0.4347850000000  0.4700480000000 1.0
C      1  0.5055760000000  0.4850060000000  0.4216430000000 1.0
C      1  0.4873240000000  0.5539340000000  0.4374160000000 1.0
C      1  0.5567370000000  0.5183120000000  0.4674870000000 1.0
C      1  0.5614230000000  0.5325010000000  0.4934870000000 1.0
C      1  0.5521900000000  0.5147630000000  0.5166300000000 1.0
C      1  0.5730860000000  0.4986900000000  0.5328970000000 1.0
C      1  0.5764350000000  0.4730190000000  0.5154610000000 1.0
C      1  0.5556480000000  0.4763690000000  0.4932280000000 1.0
C      1  0.5656680000000  0.4895180000000  0.4676630000000 1.0
C      1  0.5355120000000  0.4521340000000  0.4917210000000 1.0
C      1  0.5509760000000  0.4750390000000  0.4483340000000 1.0
C      1  0.5266560000000  0.5154670000000  0.4612060000000 1.0
C      1  0.5472500000000  0.5573480000000  0.4955310000000 1.0
C      1  0.5319700000000  0.5302380000000  0.5311410000000 1.0
C      1  0.5580110000000  0.4821740000000  0.5543420000000 1.0
C      1  0.5605610000000  0.4567200000000  0.5363760000000 1.0
C      1  0.5339300000000  0.4937360000000  0.5060290000000 1.0
C      1  0.4604420000000  0.5099040000000  0.4837910000000 1.0
C      1  0.5030500000000  0.4867040000000  0.5029150000000 1.0
C      1  0.4888730000000  0.5118450000000  0.4928870000000 1.0
END
