TITL C-9264-7143-76 0.000149169867770985 125000 -366.339468105297 0 0 60 (C1) n - 1
REM
REM in /home/bkarasulu/CARBON/AIRSS/Generating-Clusters/EDIP-Nigel-Params/Higher-Symm/Box-15A/Only-C60/SD-CG/HFTN-CG
REM
REM
REM
REM
REM
REM ./C.cell (414f73aa93bd7a1190c7fd0f31ff2f98)
REM
REM compiler GCC version 9.2.1 20190827 (Red Hat 9.2.1-1)
REM options -cpp -mtune=generic -march=x86-64 -g -O0 -fpre-include=/usr/include/finclude/math-vector-fortran.h
REM seed -1970157934 1669126059 -525905092 -18306575 1112246651 -2094400482 -2077675995 -123377594 -1100362552 -1482804378 300352422 -1798162579 -1877087129 -1377753500 -1523225737 359106672 1822867064 1898953768 2144413328 -1661550687 -1521157874 1786539264 -191052833 1910346427 1278621052 1827424994 -1684715487 -1473468979 -1690339555 -1369329168 -758863004 1473731052 -1709529833
REM
CELL 1.54180   50.00000   50.00000   50.00000   90.00000   90.00000   90.00000
LATT -1
SFAC C  
C      1  0.5035920000000  0.4335030000000  0.4871810000000 1.0
C      1  0.4865770000000  0.5128870000000  0.4388830000000 1.0
C      1  0.4861140000000  0.4456690000000  0.4674970000000 1.0
C      1  0.4604810000000  0.4555030000000  0.4767920000000 1.0
C      1  0.4556310000000  0.4904010000000  0.5517890000000 1.0
C      1  0.5335460000000  0.5197670000000  0.4330540000000 1.0
C      1  0.5387220000000  0.5087360000000  0.5196540000000 1.0
C      1  0.4992190000000  0.4563640000000  0.4452740000000 1.0
C      1  0.4786230000000  0.5288500000000  0.5294430000000 1.0
C      1  0.5231520000000  0.5422320000000  0.5443380000000 1.0
C      1  0.4729490000000  0.4631780000000  0.5510090000000 1.0
C      1  0.4718910000000  0.5024580000000  0.5157050000000 1.0
C      1  0.4538510000000  0.5274850000000  0.4840800000000 1.0
C      1  0.4963590000000  0.4832360000000  0.5092740000000 1.0
C      1  0.4675460000000  0.5500310000000  0.4695340000000 1.0
C      1  0.4454960000000  0.4835090000000  0.4389160000000 1.0
C      1  0.4395410000000  0.4699830000000  0.4624530000000 1.0
C      1  0.5066960000000  0.5368360000000  0.5209380000000 1.0
C      1  0.4732670000000  0.5174050000000  0.5571170000000 1.0
C      1  0.4264330000000  0.5199920000000  0.4784800000000 1.0
C      1  0.4155930000000  0.5131910000000  0.5262640000000 1.0
C      1  0.4642900000000  0.5742520000000  0.5114260000000 1.0
C      1  0.5508680000000  0.4498370000000  0.5282190000000 1.0
C      1  0.4746540000000  0.4481410000000  0.5251590000000 1.0
C      1  0.4079340000000  0.5146610000000  0.4994730000000 1.0
C      1  0.5299950000000  0.4301030000000  0.4790560000000 1.0
C      1  0.4325700000000  0.4914380000000  0.5312880000000 1.0
C      1  0.5613210000000  0.5257480000000  0.4712460000000 1.0
C      1  0.5475500000000  0.5555600000000  0.5398350000000 1.0
C      1  0.5365730000000  0.4803430000000  0.4723570000000 1.0
C      1  0.5368280000000  0.4974760000000  0.5480370000000 1.0
C      1  0.5125270000000  0.5010200000000  0.4311080000000 1.0
C      1  0.5765650000000  0.4854030000000  0.4957630000000 1.0
C      1  0.5636890000000  0.4957680000000  0.4695460000000 1.0
C      1  0.5187010000000  0.4768350000000  0.4465670000000 1.0
C      1  0.4546330000000  0.4552590000000  0.5049370000000 1.0
C      1  0.4955310000000  0.4825270000000  0.5437980000000 1.0
C      1  0.5617940000000  0.4609300000000  0.5511210000000 1.0
C      1  0.5704570000000  0.5071460000000  0.5155110000000 1.0
C      1  0.4214620000000  0.4823150000000  0.4834080000000 1.0
C      1  0.5382650000000  0.5351010000000  0.4559360000000 1.0
C      1  0.4316060000000  0.4720070000000  0.5097980000000 1.0
C      1  0.4724730000000  0.5053930000000  0.4872960000000 1.0
C      1  0.5632950000000  0.4579020000000  0.5021980000000 1.0
C      1  0.5589770000000  0.4857370000000  0.5609320000000 1.0
C      1  0.5520300000000  0.5587830000000  0.5125400000000 1.0
C      1  0.4812770000000  0.5686410000000  0.4896250000000 1.0
C      1  0.5228550000000  0.4926390000000  0.4985910000000 1.0
C      1  0.4624280000000  0.5021260000000  0.4297380000000 1.0
C      1  0.5138180000000  0.5403570000000  0.4704610000000 1.0
C      1  0.5239530000000  0.5189620000000  0.5632200000000 1.0
C      1  0.5317930000000  0.5733950000000  0.4993290000000 1.0
C      1  0.4607380000000  0.5509050000000  0.5245890000000 1.0
C      1  0.5012330000000  0.4401880000000  0.5150460000000 1.0
C      1  0.5089870000000  0.5556480000000  0.4958430000000 1.0
C      1  0.4977730000000  0.5049890000000  0.5674330000000 1.0
C      1  0.5626520000000  0.5330240000000  0.5003240000000 1.0
C      1  0.5253950000000  0.4376080000000  0.5292540000000 1.0
C      1  0.4901500000000  0.5382580000000  0.4538930000000 1.0
C      1  0.5470820000000  0.4523610000000  0.4784200000000 1.0
END
