TITL C-9268-6400-220 1.03058999134664e-06 125000 -355.241229998989 0 0 60 (Ci) n - 1
REM
REM in /home/bkarasulu/CARBON/AIRSS/Generating-Clusters/EDIP-Nigel-Params/Higher-Symm/Box-15A/Only-C60/SD-CG/HFTN-CG
REM
REM
REM
REM
REM
REM ./C.cell (414f73aa93bd7a1190c7fd0f31ff2f98)
REM
REM compiler GCC version 9.2.1 20190827 (Red Hat 9.2.1-1)
REM options -cpp -mtune=generic -march=x86-64 -g -O0 -fpre-include=/usr/include/finclude/math-vector-fortran.h
REM seed -1604185707 1792242967 943848912 -1753957405 -1857518931 372985761 -1644552934 -498208488 1596868065 1844599704 -1702728378 2025901391 350748054 979525362 2005533397 911448968 1524017375 877580641 1583765484 -2077831795 -20494125 1872438426 414690276 262569354 -1428958973 -2135864409 -2104799962 -273506881 837277036 1362672713 223185752 969893611 1813895292
REM
CELL 1.54180   50.00000   50.00000   50.00000   90.00000   90.00000   90.00000
LATT -1
SFAC C  
C      1  0.5327560000000  0.5316080000000  0.5594670000000 1.0
C      1  0.4672440000000  0.4683920000000  0.4405330000000 1.0
C      1  0.5722140000000  0.5338030000000  0.5231650000000 1.0
C      1  0.4277860000000  0.4661970000000  0.4768350000000 1.0
C      1  0.5029280000000  0.5123290000000  0.4653480000000 1.0
C      1  0.4970720000000  0.4876710000000  0.5346520000000 1.0
C      1  0.5112960000000  0.4587140000000  0.4378850000000 1.0
C      1  0.4887040000000  0.5412860000000  0.5621150000000 1.0
C      1  0.5281320000000  0.5350180000000  0.4466360000000 1.0
C      1  0.4718680000000  0.4649820000000  0.5533640000000 1.0
C      1  0.5230940000000  0.4827890000000  0.5481940000000 1.0
C      1  0.4769060000000  0.5172110000000  0.4518060000000 1.0
C      1  0.5261840000000  0.4794430000000  0.4495670000000 1.0
C      1  0.4738160000000  0.5205570000000  0.5504330000000 1.0
C      1  0.5162340000000  0.5795950000000  0.4933590000000 1.0
C      1  0.4837660000000  0.4204050000000  0.5066410000000 1.0
C      1  0.5609470000000  0.5606970000000  0.4848200000000 1.0
C      1  0.4390530000000  0.4393030000000  0.5151800000000 1.0
C      1  0.5369990000000  0.5077070000000  0.5048380000000 1.0
C      1  0.4630010000000  0.4922930000000  0.4951620000000 1.0
C      1  0.5782020000000  0.4827690000000  0.5027950000000 1.0
C      1  0.4217980000000  0.5172310000000  0.4972050000000 1.0
C      1  0.4193220000000  0.4594710000000  0.5031550000000 1.0
C      1  0.5806780000000  0.5405290000000  0.4968450000000 1.0
C      1  0.5714700000000  0.5195300000000  0.4728670000000 1.0
C      1  0.4285300000000  0.4804700000000  0.5271330000000 1.0
C      1  0.4630330000000  0.4955930000000  0.4382170000000 1.0
C      1  0.5369670000000  0.5044070000000  0.5617830000000 1.0
C      1  0.4421400000000  0.5044380000000  0.5133870000000 1.0
C      1  0.5578600000000  0.4955620000000  0.4866130000000 1.0
C      1  0.4973180000000  0.4467390000000  0.5493850000000 1.0
C      1  0.5026820000000  0.5532610000000  0.4506150000000 1.0
C      1  0.5526880000000  0.5412840000000  0.4626970000000 1.0
C      1  0.4473120000000  0.4587160000000  0.5373030000000 1.0
C      1  0.4704080000000  0.5679160000000  0.4851450000000 1.0
C      1  0.5295920000000  0.4320840000000  0.5148550000000 1.0
C      1  0.5067980000000  0.4655320000000  0.4855450000000 1.0
C      1  0.4932020000000  0.5344680000000  0.5144550000000 1.0
C      1  0.4972840000000  0.5657730000000  0.4768520000000 1.0
C      1  0.5027160000000  0.4342270000000  0.5231480000000 1.0
C      1  0.5073330000000  0.5124280000000  0.4964880000000 1.0
C      1  0.4926670000000  0.4875720000000  0.5035120000000 1.0
C      1  0.5738620000000  0.4882270000000  0.5288650000000 1.0
C      1  0.4261380000000  0.5117730000000  0.4711350000000 1.0
C      1  0.5280990000000  0.5058380000000  0.4368610000000 1.0
C      1  0.4719010000000  0.4941620000000  0.5631390000000 1.0
C      1  0.4792090000000  0.5421170000000  0.4391770000000 1.0
C      1  0.5207910000000  0.4578830000000  0.5608230000000 1.0
C      1  0.4591580000000  0.4298060000000  0.4969320000000 1.0
C      1  0.5408420000000  0.5701940000000  0.5030680000000 1.0
C      1  0.4563760000000  0.5280230000000  0.5271730000000 1.0
C      1  0.5436240000000  0.4719770000000  0.4728270000000 1.0
C      1  0.4865110000000  0.4495160000000  0.4468610000000 1.0
C      1  0.5134890000000  0.5504840000000  0.5531390000000 1.0
C      1  0.4883220000000  0.4438490000000  0.4758120000000 1.0
C      1  0.5116780000000  0.5561510000000  0.5241880000000 1.0
C      1  0.5321640000000  0.4530580000000  0.4959370000000 1.0
C      1  0.4678360000000  0.5469420000000  0.5040630000000 1.0
C      1  0.4443180000000  0.4891550000000  0.4710760000000 1.0
C      1  0.5556820000000  0.5108450000000  0.5289240000000 1.0
END
