TITL C-9255-4564-190 -1.81282120863126e-08 125000 -364.146912021193 0 0 60 (C1) n - 1
REM
REM in /home/bkarasulu/CARBON/AIRSS/Generating-Clusters/EDIP-Nigel-Params/Higher-Symm/Box-15A/Only-C60/SD-CG/HFTN-CG
REM
REM
REM
REM
REM
REM ./C.cell (414f73aa93bd7a1190c7fd0f31ff2f98)
REM
REM compiler GCC version 9.2.1 20190827 (Red Hat 9.2.1-1)
REM options -cpp -mtune=generic -march=x86-64 -g -O0 -fpre-include=/usr/include/finclude/math-vector-fortran.h
REM seed 1074803978 734325562 402714452 1076082532 2138325889 1172020777 -1772139857 137466030 1483659676 747653161 778083751 -1578542080 -980519296 -742434006 -1916997526 -569482508 -1565995386 -1712818374 251672827 162369947 -911350436 -1756835207 -827069985 163808333 1753389337 -76063414 2145423443 2012247103 -1390753051 1920989265 -624597094 499355274 -1338649680
REM
CELL 1.54180   50.00000   50.00000   50.00000   90.00000   90.00000   90.00000
LATT -1
SFAC C  
C      1  0.5008370000000  0.5529640000000  0.5022290000000 1.0
C      1  0.4417040000000  0.5360700000000  0.4935230000000 1.0
C      1  0.4419410000000  0.4687810000000  0.4996920000000 1.0
C      1  0.5001380000000  0.4434170000000  0.5013810000000 1.0
C      1  0.5531740000000  0.4677450000000  0.5013980000000 1.0
C      1  0.5576270000000  0.5329400000000  0.5010850000000 1.0
C      1  0.5412640000000  0.5638810000000  0.4848110000000 1.0
C      1  0.4668460000000  0.5669190000000  0.5116220000000 1.0
C      1  0.4275220000000  0.5089980000000  0.4874720000000 1.0
C      1  0.4582540000000  0.4376680000000  0.5155660000000 1.0
C      1  0.5332860000000  0.4312350000000  0.4855770000000 1.0
C      1  0.5759480000000  0.4953540000000  0.5156670000000 1.0
C      1  0.5423540000000  0.4569150000000  0.4760850000000 1.0
C      1  0.5595480000000  0.5166000000000  0.5261920000000 1.0
C      1  0.5157640000000  0.5536360000000  0.4766350000000 1.0
C      1  0.4565100000000  0.5414240000000  0.5214880000000 1.0
C      1  0.4432000000000  0.4867590000000  0.4753050000000 1.0
C      1  0.4841830000000  0.4441800000000  0.5261590000000 1.0
C      1  0.5360410000000  0.5044460000000  0.5699870000000 1.0
C      1  0.5106460000000  0.5343600000000  0.4307810000000 1.0
C      1  0.4756290000000  0.5285920000000  0.5665950000000 1.0
C      1  0.4641230000000  0.4952100000000  0.4297930000000 1.0
C      1  0.4862300000000  0.4664660000000  0.5713210000000 1.0
C      1  0.5232100000000  0.4709670000000  0.4306550000000 1.0
C      1  0.4764110000000  0.5226410000000  0.5365320000000 1.0
C      1  0.4695050000000  0.4932260000000  0.4594870000000 1.0
C      1  0.4903280000000  0.4697560000000  0.5415130000000 1.0
C      1  0.5249020000000  0.4768990000000  0.4608820000000 1.0
C      1  0.5331150000000  0.5099970000000  0.5400980000000 1.0
C      1  0.5102150000000  0.5283120000000  0.4604370000000 1.0
C      1  0.5297450000000  0.4757420000000  0.5687030000000 1.0
C      1  0.5272840000000  0.5183680000000  0.4154660000000 1.0
C      1  0.5041610000000  0.5356130000000  0.5693700000000 1.0
C      1  0.4651530000000  0.5208900000000  0.4191310000000 1.0
C      1  0.4664830000000  0.4820780000000  0.5829540000000 1.0
C      1  0.4946340000000  0.4625420000000  0.4314470000000 1.0
C      1  0.5218550000000  0.4750440000000  0.5397130000000 1.0
C      1  0.5302810000000  0.5062800000000  0.4679470000000 1.0
C      1  0.5112030000000  0.5323770000000  0.5400160000000 1.0
C      1  0.4820020000000  0.5196160000000  0.4687740000000 1.0
C      1  0.4729420000000  0.4928640000000  0.5304780000000 1.0
C      1  0.4902710000000  0.4690950000000  0.4606420000000 1.0
C      1  0.4622970000000  0.5412800000000  0.4718510000000 1.0
C      1  0.4453420000000  0.4857230000000  0.5241160000000 1.0
C      1  0.4840790000000  0.4442000000000  0.4768880000000 1.0
C      1  0.5406620000000  0.4555890000000  0.5251190000000 1.0
C      1  0.5571700000000  0.5147760000000  0.4770530000000 1.0
C      1  0.5176760000000  0.5587090000000  0.5257470000000 1.0
C      1  0.4284280000000  0.5075590000000  0.5165960000000 1.0
C      1  0.4584270000000  0.4366400000000  0.4870150000000 1.0
C      1  0.5338110000000  0.4297010000000  0.5141090000000 1.0
C      1  0.5760870000000  0.4952860000000  0.4870680000000 1.0
C      1  0.5424420000000  0.5661880000000  0.5132430000000 1.0
C      1  0.4702310000000  0.5670680000000  0.4830100000000 1.0
C      1  0.5193320000000  0.5196390000000  0.5868330000000 1.0
C      1  0.4855270000000  0.5384990000000  0.4195180000000 1.0
C      1  0.4658420000000  0.5088580000000  0.5836490000000 1.0
C      1  0.4768290000000  0.4756960000000  0.4143500000000 1.0
C      1  0.5100120000000  0.4659400000000  0.5860020000000 1.0
C      1  0.5293360000000  0.4917810000000  0.4132190000000 1.0
END
