TITL C-9262-5533-389 -3.45574137088194e-06 125000 -368.823191686786 0 0 60 (C1) n - 1
REM
REM in /home/bkarasulu/CARBON/AIRSS/Generating-Clusters/EDIP-Nigel-Params/Higher-Symm/Box-15A/Only-C60/SD-CG/HFTN-CG
REM
REM
REM
REM
REM
REM ./C.cell (414f73aa93bd7a1190c7fd0f31ff2f98)
REM
REM compiler GCC version 9.2.1 20190827 (Red Hat 9.2.1-1)
REM options -cpp -mtune=generic -march=x86-64 -g -O0 -fpre-include=/usr/include/finclude/math-vector-fortran.h
REM seed 58716553 1807721312 -1397295372 1876910577 -1959076625 -1389906508 2092600434 -1117565543 577129281 1539249344 -1215947164 -1780841913 1792983731 1032948629 -1539588415 -1700474245 -1020793061 686677939 -74518671 731837861 1208042836 966056292 -223647953 -1972032364 622599535 1669942617 -943736341 913987904 1014599074 536303678 1441985042 -287748088 1385862201
REM
CELL 1.54180   50.00000   50.00000   50.00000   90.00000   90.00000   90.00000
LATT -1
SFAC C  
C      1  0.4492350000000  0.5379500000000  0.4966520000000 1.0
C      1  0.4536840000000  0.5361040000000  0.4687290000000 1.0
C      1  0.5241180000000  0.5026190000000  0.5746600000000 1.0
C      1  0.4590480000000  0.4891690000000  0.5511410000000 1.0
C      1  0.5456430000000  0.5323050000000  0.5358430000000 1.0
C      1  0.5694640000000  0.4788900000000  0.5095050000000 1.0
C      1  0.5463500000000  0.4437000000000  0.4671220000000 1.0
C      1  0.5576170000000  0.4800980000000  0.5353720000000 1.0
C      1  0.4993800000000  0.5328380000000  0.4563220000000 1.0
C      1  0.5215150000000  0.4817040000000  0.5093590000000 1.0
C      1  0.5231080000000  0.5458400000000  0.5494100000000 1.0
C      1  0.4682340000000  0.5049180000000  0.4320340000000 1.0
C      1  0.4991080000000  0.4376030000000  0.4590420000000 1.0
C      1  0.5025680000000  0.5269220000000  0.5078110000000 1.0
C      1  0.4837190000000  0.4585810000000  0.5212950000000 1.0
C      1  0.5219200000000  0.5131810000000  0.4580370000000 1.0
C      1  0.5464110000000  0.5291180000000  0.4637180000000 1.0
C      1  0.5299570000000  0.4751370000000  0.4379690000000 1.0
C      1  0.4581190000000  0.4635100000000  0.4586870000000 1.0
C      1  0.5538460000000  0.5065080000000  0.5451710000000 1.0
C      1  0.5231040000000  0.4294790000000  0.4745040000000 1.0
C      1  0.4498830000000  0.4875690000000  0.4722630000000 1.0
C      1  0.5074870000000  0.4618740000000  0.5507690000000 1.0
C      1  0.4906480000000  0.5230910000000  0.4289720000000 1.0
C      1  0.5161220000000  0.4354470000000  0.5018500000000 1.0
C      1  0.4756210000000  0.4755590000000  0.4377720000000 1.0
C      1  0.5480490000000  0.4879850000000  0.4915510000000 1.0
C      1  0.5523890000000  0.5174770000000  0.4895640000000 1.0
C      1  0.5317490000000  0.4638420000000  0.5323690000000 1.0
C      1  0.4826910000000  0.5250650000000  0.5723270000000 1.0
C      1  0.4860480000000  0.5188970000000  0.4810530000000 1.0
C      1  0.4937680000000  0.4866070000000  0.4705050000000 1.0
C      1  0.5035450000000  0.5594540000000  0.5292370000000 1.0
C      1  0.5022040000000  0.5015040000000  0.5221900000000 1.0
C      1  0.4640350000000  0.5365280000000  0.5515100000000 1.0
C      1  0.5233800000000  0.5029530000000  0.4307120000000 1.0
C      1  0.5096700000000  0.5610930000000  0.4608230000000 1.0
C      1  0.5356330000000  0.5343890000000  0.5075480000000 1.0
C      1  0.4395450000000  0.4881560000000  0.4990510000000 1.0
C      1  0.4747140000000  0.5529000000000  0.5297590000000 1.0
C      1  0.5025230000000  0.4625020000000  0.4959070000000 1.0
C      1  0.4566930000000  0.5613200000000  0.5099460000000 1.0
C      1  0.4777290000000  0.4953430000000  0.5745200000000 1.0
C      1  0.4586550000000  0.4435040000000  0.5142310000000 1.0
C      1  0.4509800000000  0.5110230000000  0.4554090000000 1.0
C      1  0.4389520000000  0.4634470000000  0.5125720000000 1.0
C      1  0.5384310000000  0.5580420000000  0.4677880000000 1.0
C      1  0.5371340000000  0.4375710000000  0.5206180000000 1.0
C      1  0.4981740000000  0.5763370000000  0.4817540000000 1.0
C      1  0.5047190000000  0.4813950000000  0.5725750000000 1.0
C      1  0.5032630000000  0.4616430000000  0.4418260000000 1.0
C      1  0.5388560000000  0.5625880000000  0.4975350000000 1.0
C      1  0.4756750000000  0.4870570000000  0.5248000000000 1.0
C      1  0.5138050000000  0.5755580000000  0.5053980000000 1.0
C      1  0.4430320000000  0.5141430000000  0.5123680000000 1.0
C      1  0.4606160000000  0.4259740000000  0.4924100000000 1.0
C      1  0.5122930000000  0.5285890000000  0.5709610000000 1.0
C      1  0.4454840000000  0.5147050000000  0.5422560000000 1.0
C      1  0.4722370000000  0.4412580000000  0.4718650000000 1.0
C      1  0.5474190000000  0.4714370000000  0.4630530000000 1.0
END
