TITL C-9255-4564-6 -1.94076776238667e-06 125000 -366.697139946865 0 0 60 (C1) n - 1
REM
REM in /home/bkarasulu/CARBON/AIRSS/Generating-Clusters/EDIP-Nigel-Params/Higher-Symm/Box-15A/Only-C60/SD-CG/HFTN-CG
REM
REM
REM
REM
REM
REM ./C.cell (414f73aa93bd7a1190c7fd0f31ff2f98)
REM
REM compiler GCC version 9.2.1 20190827 (Red Hat 9.2.1-1)
REM options -cpp -mtune=generic -march=x86-64 -g -O0 -fpre-include=/usr/include/finclude/math-vector-fortran.h
REM seed 323816252 -632212659 -1246937183 644480404 1321043913 727025436 -1450584571 -478020038 -357380686 578666655 1079710492 -421451535 -43027953 -1989385906 986691277 675660874 -1709446824 1496068935 -562112217 468149292 89970762 -2112227623 -862688823 -1622831201 1852904791 1803761630 584953703 -1406126159 442568109 -500914533 -1571616923 -2022187255 -1998171134
REM
CELL 1.54180   50.00000   50.00000   50.00000   90.00000   90.00000   90.00000
LATT -1
SFAC C  
C      1  0.5490400000000  0.4314180000000  0.5129020000000 1.0
C      1  0.4845980000000  0.4893320000000  0.4846310000000 1.0
C      1  0.4839830000000  0.4715270000000  0.4601520000000 1.0
C      1  0.5685120000000  0.4639550000000  0.4880400000000 1.0
C      1  0.5534480000000  0.4383430000000  0.4844130000000 1.0
C      1  0.5191510000000  0.5233630000000  0.4496940000000 1.0
C      1  0.5888920000000  0.5029110000000  0.4676290000000 1.0
C      1  0.4440940000000  0.4694920000000  0.5289120000000 1.0
C      1  0.4589820000000  0.5491270000000  0.4513260000000 1.0
C      1  0.5249830000000  0.4776910000000  0.4368730000000 1.0
C      1  0.4687680000000  0.5132930000000  0.5596500000000 1.0
C      1  0.5066670000000  0.5077720000000  0.4824630000000 1.0
C      1  0.5101060000000  0.4938560000000  0.5790110000000 1.0
C      1  0.5085950000000  0.5639170000000  0.4971160000000 1.0
C      1  0.5417820000000  0.5254280000000  0.5596160000000 1.0
C      1  0.5416530000000  0.5414800000000  0.5338480000000 1.0
C      1  0.5609200000000  0.5259420000000  0.5158390000000 1.0
C      1  0.5176150000000  0.4594690000000  0.5454080000000 1.0
C      1  0.4944850000000  0.5402830000000  0.5673990000000 1.0
C      1  0.4734330000000  0.5230950000000  0.5310760000000 1.0
C      1  0.4780920000000  0.4487090000000  0.5001040000000 1.0
C      1  0.4600900000000  0.4551010000000  0.4672520000000 1.0
C      1  0.4385540000000  0.5079950000000  0.5600900000000 1.0
C      1  0.5294770000000  0.4535740000000  0.5184270000000 1.0
C      1  0.4547550000000  0.4945770000000  0.4957420000000 1.0
C      1  0.5502410000000  0.5178410000000  0.4444230000000 1.0
C      1  0.4491490000000  0.5193890000000  0.5135750000000 1.0
C      1  0.5352660000000  0.4989160000000  0.4835960000000 1.0
C      1  0.4902040000000  0.4687650000000  0.5442880000000 1.0
C      1  0.5466540000000  0.4888890000000  0.4554150000000 1.0
C      1  0.5236230000000  0.4440670000000  0.4751240000000 1.0
C      1  0.4607170000000  0.5550070000000  0.4792940000000 1.0
C      1  0.4504320000000  0.4997430000000  0.4460110000000 1.0
C      1  0.4327980000000  0.4803840000000  0.5532110000000 1.0
C      1  0.4814440000000  0.5675790000000  0.4929910000000 1.0
C      1  0.4279980000000  0.4675330000000  0.5053670000000 1.0
C      1  0.4783510000000  0.4911640000000  0.4378020000000 1.0
C      1  0.4401950000000  0.5405880000000  0.4937830000000 1.0
C      1  0.5099590000000  0.4577340000000  0.4524670000000 1.0
C      1  0.5060880000000  0.5018340000000  0.4301690000000 1.0
C      1  0.5140970000000  0.5517470000000  0.4478780000000 1.0
C      1  0.5210300000000  0.5614980000000  0.4723170000000 1.0
C      1  0.4388020000000  0.4754060000000  0.4597160000000 1.0
C      1  0.5168510000000  0.5235960000000  0.5764760000000 1.0
C      1  0.5515290000000  0.4977800000000  0.5537240000000 1.0
C      1  0.4276260000000  0.5135200000000  0.5333380000000 1.0
C      1  0.5316450000000  0.4775000000000  0.5647680000000 1.0
C      1  0.4219870000000  0.4818970000000  0.4818470000000 1.0
C      1  0.4905650000000  0.5455380000000  0.5385940000000 1.0
C      1  0.5071490000000  0.4450480000000  0.4993580000000 1.0
C      1  0.4401820000000  0.5274400000000  0.4514940000000 1.0
C      1  0.4840400000000  0.4875610000000  0.5658480000000 1.0
C      1  0.5471650000000  0.4788400000000  0.5051100000000 1.0
C      1  0.5743910000000  0.4786750000000  0.4630660000000 1.0
C      1  0.4224760000000  0.5300520000000  0.4738330000000 1.0
C      1  0.5708090000000  0.5251910000000  0.4657080000000 1.0
C      1  0.4701210000000  0.4572560000000  0.5269090000000 1.0
C      1  0.5504660000000  0.5251820000000  0.4881190000000 1.0
C      1  0.5606490000000  0.4971270000000  0.5253990000000 1.0
C      1  0.5146230000000  0.5480650000000  0.5213690000000 1.0
END
