TITL C-9264-7143-72 9.72301774340344e-08 125000 -358.17487493192 0 0 60 (C2) n - 1
REM
REM in /home/bkarasulu/CARBON/AIRSS/Generating-Clusters/EDIP-Nigel-Params/Higher-Symm/Box-15A/Only-C60/SD-CG/HFTN-CG
REM
REM
REM
REM
REM
REM ./C.cell (414f73aa93bd7a1190c7fd0f31ff2f98)
REM
REM compiler GCC version 9.2.1 20190827 (Red Hat 9.2.1-1)
REM options -cpp -mtune=generic -march=x86-64 -g -O0 -fpre-include=/usr/include/finclude/math-vector-fortran.h
REM seed 1120083704 1740170249 -2063183531 661494771 -919912740 -1558260980 -1802998602 -1968332055 -587701309 2025747932 -1613132326 -892131317 -743866002 734833735 -319099177 228696472 55360117 -1183299396 -1559161490 1430764298 -973128399 892852114 -420534265 -1501700571 18972853 1833588224 -1720223862 -1582652690 1511687072 235610484 1785054218 1062939495 -692405077
REM
CELL 1.54180   50.00000   50.00000   50.00000   90.00000   90.00000   90.00000
LATT -1
SFAC C  
C      1  0.5574410000000  0.5561660000000  0.5103730000000 1.0
C      1  0.4425560000000  0.5561640000000  0.4896290000000 1.0
C      1  0.5573600000000  0.4441290000000  0.5095180000000 1.0
C      1  0.4426420000000  0.4441270000000  0.4904800000000 1.0
C      1  0.4741510000000  0.5308780000000  0.4451940000000 1.0
C      1  0.5258470000000  0.5308770000000  0.5548070000000 1.0
C      1  0.4722550000000  0.4674150000000  0.4460580000000 1.0
C      1  0.5277460000000  0.4674140000000  0.5539410000000 1.0
C      1  0.4968520000000  0.4839250000000  0.5222140000000 1.0
C      1  0.5031490000000  0.4839260000000  0.4777850000000 1.0
C      1  0.4971380000000  0.5147710000000  0.5220830000000 1.0
C      1  0.5028610000000  0.5147720000000  0.4779170000000 1.0
C      1  0.4889500000000  0.5727060000000  0.4904070000000 1.0
C      1  0.5110470000000  0.5727060000000  0.5095960000000 1.0
C      1  0.4881580000000  0.4266360000000  0.4914660000000 1.0
C      1  0.5118450000000  0.4266360000000  0.5085320000000 1.0
C      1  0.5273260000000  0.5592250000000  0.5535420000000 1.0
C      1  0.4726720000000  0.5592260000000  0.4464600000000 1.0
C      1  0.5308450000000  0.4391900000000  0.5516500000000 1.0
C      1  0.4691580000000  0.4391910000000  0.4483480000000 1.0
C      1  0.5431600000000  0.4842880000000  0.5336780000000 1.0
C      1  0.4568410000000  0.4842880000000  0.4663210000000 1.0
C      1  0.5425990000000  0.5151810000000  0.5342510000000 1.0
C      1  0.4574000000000  0.5151810000000  0.4657500000000 1.0
C      1  0.5340680000000  0.5172070000000  0.4461560000000 1.0
C      1  0.4659320000000  0.5172040000000  0.5538450000000 1.0
C      1  0.5348760000000  0.4877800000000  0.4464450000000 1.0
C      1  0.4651240000000  0.4877760000000  0.5535540000000 1.0
C      1  0.4360370000000  0.4715330000000  0.4853680000000 1.0
C      1  0.5639640000000  0.4715350000000  0.5146310000000 1.0
C      1  0.4361740000000  0.5284420000000  0.4843440000000 1.0
C      1  0.5638250000000  0.5284440000000  0.5156570000000 1.0
C      1  0.5308410000000  0.5533570000000  0.4988230000000 1.0
C      1  0.4691570000000  0.5533560000000  0.5011780000000 1.0
C      1  0.5315800000000  0.4461800000000  0.4975350000000 1.0
C      1  0.4684220000000  0.4461790000000  0.5024630000000 1.0
C      1  0.4977990000000  0.4679320000000  0.5480560000000 1.0
C      1  0.5022020000000  0.4679340000000  0.4519430000000 1.0
C      1  0.4950340000000  0.5304470000000  0.5476540000000 1.0
C      1  0.5049640000000  0.5304490000000  0.4523480000000 1.0
C      1  0.5510740000000  0.4719140000000  0.4646420000000 1.0
C      1  0.4489270000000  0.4719110000000  0.5353570000000 1.0
C      1  0.5536170000000  0.5306280000000  0.4648260000000 1.0
C      1  0.4463820000000  0.5306250000000  0.5351750000000 1.0
C      1  0.4371940000000  0.5148360000000  0.5111580000000 1.0
C      1  0.5628060000000  0.5148390000000  0.4888430000000 1.0
C      1  0.4377180000000  0.4857730000000  0.5116410000000 1.0
C      1  0.5622830000000  0.4857760000000  0.4883590000000 1.0
C      1  0.4923070000000  0.4323590000000  0.4632660000000 1.0
C      1  0.5076960000000  0.4323580000000  0.5367320000000 1.0
C      1  0.4949810000000  0.5657260000000  0.4626460000000 1.0
C      1  0.5050160000000  0.5657250000000  0.5373560000000 1.0
C      1  0.4780390000000  0.5240650000000  0.4977640000000 1.0
C      1  0.5219600000000  0.5240660000000  0.5022360000000 1.0
C      1  0.4781180000000  0.4749310000000  0.4979040000000 1.0
C      1  0.5218830000000  0.4749320000000  0.5020950000000 1.0
C      1  0.5447630000000  0.5570560000000  0.4734190000000 1.0
C      1  0.4552340000000  0.5570540000000  0.5265830000000 1.0
C      1  0.5419500000000  0.4453280000000  0.4709330000000 1.0
C      1  0.4580520000000  0.4453250000000  0.5290650000000 1.0
END
