TITL C-9270-2362-131 2.6254751411413e-08 125000 -369.385852100823 0 0 60 (Ci) n - 1
REM
REM in /home/bkarasulu/CARBON/AIRSS/Generating-Clusters/EDIP-Nigel-Params/Higher-Symm/Box-15A/Only-C60/SD-CG/HFTN-CG
REM
REM
REM
REM
REM
REM ./C.cell (414f73aa93bd7a1190c7fd0f31ff2f98)
REM
REM compiler GCC version 9.2.1 20190827 (Red Hat 9.2.1-1)
REM options -cpp -mtune=generic -march=x86-64 -g -O0 -fpre-include=/usr/include/finclude/math-vector-fortran.h
REM seed -1500301128 -877027742 1677794659 1245640768 -1668378833 2077714747 31519137 -1177472115 -404273911 -1207448025 -648217914 1387696599 254816228 1010196224 97174198 -1344514770 1513593917 -697638209 1249960457 1302869378 -1339542551 -825412989 1241604535 -940970393 -198011273 1312274814 -1937982382 468010605 163194720 1913980767 -1539803967 -2037188161 -8268309
REM
CELL 1.54180   50.00000   50.00000   50.00000   90.00000   90.00000   90.00000
LATT -1
SFAC C  
C      1  0.5024100000000  0.5298500000000  0.5506200000000 1.0
C      1  0.4975900000000  0.4701500000000  0.4493800000000 1.0
C      1  0.5132070000000  0.5469240000000  0.4773370000000 1.0
C      1  0.4867930000000  0.4530760000000  0.5226630000000 1.0
C      1  0.4795230000000  0.5017870000000  0.5165180000000 1.0
C      1  0.5204770000000  0.4982130000000  0.4834820000000 1.0
C      1  0.4333990000000  0.4858850000000  0.5166800000000 1.0
C      1  0.5666010000000  0.5141150000000  0.4833200000000 1.0
C      1  0.4991030000000  0.5235580000000  0.5204430000000 1.0
C      1  0.5008970000000  0.4764420000000  0.4795570000000 1.0
C      1  0.4755690000000  0.4922870000000  0.4891370000000 1.0
C      1  0.5244310000000  0.5077130000000  0.5108630000000 1.0
C      1  0.4480260000000  0.5466370000000  0.5154130000000 1.0
C      1  0.5519740000000  0.4533630000000  0.4845870000000 1.0
C      1  0.4725810000000  0.4345680000000  0.5048980000000 1.0
C      1  0.5274190000000  0.5654320000000  0.4951020000000 1.0
C      1  0.5281320000000  0.4954170000000  0.4286100000000 1.0
C      1  0.4718680000000  0.5045830000000  0.5713900000000 1.0
C      1  0.5137320000000  0.5722720000000  0.5210320000000 1.0
C      1  0.4862680000000  0.4277280000000  0.4789680000000 1.0
C      1  0.4457730000000  0.5305920000000  0.5405620000000 1.0
C      1  0.5542270000000  0.4694080000000  0.4594380000000 1.0
C      1  0.5337140000000  0.4675500000000  0.4383840000000 1.0
C      1  0.4662860000000  0.5324500000000  0.5616160000000 1.0
C      1  0.5006080000000  0.5050800000000  0.5669040000000 1.0
C      1  0.4993920000000  0.4949200000000  0.4330960000000 1.0
C      1  0.4474210000000  0.4791360000000  0.4448360000000 1.0
C      1  0.5525790000000  0.5208640000000  0.5551640000000 1.0
C      1  0.4350260000000  0.4918880000000  0.4667390000000 1.0
C      1  0.5649740000000  0.5081120000000  0.5332610000000 1.0
C      1  0.4724680000000  0.5188470000000  0.4705900000000 1.0
C      1  0.5275320000000  0.4811530000000  0.5294100000000 1.0
C      1  0.4687830000000  0.4603980000000  0.4447900000000 1.0
C      1  0.5312170000000  0.5396020000000  0.5552100000000 1.0
C      1  0.4357750000000  0.4700760000000  0.5414110000000 1.0
C      1  0.5642250000000  0.5299240000000  0.4585890000000 1.0
C      1  0.5652790000000  0.4654900000000  0.5067400000000 1.0
C      1  0.4347210000000  0.5345100000000  0.4932600000000 1.0
C      1  0.4425360000000  0.5208020000000  0.4698490000000 1.0
C      1  0.5574640000000  0.4791980000000  0.5301510000000 1.0
C      1  0.4805440000000  0.4541970000000  0.5516200000000 1.0
C      1  0.5194560000000  0.5458030000000  0.4483800000000 1.0
C      1  0.4542290000000  0.5030240000000  0.5311930000000 1.0
C      1  0.5457710000000  0.4969760000000  0.4688070000000 1.0
C      1  0.4849290000000  0.5184680000000  0.4424480000000 1.0
C      1  0.5150710000000  0.4815320000000  0.5575520000000 1.0
C      1  0.5238020000000  0.4483590000000  0.4904900000000 1.0
C      1  0.4761980000000  0.5516410000000  0.5095100000000 1.0
C      1  0.5417130000000  0.5283450000000  0.4401640000000 1.0
C      1  0.4582870000000  0.4716550000000  0.5598360000000 1.0
C      1  0.5150730000000  0.4564990000000  0.5164870000000 1.0
C      1  0.4849270000000  0.5435010000000  0.4835130000000 1.0
C      1  0.5365770000000  0.5625750000000  0.5377910000000 1.0
C      1  0.4634230000000  0.4374250000000  0.4622090000000 1.0
C      1  0.4961460000000  0.5424210000000  0.4328870000000 1.0
C      1  0.5038540000000  0.4575790000000  0.5671130000000 1.0
C      1  0.5527860000000  0.5221180000000  0.5093160000000 1.0
C      1  0.4472140000000  0.4778820000000  0.4906840000000 1.0
C      1  0.4484750000000  0.4471650000000  0.4882240000000 1.0
C      1  0.5515250000000  0.5528350000000  0.5117760000000 1.0
END
