TITL C-9258-7861-87 2.89519384604017e-06 125000 -361.640554767353 0 0 60 (C1) n - 1
REM
REM in /home/bkarasulu/CARBON/AIRSS/Generating-Clusters/EDIP-Nigel-Params/Higher-Symm/Box-15A/Only-C60/SD-CG/HFTN-CG
REM
REM
REM
REM
REM
REM ./C.cell (414f73aa93bd7a1190c7fd0f31ff2f98)
REM
REM compiler GCC version 9.2.1 20190827 (Red Hat 9.2.1-1)
REM options -cpp -mtune=generic -march=x86-64 -g -O0 -fpre-include=/usr/include/finclude/math-vector-fortran.h
REM seed 1582141806 1125705091 -1526546554 138879535 354750267 613806686 1441855225 22600002 1716264508 1400532001 -1520557920 37219167 -1191891114 602197639 -1058681296 1737664087 -1440066858 2035892589 -1421566811 -421867442 -167062553 447502864 -885868239 894266136 -189936863 41058212 -1529885101 210154652 -343310732 509155422 -358139181 -547005255 1144515727
REM
CELL 1.54180   50.00000   50.00000   50.00000   90.00000   90.00000   90.00000
LATT -1
SFAC C  
C      1  0.4602450000000  0.4486380000000  0.5452360000000 1.0
C      1  0.5413340000000  0.4518650000000  0.4549420000000 1.0
C      1  0.5138110000000  0.4517010000000  0.4443440000000 1.0
C      1  0.4874600000000  0.4490650000000  0.5565960000000 1.0
C      1  0.5664290000000  0.4625640000000  0.4973850000000 1.0
C      1  0.4345520000000  0.4625570000000  0.5035000000000 1.0
C      1  0.5365120000000  0.5198680000000  0.4732880000000 1.0
C      1  0.4634750000000  0.5210120000000  0.5269890000000 1.0
C      1  0.4734920000000  0.5398770000000  0.4785710000000 1.0
C      1  0.5264840000000  0.5397060000000  0.5211620000000 1.0
C      1  0.4505550000000  0.4729730000000  0.4788680000000 1.0
C      1  0.5489120000000  0.4731350000000  0.5206920000000 1.0
C      1  0.5701030000000  0.5267940000000  0.4541820000000 1.0
C      1  0.4298700000000  0.5275870000000  0.5459610000000 1.0
C      1  0.5118750000000  0.4999040000000  0.4675070000000 1.0
C      1  0.4877290000000  0.5008550000000  0.5328550000000 1.0
C      1  0.5516970000000  0.5369550000000  0.5350780000000 1.0
C      1  0.4483490000000  0.5370500000000  0.4645020000000 1.0
C      1  0.4845780000000  0.5120820000000  0.4754720000000 1.0
C      1  0.5150480000000  0.5121580000000  0.5247880000000 1.0
C      1  0.5300380000000  0.5426620000000  0.4913970000000 1.0
C      1  0.4698380000000  0.5434050000000  0.5083150000000 1.0
C      1  0.5146560000000  0.4984210000000  0.5759990000000 1.0
C      1  0.4851140000000  0.4987810000000  0.4237850000000 1.0
C      1  0.4565730000000  0.5342180000000  0.5541050000000 1.0
C      1  0.5433990000000  0.5327990000000  0.4459560000000 1.0
C      1  0.4553370000000  0.4459090000000  0.5172050000000 1.0
C      1  0.5469030000000  0.4449130000000  0.4822480000000 1.0
C      1  0.4901480000000  0.5623940000000  0.4672190000000 1.0
C      1  0.5101290000000  0.5626790000000  0.5321650000000 1.0
C      1  0.4236720000000  0.5052560000000  0.5314080000000 1.0
C      1  0.5767960000000  0.5051620000000  0.4694020000000 1.0
C      1  0.4401890000000  0.5141550000000  0.4522830000000 1.0
C      1  0.5596390000000  0.5140550000000  0.5473680000000 1.0
C      1  0.4970580000000  0.5618080000000  0.5584500000000 1.0
C      1  0.5031750000000  0.5607220000000  0.4409730000000 1.0
C      1  0.5790170000000  0.4814660000000  0.4814200000000 1.0
C      1  0.4218870000000  0.4813600000000  0.5195680000000 1.0
C      1  0.4700950000000  0.4500650000000  0.4736630000000 1.0
C      1  0.5302110000000  0.4484900000000  0.5265650000000 1.0
C      1  0.4764360000000  0.4701630000000  0.5732670000000 1.0
C      1  0.5242660000000  0.4713050000000  0.4259380000000 1.0
C      1  0.5322900000000  0.5598490000000  0.4457830000000 1.0
C      1  0.4678990000000  0.5611870000000  0.5537160000000 1.0
C      1  0.5121890000000  0.4611810000000  0.5455010000000 1.0
C      1  0.4879440000000  0.4621850000000  0.4544550000000 1.0
C      1  0.5107940000000  0.4753220000000  0.4934470000000 1.0
C      1  0.4848090000000  0.4776020000000  0.5101130000000 1.0
C      1  0.5217050000000  0.4459570000000  0.4979410000000 1.0
C      1  0.4779450000000  0.4414420000000  0.5000010000000 1.0
C      1  0.4885790000000  0.4951180000000  0.5643520000000 1.0
C      1  0.5111540000000  0.4953730000000  0.4357000000000 1.0
C      1  0.4449480000000  0.4862790000000  0.4511030000000 1.0
C      1  0.5547140000000  0.4862400000000  0.5483730000000 1.0
C      1  0.4798580000000  0.5664140000000  0.5240790000000 1.0
C      1  0.5204460000000  0.5656380000000  0.4752810000000 1.0
C      1  0.4678050000000  0.4939730000000  0.4924020000000 1.0
C      1  0.5300410000000  0.4931680000000  0.5074780000000 1.0
C      1  0.4704320000000  0.4783940000000  0.4368170000000 1.0
C      1  0.5293660000000  0.4781450000000  0.5628400000000 1.0
END
