TITL C-9262-5533-379 1.16383821745914e-06 125000 -367.067383689494 0 0 60 (C1) n - 1
REM
REM in /home/bkarasulu/CARBON/AIRSS/Generating-Clusters/EDIP-Nigel-Params/Higher-Symm/Box-15A/Only-C60/SD-CG/HFTN-CG
REM
REM
REM
REM
REM
REM ./C.cell (414f73aa93bd7a1190c7fd0f31ff2f98)
REM
REM compiler GCC version 9.2.1 20190827 (Red Hat 9.2.1-1)
REM options -cpp -mtune=generic -march=x86-64 -g -O0 -fpre-include=/usr/include/finclude/math-vector-fortran.h
REM seed -1870012516 -1421742629 974668079 1236001554 -454520 91304729 -1144464464 -1077441586 -425050144 -1954085381 1966910714 -1595791661 453415634 -1382286264 -1189912347 -464888663 -1763916277 533107510 1692460793 1525737049 -796292080 -1630454299 301072655 -1867734691 1371114240 -1911818106 1117798104 275528030 -418682161 1618920624 673995380 1460189759 -1930464017
REM
CELL 1.54180   50.00000   50.00000   50.00000   90.00000   90.00000   90.00000
LATT -1
SFAC C  
C      1  0.4428270000000  0.4676360000000  0.4777060000000 1.0
C      1  0.4429020000000  0.5527460000000  0.4781480000000 1.0
C      1  0.5288700000000  0.5697080000000  0.4773120000000 1.0
C      1  0.5710180000000  0.4930300000000  0.4788110000000 1.0
C      1  0.5149750000000  0.4251010000000  0.4777930000000 1.0
C      1  0.5585360000000  0.4655740000000  0.4782800000000 1.0
C      1  0.5522840000000  0.5508630000000  0.4757460000000 1.0
C      1  0.4688200000000  0.5684880000000  0.4792970000000 1.0
C      1  0.4281930000000  0.4942370000000  0.4793030000000 1.0
C      1  0.4858560000000  0.4266520000000  0.4773730000000 1.0
C      1  0.4852040000000  0.4443770000000  0.5514690000000 1.0
C      1  0.4593310000000  0.5008460000000  0.5471430000000 1.0
C      1  0.4861200000000  0.5469020000000  0.5548800000000 1.0
C      1  0.5343430000000  0.5277400000000  0.5444410000000 1.0
C      1  0.5276290000000  0.4683390000000  0.5369300000000 1.0
C      1  0.5159810000000  0.4438690000000  0.5514340000000 1.0
C      1  0.5443000000000  0.5010370000000  0.5486710000000 1.0
C      1  0.5147740000000  0.5472110000000  0.5555260000000 1.0
C      1  0.4685930000000  0.5272640000000  0.5414990000000 1.0
C      1  0.4746080000000  0.4690700000000  0.5369670000000 1.0
C      1  0.5588190000000  0.5058970000000  0.5026720000000 1.0
C      1  0.5266150000000  0.4347620000000  0.5038330000000 1.0
C      1  0.4447720000000  0.4486860000000  0.5020960000000 1.0
C      1  0.4357880000000  0.5381490000000  0.5042630000000 1.0
C      1  0.5143020000000  0.5659990000000  0.5033680000000 1.0
C      1  0.4426970000000  0.5087860000000  0.5006010000000 1.0
C      1  0.4743080000000  0.4365540000000  0.5033190000000 1.0
C      1  0.5566680000000  0.4471830000000  0.5032080000000 1.0
C      1  0.5596370000000  0.5365950000000  0.5023960000000 1.0
C      1  0.4836550000000  0.5593610000000  0.5039050000000 1.0
C      1  0.5301290000000  0.5037850000000  0.4978620000000 1.0
C      1  0.5152220000000  0.4628690000000  0.5082230000000 1.0
C      1  0.4794940000000  0.4818920000000  0.4825310000000 1.0
C      1  0.4776780000000  0.5296640000000  0.4534810000000 1.0
C      1  0.5170800000000  0.5295790000000  0.4907650000000 1.0
C      1  0.4711210000000  0.5111860000000  0.4869480000000 1.0
C      1  0.4859900000000  0.4646120000000  0.5079010000000 1.0
C      1  0.5222870000000  0.4792160000000  0.4840890000000 1.0
C      1  0.5161850000000  0.5309960000000  0.4600200000000 1.0
C      1  0.4894770000000  0.5291300000000  0.5025060000000 1.0
C      1  0.4835080000000  0.5596430000000  0.4547790000000 1.0
C      1  0.5474680000000  0.5310640000000  0.4530380000000 1.0
C      1  0.5351090000000  0.4633520000000  0.4594590000000 1.0
C      1  0.4762260000000  0.4404550000000  0.4550410000000 1.0
C      1  0.4299780000000  0.5098960000000  0.4563710000000 1.0
C      1  0.5117800000000  0.5679060000000  0.4533980000000 1.0
C      1  0.4473460000000  0.5321300000000  0.4564570000000 1.0
C      1  0.4668560000000  0.4664050000000  0.4590160000000 1.0
C      1  0.5263410000000  0.4372200000000  0.4553050000000 1.0
C      1  0.5641100000000  0.5085410000000  0.4564360000000 1.0
C      1  0.5498340000000  0.5471120000000  0.5285940000000 1.0
C      1  0.5575950000000  0.4623270000000  0.5293240000000 1.0
C      1  0.4846200000000  0.4226060000000  0.5291000000000 1.0
C      1  0.4392730000000  0.4934540000000  0.5271250000000 1.0
C      1  0.4697220000000  0.5693160000000  0.5287730000000 1.0
C      1  0.4495280000000  0.5472410000000  0.5299900000000 1.0
C      1  0.4439090000000  0.4637130000000  0.5280340000000 1.0
C      1  0.5155930000000  0.4215610000000  0.5294010000000 1.0
C      1  0.5641820000000  0.4917900000000  0.5293400000000 1.0
C      1  0.5299340000000  0.5686790000000  0.5283020000000 1.0
END
