TITL C-9265-7156-23 1.41813722303476e-06 125000 -361.266368779799 0 0 60 (C1) n - 1
REM
REM in /home/bkarasulu/CARBON/AIRSS/Generating-Clusters/EDIP-Nigel-Params/Higher-Symm/Box-15A/Only-C60/SD-CG/HFTN-CG
REM
REM
REM
REM
REM
REM ./C.cell (414f73aa93bd7a1190c7fd0f31ff2f98)
REM
REM compiler GCC version 9.2.1 20190827 (Red Hat 9.2.1-1)
REM options -cpp -mtune=generic -march=x86-64 -g -O0 -fpre-include=/usr/include/finclude/math-vector-fortran.h
REM seed -1222458822 -1053072292 1299198300 -573992986 -507053694 -1355881671 -1974090211 388966211 -1993790848 -753006814 -833569283 -627748666 -1454565080 278039399 -559911599 902720566 1202831067 1872469037 2082027209 -2066999919 1023846867 580889326 -559561793 -779328016 1117355931 -1341597798 -762097602 -989264548 -1849116198 -954012232 -2041215945 -1370483209 1560627737
REM
CELL 1.54180   50.00000   50.00000   50.00000   90.00000   90.00000   90.00000
LATT -1
SFAC C  
C      1  0.5427710000000  0.4993470000000  0.5302350000000 1.0
C      1  0.5427460000000  0.5146090000000  0.5035100000000 1.0
C      1  0.5433130000000  0.4981010000000  0.4786570000000 1.0
C      1  0.5446160000000  0.4689670000000  0.4867100000000 1.0
C      1  0.4422650000000  0.4897700000000  0.4735720000000 1.0
C      1  0.4483070000000  0.5195290000000  0.4800650000000 1.0
C      1  0.4591990000000  0.5070610000000  0.5152000000000 1.0
C      1  0.4499900000000  0.4804460000000  0.5014580000000 1.0
C      1  0.5236110000000  0.4693710000000  0.5598560000000 1.0
C      1  0.5214970000000  0.5663220000000  0.5289430000000 1.0
C      1  0.5354460000000  0.5196990000000  0.4404060000000 1.0
C      1  0.5220020000000  0.4309060000000  0.4738490000000 1.0
C      1  0.4746020000000  0.4832290000000  0.4363050000000 1.0
C      1  0.4727330000000  0.5612640000000  0.4758810000000 1.0
C      1  0.4770250000000  0.5197770000000  0.5631530000000 1.0
C      1  0.4710770000000  0.4369940000000  0.5269710000000 1.0
C      1  0.5836480000000  0.5232490000000  0.5261910000000 1.0
C      1  0.5816790000000  0.5268970000000  0.4786040000000 1.0
C      1  0.5877650000000  0.4799720000000  0.4733200000000 1.0
C      1  0.5813130000000  0.4764040000000  0.5196220000000 1.0
C      1  0.4025960000000  0.5135480000000  0.4755580000000 1.0
C      1  0.4206090000000  0.5328510000000  0.5149100000000 1.0
C      1  0.4190660000000  0.4901180000000  0.5346220000000 1.0
C      1  0.4042410000000  0.4697090000000  0.4938390000000 1.0
C      1  0.4856560000000  0.4939600000000  0.5697820000000 1.0
C      1  0.4833170000000  0.5654990000000  0.5014740000000 1.0
C      1  0.4910870000000  0.5050210000000  0.4308370000000 1.0
C      1  0.4816270000000  0.4373460000000  0.5012140000000 1.0
C      1  0.5207110000000  0.4964200000000  0.4313380000000 1.0
C      1  0.5111600000000  0.5757510000000  0.5039940000000 1.0
C      1  0.5149140000000  0.4953920000000  0.5681950000000 1.0
C      1  0.5113530000000  0.4354250000000  0.4998620000000 1.0
C      1  0.5175580000000  0.5388990000000  0.4526710000000 1.0
C      1  0.5342570000000  0.4539790000000  0.4627400000000 1.0
C      1  0.5341960000000  0.4708000000000  0.5335450000000 1.0
C      1  0.5223580000000  0.5429020000000  0.5440370000000 1.0
C      1  0.4797090000000  0.5359600000000  0.5414590000000 1.0
C      1  0.4638530000000  0.4534780000000  0.5470150000000 1.0
C      1  0.4622230000000  0.4717210000000  0.4583150000000 1.0
C      1  0.4683640000000  0.5357890000000  0.4652270000000 1.0
C      1  0.5728650000000  0.4987800000000  0.5347410000000 1.0
C      1  0.5686220000000  0.5297260000000  0.5032920000000 1.0
C      1  0.5717820000000  0.5027140000000  0.4682790000000 1.0
C      1  0.5742200000000  0.4666540000000  0.4941160000000 1.0
C      1  0.4123680000000  0.4870950000000  0.4734260000000 1.0
C      1  0.4216870000000  0.5310280000000  0.4868720000000 1.0
C      1  0.4340300000000  0.5137540000000  0.5307310000000 1.0
C      1  0.4239240000000  0.4719110000000  0.5136790000000 1.0
C      1  0.5147030000000  0.4751410000000  0.4533080000000 1.0
C      1  0.5220030000000  0.4631330000000  0.5073120000000 1.0
C      1  0.5181160000000  0.5134500000000  0.5435500000000 1.0
C      1  0.5241330000000  0.5508250000000  0.4786840000000 1.0
C      1  0.4816500000000  0.4754400000000  0.5466630000000 1.0
C      1  0.4757320000000  0.4644800000000  0.4893380000000 1.0
C      1  0.4935170000000  0.5212550000000  0.4567550000000 1.0
C      1  0.4893490000000  0.5391250000000  0.5145410000000 1.0
C      1  0.5186110000000  0.5325710000000  0.5011900000000 1.0
C      1  0.5087130000000  0.4978380000000  0.4752220000000 1.0
C      1  0.4986300000000  0.4818920000000  0.4997450000000 1.0
C      1  0.4882180000000  0.4967050000000  0.5254110000000 1.0
END
