TITL C-9262-5533-90 -7.66757707168868e-08 125000 -356.241586002518 0 0 60 (C3) n - 1
REM
REM in /home/bkarasulu/CARBON/AIRSS/Generating-Clusters/EDIP-Nigel-Params/Higher-Symm/Box-15A/Only-C60/SD-CG/HFTN-CG
REM
REM
REM
REM
REM
REM ./C.cell (414f73aa93bd7a1190c7fd0f31ff2f98)
REM
REM compiler GCC version 9.2.1 20190827 (Red Hat 9.2.1-1)
REM options -cpp -mtune=generic -march=x86-64 -g -O0 -fpre-include=/usr/include/finclude/math-vector-fortran.h
REM seed 123885282 527486848 1690003204 772929672 741788678 -1687918737 -555292792 585806440 -1128325536 121548302 -2071830973 -1372716786 1324681226 1795444782 -63508222 598262011 1498254057 1064264315 -924280664 -107460225 297596289 -1529571323 1768923798 -765763535 -522139454 1900583806 636903157 -91091263 1096170694 -1137508098 1511704386 291213346 1311451075
REM
CELL 1.54180   50.00000   50.00000   50.00000   90.00000   90.00000   90.00000
LATT -1
SFAC C  
C      1  0.5178920000000  0.4863350000000  0.4399390000000 1.0
C      1  0.5028950000000  0.5223170000000  0.4399350000000 1.0
C      1  0.4792330000000  0.4913390000000  0.4399340000000 1.0
C      1  0.4655880000000  0.5508270000000  0.5325840000000 1.0
C      1  0.4731840000000  0.4447900000000  0.5325910000000 1.0
C      1  0.5612170000000  0.5043880000000  0.5325980000000 1.0
C      1  0.5569250000000  0.4649860000000  0.4959520000000 1.0
C      1  0.5018610000000  0.5668050000000  0.4959410000000 1.0
C      1  0.4412160000000  0.4682080000000  0.4959390000000 1.0
C      1  0.4872750000000  0.5570850000000  0.4729390000000 1.0
C      1  0.4569290000000  0.4604330000000  0.4729400000000 1.0
C      1  0.5558060000000  0.4824780000000  0.4729510000000 1.0
C      1  0.5014310000000  0.4476880000000  0.5248210000000 1.0
C      1  0.5445840000000  0.5274000000000  0.5248220000000 1.0
C      1  0.4539760000000  0.5249160000000  0.5248120000000 1.0
C      1  0.4388040000000  0.5542990000000  0.4892580000000 1.0
C      1  0.4835750000000  0.4198510000000  0.4892700000000 1.0
C      1  0.5776250000000  0.5258480000000  0.4892760000000 1.0
C      1  0.5479230000000  0.4806340000000  0.5425530000000 1.0
C      1  0.4928040000000  0.5511930000000  0.5425430000000 1.0
C      1  0.4592580000000  0.4681790000000  0.5425430000000 1.0
C      1  0.5185450000000  0.4579120000000  0.4366120000000 1.0
C      1  0.5271860000000  0.5370930000000  0.4366090000000 1.0
C      1  0.4542920000000  0.5049860000000  0.4366020000000 1.0
C      1  0.5738500000000  0.5036250000000  0.4746530000000 1.0
C      1  0.4599390000000  0.5621390000000  0.4746370000000 1.0
C      1  0.4662200000000  0.4342320000000  0.4746440000000 1.0
C      1  0.5279300000000  0.4866690000000  0.5642950000000 1.0
C      1  0.4975710000000  0.5308650000000  0.5642890000000 1.0
C      1  0.4744760000000  0.4824750000000  0.5642890000000 1.0
C      1  0.5605160000000  0.5432220000000  0.5030970000000 1.0
C      1  0.4323100000000  0.5307980000000  0.5030830000000 1.0
C      1  0.5071730000000  0.4259800000000  0.5030970000000 1.0
C      1  0.4189840000000  0.4845800000000  0.4918880000000 1.0
C      1  0.5538640000000  0.4375460000000  0.4919060000000 1.0
C      1  0.5271560000000  0.5778730000000  0.4918960000000 1.0
C      1  0.5339650000000  0.5374020000000  0.5510120000000 1.0
C      1  0.4506200000000  0.5107220000000  0.5510030000000 1.0
C      1  0.5153980000000  0.4518840000000  0.5510140000000 1.0
C      1  0.4786510000000  0.4813560000000  0.4688420000000 1.0
C      1  0.5268250000000  0.4908270000000  0.4688480000000 1.0
C      1  0.4945350000000  0.5278120000000  0.4688420000000 1.0
C      1  0.5244550000000  0.5170800000000  0.5692430000000 1.0
C      1  0.4729720000000  0.5126500000000  0.5692370000000 1.0
C      1  0.5025490000000  0.4702800000000  0.5692430000000 1.0
C      1  0.5205110000000  0.4388810000000  0.4559250000000 1.0
C      1  0.5426810000000  0.5483150000000  0.4559220000000 1.0
C      1  0.4368230000000  0.5127970000000  0.4559110000000 1.0
C      1  0.5056200000000  0.4722390000000  0.4802520000000 1.0
C      1  0.5212340000000  0.5187440000000  0.4802520000000 1.0
C      1  0.4731530000000  0.5090140000000  0.4802470000000 1.0
C      1  0.4978940000000  0.5420950000000  0.5132850000000 1.0
C      1  0.4645950000000  0.4771310000000  0.5132850000000 1.0
C      1  0.5375060000000  0.4807760000000  0.5132930000000 1.0
C      1  0.5195920000000  0.5197280000000  0.5098320000000 1.0
C      1  0.4731170000000  0.5071050000000  0.5098270000000 1.0
C      1  0.5072870000000  0.4731680000000  0.5098330000000 1.0
C      1  0.4288990000000  0.5090770000000  0.4830300000000 1.0
C      1  0.5276920000000  0.4338830000000  0.4830450000000 1.0
C      1  0.5434160000000  0.5570370000000  0.4830410000000 1.0
END
