TITL C-9263-351-190 -3.09061366653622e-05 125000 -365.610517526521 0 0 60 (C1) n - 1
REM
REM in /home/bkarasulu/CARBON/AIRSS/Generating-Clusters/EDIP-Nigel-Params/Higher-Symm/Box-15A/Only-C60/SD-CG/HFTN-CG
REM
REM
REM
REM
REM
REM ./C.cell (414f73aa93bd7a1190c7fd0f31ff2f98)
REM
REM compiler GCC version 9.2.1 20190827 (Red Hat 9.2.1-1)
REM options -cpp -mtune=generic -march=x86-64 -g -O0 -fpre-include=/usr/include/finclude/math-vector-fortran.h
REM seed 1491948091 -468637308 796873791 -1795084810 372421811 -1830315806 1231702934 -1727598606 368695716 1779253830 971765800 1825136658 935811734 1769503721 918365687 89827019 93505552 1942463698 -1021726617 -2118961333 1294262745 1870507635 611190374 -402186933 500532839 875773752 -1298137175 1070497023 1762357237 -1483681247 2082192943 491444291 -860203215
REM
CELL 1.54180   50.00000   50.00000   50.00000   90.00000   90.00000   90.00000
LATT -1
SFAC C  
C      1  0.5501660000000  0.4839760000000  0.4547940000000 1.0
C      1  0.5493080000000  0.5362510000000  0.5105990000000 1.0
C      1  0.5416380000000  0.4691980000000  0.5266330000000 1.0
C      1  0.5355920000000  0.5242270000000  0.4847360000000 1.0
C      1  0.5324540000000  0.4970700000000  0.5347890000000 1.0
C      1  0.5401290000000  0.4652680000000  0.4768520000000 1.0
C      1  0.4937280000000  0.5338870000000  0.5606710000000 1.0
C      1  0.4990650000000  0.4341990000000  0.4998660000000 1.0
C      1  0.4946790000000  0.5397250000000  0.4377980000000 1.0
C      1  0.5196250000000  0.5676070000000  0.5363340000000 1.0
C      1  0.5225060000000  0.4327900000000  0.5428160000000 1.0
C      1  0.5161070000000  0.4996660000000  0.4212780000000 1.0
C      1  0.4830900000000  0.4623690000000  0.5356260000000 1.0
C      1  0.4776990000000  0.4939180000000  0.4522100000000 1.0
C      1  0.4809550000000  0.5474240000000  0.5134470000000 1.0
C      1  0.4716810000000  0.4928930000000  0.5748340000000 1.0
C      1  0.4796820000000  0.4439860000000  0.4568000000000 1.0
C      1  0.4760800000000  0.5706440000000  0.4698230000000 1.0
C      1  0.4800730000000  0.5164850000000  0.5125350000000 1.0
C      1  0.4800520000000  0.4765330000000  0.5053340000000 1.0
C      1  0.4708520000000  0.5055000000000  0.4824120000000 1.0
C      1  0.4505690000000  0.4906160000000  0.4416540000000 1.0
C      1  0.4529340000000  0.5552600000000  0.5146100000000 1.0
C      1  0.4566250000000  0.4524780000000  0.5422830000000 1.0
C      1  0.5574360000000  0.5105520000000  0.4661910000000 1.0
C      1  0.5554850000000  0.5170670000000  0.5323770000000 1.0
C      1  0.5570240000000  0.4699270000000  0.5017150000000 1.0
C      1  0.4953570000000  0.5545440000000  0.5393720000000 1.0
C      1  0.4991610000000  0.4380330000000  0.5287480000000 1.0
C      1  0.4937400000000  0.5110890000000  0.4329800000000 1.0
C      1  0.5803880000000  0.5043600000000  0.5274390000000 1.0
C      1  0.5762860000000  0.4924250000000  0.5021010000000 1.0
C      1  0.5823440000000  0.5071430000000  0.4788720000000 1.0
C      1  0.4416410000000  0.4599320000000  0.5199330000000 1.0
C      1  0.4377550000000  0.5130980000000  0.4537210000000 1.0
C      1  0.4407430000000  0.5324790000000  0.5256320000000 1.0
C      1  0.4297420000000  0.4849350000000  0.5213020000000 1.0
C      1  0.4321230000000  0.5111140000000  0.4816140000000 1.0
C      1  0.4363810000000  0.5091230000000  0.5096180000000 1.0
C      1  0.4922160000000  0.4815350000000  0.5590180000000 1.0
C      1  0.4932670000000  0.4687220000000  0.4573220000000 1.0
C      1  0.4942080000000  0.5576000000000  0.4872000000000 1.0
C      1  0.4691970000000  0.5190460000000  0.5649250000000 1.0
C      1  0.4748460000000  0.4385680000000  0.4839390000000 1.0
C      1  0.4711260000000  0.5515440000000  0.4497770000000 1.0
C      1  0.5125400000000  0.5034710000000  0.4895350000000 1.0
C      1  0.5094200000000  0.5066490000000  0.5180070000000 1.0
C      1  0.5099520000000  0.4731480000000  0.4823160000000 1.0
C      1  0.4461620000000  0.5275830000000  0.5522380000000 1.0
C      1  0.4517300000000  0.4524870000000  0.4942040000000 1.0
C      1  0.4468980000000  0.5382990000000  0.4462550000000 1.0
C      1  0.5403090000000  0.4369170000000  0.4705090000000 1.0
C      1  0.5194070000000  0.5477230000000  0.4735760000000 1.0
C      1  0.5179970000000  0.4967600000000  0.5606390000000 1.0
C      1  0.5450670000000  0.4473140000000  0.5442450000000 1.0
C      1  0.5367580000000  0.4856310000000  0.4305370000000 1.0
C      1  0.5399760000000  0.5606070000000  0.5205190000000 1.0
C      1  0.5166070000000  0.5224400000000  0.5728730000000 1.0
C      1  0.5218610000000  0.4251350000000  0.4865160000000 1.0
C      1  0.5195620000000  0.5510310000000  0.4455010000000 1.0
END
