TITL C-9266-5713-104 -1.61555779811974e-05 125000 -374.670829788984 0 0 60 (C1) n - 1
REM
REM in /home/bkarasulu/CARBON/AIRSS/Generating-Clusters/EDIP-Nigel-Params/Higher-Symm/Box-15A/Only-C60/SD-CG/HFTN-CG
REM
REM
REM
REM
REM
REM ./C.cell (414f73aa93bd7a1190c7fd0f31ff2f98)
REM
REM compiler GCC version 9.2.1 20190827 (Red Hat 9.2.1-1)
REM options -cpp -mtune=generic -march=x86-64 -g -O0 -fpre-include=/usr/include/finclude/math-vector-fortran.h
REM seed -371607512 707551638 -566411734 -54285080 391087100 2054721862 2048420425 -1670095957 -761223257 -637450506 -964653534 -153727053 1215769990 -1223272984 1969327374 2049086803 1013341103 -1533513587 1701951536 -30439319 1694973207 1484136477 -1426928931 -520155710 1121410153 -894548591 1760598507 -88758441 -1184491333 139793000 864416758 -1470252951 -2131407132
REM
CELL 1.54180   50.00000   50.00000   50.00000   90.00000   90.00000   90.00000
LATT -1
SFAC C  
C      1  0.4923190000000  0.5570930000000  0.5514130000000 1.0
C      1  0.4468910000000  0.5222080000000  0.5509920000000 1.0
C      1  0.4540000000000  0.4652470000000  0.5517810000000 1.0
C      1  0.5072860000000  0.4435740000000  0.5496530000000 1.0
C      1  0.5529680000000  0.4782460000000  0.5511110000000 1.0
C      1  0.5453920000000  0.5351160000000  0.5509220000000 1.0
C      1  0.4950880000000  0.5570480000000  0.4488410000000 1.0
C      1  0.4482190000000  0.5242370000000  0.4495880000000 1.0
C      1  0.4529650000000  0.4670290000000  0.4490350000000 1.0
C      1  0.5047820000000  0.4425420000000  0.4488220000000 1.0
C      1  0.5521070000000  0.4750750000000  0.4480940000000 1.0
C      1  0.5469660000000  0.5323470000000  0.4499330000000 1.0
C      1  0.4581180000000  0.4408530000000  0.4580510000000 1.0
C      1  0.5299950000000  0.4335590000000  0.4576120000000 1.0
C      1  0.5715870000000  0.4930130000000  0.4579160000000 1.0
C      1  0.5422650000000  0.5588670000000  0.4583250000000 1.0
C      1  0.4698770000000  0.5657130000000  0.4579240000000 1.0
C      1  0.4278430000000  0.5069510000000  0.4585600000000 1.0
C      1  0.4610150000000  0.4397280000000  0.5419340000000 1.0
C      1  0.5329600000000  0.4356310000000  0.5410860000000 1.0
C      1  0.5722860000000  0.4967740000000  0.5423490000000 1.0
C      1  0.5393170000000  0.5611340000000  0.5419710000000 1.0
C      1  0.4667560000000  0.5644850000000  0.5422080000000 1.0
C      1  0.4273620000000  0.5039790000000  0.5420570000000 1.0
C      1  0.5576880000000  0.5176060000000  0.5307200000000 1.0
C      1  0.5136300000000  0.5589500000000  0.5309850000000 1.0
C      1  0.4560340000000  0.5413980000000  0.5306530000000 1.0
C      1  0.4420650000000  0.4827370000000  0.5311950000000 1.0
C      1  0.4860580000000  0.4404860000000  0.5294770000000 1.0
C      1  0.5442100000000  0.4589630000000  0.5304390000000 1.0
C      1  0.5595070000000  0.5150490000000  0.4702150000000 1.0
C      1  0.5165000000000  0.5581550000000  0.4692790000000 1.0
C      1  0.4580180000000  0.5433150000000  0.4697090000000 1.0
C      1  0.4415580000000  0.4850980000000  0.4694920000000 1.0
C      1  0.4836960000000  0.4418620000000  0.4693060000000 1.0
C      1  0.5420790000000  0.4563360000000  0.4686070000000 1.0
C      1  0.5316770000000  0.5091170000000  0.5157830000000 1.0
C      1  0.5075390000000  0.5310280000000  0.5188680000000 1.0
C      1  0.4763570000000  0.5229590000000  0.5158380000000 1.0
C      1  0.4693960000000  0.4910980000000  0.5191140000000 1.0
C      1  0.4919110000000  0.4678270000000  0.5152620000000 1.0
C      1  0.5230070000000  0.4780080000000  0.5183960000000 1.0
C      1  0.5325280000000  0.5077320000000  0.4844100000000 1.0
C      1  0.5094250000000  0.5305270000000  0.4813550000000 1.0
C      1  0.4775390000000  0.5239550000000  0.4844400000000 1.0
C      1  0.4691630000000  0.4925750000000  0.4815170000000 1.0
C      1  0.4908240000000  0.4683650000000  0.4840380000000 1.0
C      1  0.5220830000000  0.4767450000000  0.4807730000000 1.0
C      1  0.4955950000000  0.5291590000000  0.5613680000000 1.0
C      1  0.4729640000000  0.5108460000000  0.5586370000000 1.0
C      1  0.4768210000000  0.4819480000000  0.5616600000000 1.0
C      1  0.5040640000000  0.4716770000000  0.5580150000000 1.0
C      1  0.5270950000000  0.4893920000000  0.5609120000000 1.0
C      1  0.5225700000000  0.5181450000000  0.5585190000000 1.0
C      1  0.4970430000000  0.5289280000000  0.4389670000000 1.0
C      1  0.4736530000000  0.5116770000000  0.4417400000000 1.0
C      1  0.4762320000000  0.4827010000000  0.4390270000000 1.0
C      1  0.5028990000000  0.4709350000000  0.4412080000000 1.0
C      1  0.5267830000000  0.4876520000000  0.4382600000000 1.0
C      1  0.5234250000000  0.5165980000000  0.4416360000000 1.0
END
