TITL C-9269-7444-194 5.03655370183133e-06 125000 -370.375339866002 0 0 60 (C1) n - 1
REM
REM in /home/bkarasulu/CARBON/AIRSS/Generating-Clusters/EDIP-Nigel-Params/Higher-Symm/Box-15A/Only-C60/SD-CG/HFTN-CG
REM
REM
REM
REM
REM
REM ./C.cell (414f73aa93bd7a1190c7fd0f31ff2f98)
REM
REM compiler GCC version 9.2.1 20190827 (Red Hat 9.2.1-1)
REM options -cpp -mtune=generic -march=x86-64 -g -O0 -fpre-include=/usr/include/finclude/math-vector-fortran.h
REM seed 190774949 363637641 1851491442 1708009215 -857189376 382955736 988402405 1289510253 1140607655 -1766322147 -582748991 -794616415 848777248 955816993 683201876 -1673688563 -1987951634 -116013436 388296331 531165681 -1092212030 1035937281 2031528047 -1549971283 1596440342 731871158 398654650 1075893075 -1132218708 -1359662586 20189560 987437593 1887902138
REM
CELL 1.54180   50.00000   50.00000   50.00000   90.00000   90.00000   90.00000
LATT -1
SFAC C  
C      1  0.5087980000000  0.5393330000000  0.4484400000000 1.0
C      1  0.4924810000000  0.4627470000000  0.5462460000000 1.0
C      1  0.5595580000000  0.5430970000000  0.5047090000000 1.0
C      1  0.4363730000000  0.4579460000000  0.5008570000000 1.0
C      1  0.4852990000000  0.5582540000000  0.4493550000000 1.0
C      1  0.5141110000000  0.4408270000000  0.5485230000000 1.0
C      1  0.4607760000000  0.5408880000000  0.4469560000000 1.0
C      1  0.5386560000000  0.4574190000000  0.5525940000000 1.0
C      1  0.4954990000000  0.4159170000000  0.5118040000000 1.0
C      1  0.5047090000000  0.5862560000000  0.4838160000000 1.0
C      1  0.4676030000000  0.5539930000000  0.4942160000000 1.0
C      1  0.5337370000000  0.4455730000000  0.5048710000000 1.0
C      1  0.5723760000000  0.4997290000000  0.5422830000000 1.0
C      1  0.4271880000000  0.5000240000000  0.4592500000000 1.0
C      1  0.4647740000000  0.4656400000000  0.4497690000000 1.0
C      1  0.5386150000000  0.5319850000000  0.5570110000000 1.0
C      1  0.5017540000000  0.5565140000000  0.5351290000000 1.0
C      1  0.5001590000000  0.4425010000000  0.4626140000000 1.0
C      1  0.5078030000000  0.5263660000000  0.4953830000000 1.0
C      1  0.4918980000000  0.4705020000000  0.5026970000000 1.0
C      1  0.4874430000000  0.5394290000000  0.5138500000000 1.0
C      1  0.5138320000000  0.4590590000000  0.4847930000000 1.0
C      1  0.4978190000000  0.5061060000000  0.4749680000000 1.0
C      1  0.5015570000000  0.4915570000000  0.5220040000000 1.0
C      1  0.5428410000000  0.5568510000000  0.4864860000000 1.0
C      1  0.4540640000000  0.4432490000000  0.5170290000000 1.0
C      1  0.5449480000000  0.4642610000000  0.5247830000000 1.0
C      1  0.4550200000000  0.5352720000000  0.4752290000000 1.0
C      1  0.5263200000000  0.5777720000000  0.4986210000000 1.0
C      1  0.4742160000000  0.4298250000000  0.5004520000000 1.0
C      1  0.4980270000000  0.5127960000000  0.4365440000000 1.0
C      1  0.5015170000000  0.4867230000000  0.5649760000000 1.0
C      1  0.5508200000000  0.5057380000000  0.5620830000000 1.0
C      1  0.4500360000000  0.4920790000000  0.4411750000000 1.0
C      1  0.5213060000000  0.5746590000000  0.5260030000000 1.0
C      1  0.4739620000000  0.4348040000000  0.4719260000000 1.0
C      1  0.4753830000000  0.4878070000000  0.4866170000000 1.0
C      1  0.5251900000000  0.5078290000000  0.5097010000000 1.0
C      1  0.4322700000000  0.5186920000000  0.4815310000000 1.0
C      1  0.5672970000000  0.4819020000000  0.5196990000000 1.0
C      1  0.5315710000000  0.4827100000000  0.5675970000000 1.0
C      1  0.4678080000000  0.5152180000000  0.4328890000000 1.0
C      1  0.5490550000000  0.5219300000000  0.5213680000000 1.0
C      1  0.4473000000000  0.4773440000000  0.4825830000000 1.0
C      1  0.4623440000000  0.4573410000000  0.5421430000000 1.0
C      1  0.5364890000000  0.5430250000000  0.4603940000000 1.0
C      1  0.4815710000000  0.5731940000000  0.4751580000000 1.0
C      1  0.5190260000000  0.4262140000000  0.5227440000000 1.0
C      1  0.5515330000000  0.4957770000000  0.4703040000000 1.0
C      1  0.4495480000000  0.5047180000000  0.5304970000000 1.0
C      1  0.5229250000000  0.4850330000000  0.4695050000000 1.0
C      1  0.4786960000000  0.5135640000000  0.5298190000000 1.0
C      1  0.4935940000000  0.4610910000000  0.4401450000000 1.0
C      1  0.5100960000000  0.5382230000000  0.5575100000000 1.0
C      1  0.5529160000000  0.5204510000000  0.4574190000000 1.0
C      1  0.4467180000000  0.4806290000000  0.5443040000000 1.0
C      1  0.4909620000000  0.5148260000000  0.5578320000000 1.0
C      1  0.5121560000000  0.4845680000000  0.4407710000000 1.0
C      1  0.4328620000000  0.5094880000000  0.5082750000000 1.0
C      1  0.5667950000000  0.4927380000000  0.4937490000000 1.0
END
