TITL C-9261-551-250 -2.1385731601217e-06 125000 -359.826152118257 0 0 60 (C1) n - 1
REM
REM in /home/bkarasulu/CARBON/AIRSS/Generating-Clusters/EDIP-Nigel-Params/Higher-Symm/Box-15A/Only-C60/SD-CG/HFTN-CG
REM
REM
REM
REM
REM
REM ./C.cell (414f73aa93bd7a1190c7fd0f31ff2f98)
REM
REM compiler GCC version 9.2.1 20190827 (Red Hat 9.2.1-1)
REM options -cpp -mtune=generic -march=x86-64 -g -O0 -fpre-include=/usr/include/finclude/math-vector-fortran.h
REM seed -1666499710 -1176091145 1888569991 1254324315 -1213112553 -512139552 2069934083 -1867101283 -2032004212 1161519209 -387108630 1791925868 558485859 -983902619 860860859 -1269880347 271803095 -1757094685 -1121870590 -1287960777 -15809466 -1101232399 1920433879 1665792186 -2086550533 -1560030963 -462596705 1653295021 -428066536 -997286852 1711114287 1426726723 2017102239
REM
CELL 1.54180   50.00000   50.00000   50.00000   90.00000   90.00000   90.00000
LATT -1
SFAC C  
C      1  0.5267740000000  0.4981790000000  0.4439070000000 1.0
C      1  0.5285220000000  0.5477800000000  0.5267180000000 1.0
C      1  0.5270730000000  0.4509810000000  0.5288800000000 1.0
C      1  0.4717020000000  0.4982900000000  0.4442620000000 1.0
C      1  0.4732940000000  0.5490620000000  0.5268030000000 1.0
C      1  0.4708040000000  0.4523120000000  0.5297710000000 1.0
C      1  0.4422660000000  0.5017260000000  0.4548070000000 1.0
C      1  0.4435030000000  0.5399670000000  0.5226040000000 1.0
C      1  0.4416250000000  0.4624500000000  0.5213090000000 1.0
C      1  0.5563090000000  0.5000280000000  0.4540030000000 1.0
C      1  0.5579170000000  0.5374120000000  0.5221240000000 1.0
C      1  0.5564730000000  0.4599650000000  0.5197420000000 1.0
C      1  0.4863410000000  0.5718140000000  0.5129350000000 1.0
C      1  0.4842250000000  0.4530740000000  0.5564040000000 1.0
C      1  0.4842070000000  0.4747300000000  0.4311250000000 1.0
C      1  0.5163290000000  0.5709980000000  0.5128320000000 1.0
C      1  0.5143830000000  0.4520050000000  0.5558980000000 1.0
C      1  0.5141760000000  0.4744950000000  0.4313600000000 1.0
C      1  0.5640440000000  0.5463010000000  0.4943320000000 1.0
C      1  0.5626070000000  0.4802420000000  0.5401550000000 1.0
C      1  0.5627220000000  0.4715640000000  0.4609860000000 1.0
C      1  0.4376100000000  0.5493000000000  0.4950120000000 1.0
C      1  0.4367820000000  0.4831870000000  0.5416090000000 1.0
C      1  0.4354210000000  0.4736010000000  0.4617830000000 1.0
C      1  0.5548620000000  0.4784060000000  0.4921570000000 1.0
C      1  0.5556500000000  0.5160480000000  0.4830890000000 1.0
C      1  0.5617030000000  0.5069580000000  0.5250990000000 1.0
C      1  0.4434080000000  0.4804460000000  0.4932730000000 1.0
C      1  0.4439820000000  0.5179540000000  0.4837040000000 1.0
C      1  0.4383930000000  0.5096390000000  0.5259140000000 1.0
C      1  0.4899810000000  0.5116380000000  0.5786070000000 1.0
C      1  0.4873260000000  0.4270720000000  0.4739120000000 1.0
C      1  0.4894210000000  0.5582810000000  0.4480510000000 1.0
C      1  0.5162770000000  0.5126680000000  0.5819560000000 1.0
C      1  0.5138290000000  0.4242960000000  0.4751630000000 1.0
C      1  0.5161660000000  0.5574420000000  0.4465180000000 1.0
C      1  0.4564640000000  0.4566870000000  0.4493250000000 1.0
C      1  0.4594020000000  0.5677150000000  0.4866520000000 1.0
C      1  0.4577080000000  0.4790230000000  0.5627730000000 1.0
C      1  0.5421800000000  0.4546890000000  0.4480960000000 1.0
C      1  0.5438650000000  0.5665140000000  0.4868060000000 1.0
C      1  0.5424580000000  0.4763580000000  0.5619830000000 1.0
C      1  0.4842000000000  0.4750990000000  0.5158220000000 1.0
C      1  0.4844430000000  0.4988730000000  0.4711820000000 1.0
C      1  0.4851500000000  0.5253200000000  0.5136740000000 1.0
C      1  0.5143580000000  0.4743860000000  0.5153220000000 1.0
C      1  0.5143670000000  0.4988130000000  0.4710240000000 1.0
C      1  0.5154680000000  0.5245080000000  0.5138420000000 1.0
C      1  0.5253300000000  0.4494560000000  0.4706910000000 1.0
C      1  0.5256890000000  0.5499840000000  0.4718960000000 1.0
C      1  0.5286290000000  0.5012960000000  0.5595590000000 1.0
C      1  0.4705790000000  0.4490230000000  0.4732480000000 1.0
C      1  0.4740240000000  0.5497110000000  0.4695640000000 1.0
C      1  0.4716840000000  0.5038980000000  0.5595950000000 1.0
C      1  0.5249450000000  0.4746170000000  0.4871260000000 1.0
C      1  0.5258540000000  0.5228930000000  0.4847770000000 1.0
C      1  0.5247070000000  0.5003160000000  0.5287630000000 1.0
C      1  0.4731910000000  0.4752300000000  0.4880320000000 1.0
C      1  0.4741520000000  0.5235220000000  0.4844900000000 1.0
C      1  0.4750480000000  0.5017600000000  0.5289520000000 1.0
END
