TITL C-9266-5713-244 -2.1113663315873e-07 125000 -372.325734288673 0 0 60 (C1) n - 1
REM
REM in /home/bkarasulu/CARBON/AIRSS/Generating-Clusters/EDIP-Nigel-Params/Higher-Symm/Box-15A/Only-C60/SD-CG/HFTN-CG
REM
REM
REM
REM
REM
REM ./C.cell (414f73aa93bd7a1190c7fd0f31ff2f98)
REM
REM compiler GCC version 9.2.1 20190827 (Red Hat 9.2.1-1)
REM options -cpp -mtune=generic -march=x86-64 -g -O0 -fpre-include=/usr/include/finclude/math-vector-fortran.h
REM seed -1453518235 521645064 -1402589668 -913381142 1177071976 551673090 1650408458 1228674 -622625226 -1065164252 1466996719 348853734 2125967423 -566168742 136442652 1164564237 -1369099271 504979182 553765088 -1720563467 -220374739 -703054393 -1407619979 -690787297 1200517068 -1515906315 -1097191937 843258144 -1904015425 -2134802634 -84398334 608738338 1403478935
REM
CELL 1.54180   50.00000   50.00000   50.00000   90.00000   90.00000   90.00000
LATT -1
SFAC C  
C      1  0.4719200000000  0.5379620000000  0.4522990000000 1.0
C      1  0.5604460000000  0.5173000000000  0.4731820000000 1.0
C      1  0.4321300000000  0.4867090000000  0.5137380000000 1.0
C      1  0.4787250000000  0.4880060000000  0.4919510000000 1.0
C      1  0.4818200000000  0.5432510000000  0.5528410000000 1.0
C      1  0.5090470000000  0.4844580000000  0.5481720000000 1.0
C      1  0.5466650000000  0.5484850000000  0.5099890000000 1.0
C      1  0.4772430000000  0.5554560000000  0.5269000000000 1.0
C      1  0.5659150000000  0.5188130000000  0.5435860000000 1.0
C      1  0.4801230000000  0.4400680000000  0.4840290000000 1.0
C      1  0.5482670000000  0.4785810000000  0.4325460000000 1.0
C      1  0.5488120000000  0.5438270000000  0.5391410000000 1.0
C      1  0.5740550000000  0.4830620000000  0.4978640000000 1.0
C      1  0.4615510000000  0.4692640000000  0.4436470000000 1.0
C      1  0.5501230000000  0.5051050000000  0.4272370000000 1.0
C      1  0.4406850000000  0.4624250000000  0.4986130000000 1.0
C      1  0.5220100000000  0.4408010000000  0.5135520000000 1.0
C      1  0.5323860000000  0.4597370000000  0.4454140000000 1.0
C      1  0.5516990000000  0.5084610000000  0.5667850000000 1.0
C      1  0.5197390000000  0.5363760000000  0.4530430000000 1.0
C      1  0.5799590000000  0.4973060000000  0.4738130000000 1.0
C      1  0.5501220000000  0.4440720000000  0.5143360000000 1.0
C      1  0.5475140000000  0.5201040000000  0.4996100000000 1.0
C      1  0.4805350000000  0.5456690000000  0.4794760000000 1.0
C      1  0.4351560000000  0.5349020000000  0.4999900000000 1.0
C      1  0.4366620000000  0.4561650000000  0.4704850000000 1.0
C      1  0.4485060000000  0.5201010000000  0.4546100000000 1.0
C      1  0.4529910000000  0.4964220000000  0.5331580000000 1.0
C      1  0.4659750000000  0.5369990000000  0.5050720000000 1.0
C      1  0.5092620000000  0.5440540000000  0.4796530000000 1.0
C      1  0.4646830000000  0.4733850000000  0.5489350000000 1.0
C      1  0.4754310000000  0.5087430000000  0.5151360000000 1.0
C      1  0.4204170000000  0.5089030000000  0.4999580000000 1.0
C      1  0.4778560000000  0.4550310000000  0.5302850000000 1.0
C      1  0.5106120000000  0.4381240000000  0.4850790000000 1.0
C      1  0.4895840000000  0.4741940000000  0.4319030000000 1.0
C      1  0.4942680000000  0.4970990000000  0.4514950000000 1.0
C      1  0.5332650000000  0.4884500000000  0.5627960000000 1.0
C      1  0.5234440000000  0.5287830000000  0.5498900000000 1.0
C      1  0.5058420000000  0.5094470000000  0.5283120000000 1.0
C      1  0.4632510000000  0.5254390000000  0.5654690000000 1.0
C      1  0.5067220000000  0.5469890000000  0.5653690000000 1.0
C      1  0.5427970000000  0.5185520000000  0.4507820000000 1.0
C      1  0.5099770000000  0.4888240000000  0.4803860000000 1.0
C      1  0.5280670000000  0.4625460000000  0.4751180000000 1.0
C      1  0.4852250000000  0.4835380000000  0.5673530000000 1.0
C      1  0.4698110000000  0.4605520000000  0.5024790000000 1.0
C      1  0.5088130000000  0.4541730000000  0.4318550000000 1.0
C      1  0.4959210000000  0.5250850000000  0.4398090000000 1.0
C      1  0.4613480000000  0.4422180000000  0.4600250000000 1.0
C      1  0.4290310000000  0.5336200000000  0.4713220000000 1.0
C      1  0.4758670000000  0.5061520000000  0.5813140000000 1.0
C      1  0.5553750000000  0.4600490000000  0.4917860000000 1.0
C      1  0.5612240000000  0.5020230000000  0.5187480000000 1.0
C      1  0.4413620000000  0.5167710000000  0.5505360000000 1.0
C      1  0.5207350000000  0.5074050000000  0.5016600000000 1.0
C      1  0.5066200000000  0.4578630000000  0.5326110000000 1.0
C      1  0.5012860000000  0.5682160000000  0.5192400000000 1.0
C      1  0.4599990000000  0.4932870000000  0.4650740000000 1.0
C      1  0.5211220000000  0.5605990000000  0.5005410000000 1.0
END
