TITL C-9258-7861-231 4.51512273960605e-05 125000 -343.979110549873 0 0 60 (C1) n - 1
REM
REM in /home/bkarasulu/CARBON/AIRSS/Generating-Clusters/EDIP-Nigel-Params/Higher-Symm/Box-15A/Only-C60/SD-CG/HFTN-CG
REM
REM
REM
REM
REM
REM ./C.cell (414f73aa93bd7a1190c7fd0f31ff2f98)
REM
REM compiler GCC version 9.2.1 20190827 (Red Hat 9.2.1-1)
REM options -cpp -mtune=generic -march=x86-64 -g -O0 -fpre-include=/usr/include/finclude/math-vector-fortran.h
REM seed 863624601 -531689337 -800763543 -1635976552 -1020271252 -1828527180 1569016262 2020855059 -321866978 -253369789 -1675345007 91545598 1863384187 261369616 251595706 -245057307 -1307914625 527320487 -1632789644 1747508597 -1392650392 -585469994 -119535882 -201552633 2075935112 1446641611 978020366 778371077 991032843 -1723350847 -88440066 -2036985233 -1989189011
REM
CELL 1.54180   50.00000   50.00000   50.00000   90.00000   90.00000   90.00000
LATT -1
SFAC C  
C      1  0.4969020000000  0.4223200000000  0.4846580000000 1.0
C      1  0.5039010000000  0.5232800000000  0.5721100000000 1.0
C      1  0.4934680000000  0.5495630000000  0.4442490000000 1.0
C      1  0.4995290000000  0.4243510000000  0.5116360000000 1.0
C      1  0.5034270000000  0.5221690000000  0.4376250000000 1.0
C      1  0.5055630000000  0.5467410000000  0.5576950000000 1.0
C      1  0.4733540000000  0.4593750000000  0.4848800000000 1.0
C      1  0.4730380000000  0.5107300000000  0.5444930000000 1.0
C      1  0.4737740000000  0.5282110000000  0.4695090000000 1.0
C      1  0.5229080000000  0.4604440000000  0.5208320000000 1.0
C      1  0.5228900000000  0.5101770000000  0.4571210000000 1.0
C      1  0.5299210000000  0.5307000000000  0.5253060000000 1.0
C      1  0.5516160000000  0.4560410000000  0.5202580000000 1.0
C      1  0.5576830000000  0.5335510000000  0.5269500000000 1.0
C      1  0.5511420000000  0.5093140000000  0.4496550000000 1.0
C      1  0.4461770000000  0.4527380000000  0.4838110000000 1.0
C      1  0.4453950000000  0.5329640000000  0.4678730000000 1.0
C      1  0.4455620000000  0.5060480000000  0.5471210000000 1.0
C      1  0.4983910000000  0.4955130000000  0.4234520000000 1.0
C      1  0.4955320000000  0.4305610000000  0.5387090000000 1.0
C      1  0.5010030000000  0.5679950000000  0.5391470000000 1.0
C      1  0.5033520000000  0.4953920000000  0.5790170000000 1.0
C      1  0.5033900000000  0.4299610000000  0.4582050000000 1.0
C      1  0.5001050000000  0.5709390000000  0.4642440000000 1.0
C      1  0.4676300000000  0.4617980000000  0.5626280000000 1.0
C      1  0.4662830000000  0.5792810000000  0.5059700000000 1.0
C      1  0.4666320000000  0.4603160000000  0.4278340000000 1.0
C      1  0.5373870000000  0.4604920000000  0.4403160000000 1.0
C      1  0.5345990000000  0.5803360000000  0.4959600000000 1.0
C      1  0.5361590000000  0.4612920000000  0.5680020000000 1.0
C      1  0.4662520000000  0.4895720000000  0.4532190000000 1.0
C      1  0.4647150000000  0.4720210000000  0.5255260000000 1.0
C      1  0.4634500000000  0.5420490000000  0.5158650000000 1.0
C      1  0.5340590000000  0.4938000000000  0.5476380000000 1.0
C      1  0.5301290000000  0.4665380000000  0.4776890000000 1.0
C      1  0.5329040000000  0.5453530000000  0.4796150000000 1.0
C      1  0.4722010000000  0.4856760000000  0.4152980000000 1.0
C      1  0.4689830000000  0.4393800000000  0.5451910000000 1.0
C      1  0.4733080000000  0.5744840000000  0.5335140000000 1.0
C      1  0.5290960000000  0.4834890000000  0.5845170000000 1.0
C      1  0.5314540000000  0.4361660000000  0.4544120000000 1.0
C      1  0.5273810000000  0.5813300000000  0.4679390000000 1.0
C      1  0.5542430000000  0.5323230000000  0.4644830000000 1.0
C      1  0.5530640000000  0.4654080000000  0.4948210000000 1.0
C      1  0.5574410000000  0.5108100000000  0.5425360000000 1.0
C      1  0.4420670000000  0.5282570000000  0.5308480000000 1.0
C      1  0.4427260000000  0.4680450000000  0.5064740000000 1.0
C      1  0.4434090000000  0.5075840000000  0.4573470000000 1.0
C      1  0.5110400000000  0.4721560000000  0.4376470000000 1.0
C      1  0.5132930000000  0.4534270000000  0.5495710000000 1.0
C      1  0.5121640000000  0.5683970000000  0.5110290000000 1.0
C      1  0.4933590000000  0.4748310000000  0.5590530000000 1.0
C      1  0.4899420000000  0.4531110000000  0.4442340000000 1.0
C      1  0.4896220000000  0.5686250000000  0.4923210000000 1.0
C      1  0.5173910000000  0.5259760000000  0.4983900000000 1.0
C      1  0.5124820000000  0.4919930000000  0.4802350000000 1.0
C      1  0.5154250000000  0.4893700000000  0.5233790000000 1.0
C      1  0.4839640000000  0.5249970000000  0.4987620000000 1.0
C      1  0.4851270000000  0.4964600000000  0.5210350000000 1.0
C      1  0.4825940000000  0.4857780000000  0.4781470000000 1.0
END
