TITL C-9265-7156-44 -2.18120145199942e-06 125000 -352.267492050202 0 0 60 (Ci) n - 1
REM
REM in /home/bkarasulu/CARBON/AIRSS/Generating-Clusters/EDIP-Nigel-Params/Higher-Symm/Box-15A/Only-C60/SD-CG/HFTN-CG
REM
REM
REM
REM
REM
REM ./C.cell (414f73aa93bd7a1190c7fd0f31ff2f98)
REM
REM compiler GCC version 9.2.1 20190827 (Red Hat 9.2.1-1)
REM options -cpp -mtune=generic -march=x86-64 -g -O0 -fpre-include=/usr/include/finclude/math-vector-fortran.h
REM seed -1868305554 778012832 -735954337 -352844323 -1510286602 2102486664 811528523 152719909 -1284984711 -203199184 -1264251757 123394833 728319320 -1697612436 428197539 -1599036707 826861265 -1921470868 -1898249333 1922967299 -1303487634 1868006732 -726436518 165777534 -1954281653 155898223 151352995 1172769179 -1494130414 -277991637 1110019444 1501867290 463161973
REM
CELL 1.54180   50.00000   50.00000   50.00000   90.00000   90.00000   90.00000
LATT -1
SFAC C  
C      1  0.5258530000000  0.5619320000000  0.5340980000000 1.0
C      1  0.4854060000000  0.5645960000000  0.4682530000000 1.0
C      1  0.4495200000000  0.5454220000000  0.5347890000000 1.0
C      1  0.4333560000000  0.5051910000000  0.4678060000000 1.0
C      1  0.4412680000000  0.4662440000000  0.5310380000000 1.0
C      1  0.4741470000000  0.4380680000000  0.4659020000000 1.0
C      1  0.5145940000000  0.4354040000000  0.5317470000000 1.0
C      1  0.5504800000000  0.4545780000000  0.4652110000000 1.0
C      1  0.5666440000000  0.4948090000000  0.5321940000000 1.0
C      1  0.5587320000000  0.5337560000000  0.4689620000000 1.0
C      1  0.5030880000000  0.4747270000000  0.4633550000000 1.0
C      1  0.5125460000000  0.4809650000000  0.5461690000000 1.0
C      1  0.5251410000000  0.4918210000000  0.4523870000000 1.0
C      1  0.5212270000000  0.5073670000000  0.5380670000000 1.0
C      1  0.5163140000000  0.5196060000000  0.4514700000000 1.0
C      1  0.4969120000000  0.5252730000000  0.5366450000000 1.0
C      1  0.4874540000000  0.5190350000000  0.4538310000000 1.0
C      1  0.4748590000000  0.5081790000000  0.5476130000000 1.0
C      1  0.4787730000000  0.4926330000000  0.4619330000000 1.0
C      1  0.4836860000000  0.4803940000000  0.5485300000000 1.0
C      1  0.5319860000000  0.4780830000000  0.5067980000000 1.0
C      1  0.5444550000000  0.4986410000000  0.4912230000000 1.0
C      1  0.5381890000000  0.5246040000000  0.5011850000000 1.0
C      1  0.5146950000000  0.5381650000000  0.4914960000000 1.0
C      1  0.4904180000000  0.5351910000000  0.5072270000000 1.0
C      1  0.4680140000000  0.5219170000000  0.4932020000000 1.0
C      1  0.4555450000000  0.5013590000000  0.5087770000000 1.0
C      1  0.4618110000000  0.4753960000000  0.4988150000000 1.0
C      1  0.4853050000000  0.4618350000000  0.5085040000000 1.0
C      1  0.5095820000000  0.4648090000000  0.4927730000000 1.0
C      1  0.4515610000000  0.4840130000000  0.4569640000000 1.0
C      1  0.4662040000000  0.4568360000000  0.5471860000000 1.0
C      1  0.4994050000000  0.4469920000000  0.4521410000000 1.0
C      1  0.5293730000000  0.4571940000000  0.5450240000000 1.0
C      1  0.5523120000000  0.4814610000000  0.4519380000000 1.0
C      1  0.5484390000000  0.5159870000000  0.5430360000000 1.0
C      1  0.5337960000000  0.5431640000000  0.4528140000000 1.0
C      1  0.5005950000000  0.5530080000000  0.5478590000000 1.0
C      1  0.4706270000000  0.5428060000000  0.4549760000000 1.0
C      1  0.4476880000000  0.5185390000000  0.5480620000000 1.0
C      1  0.5748990000000  0.4949690000000  0.4951170000000 1.0
C      1  0.5617830000000  0.5432780000000  0.5062250000000 1.0
C      1  0.5232550000000  0.5681710000000  0.4966190000000 1.0
C      1  0.4811070000000  0.5645260000000  0.5065770000000 1.0
C      1  0.4446630000000  0.5436790000000  0.4970640000000 1.0
C      1  0.4251010000000  0.5050310000000  0.5048830000000 1.0
C      1  0.4382170000000  0.4567220000000  0.4937750000000 1.0
C      1  0.4767450000000  0.4318290000000  0.5033810000000 1.0
C      1  0.5188930000000  0.4354740000000  0.4934230000000 1.0
C      1  0.5553370000000  0.4563210000000  0.5029360000000 1.0
C      1  0.5521480000000  0.5464160000000  0.5355120000000 1.0
C      1  0.5160570000000  0.5675900000000  0.4658040000000 1.0
C      1  0.4735590000000  0.5642470000000  0.5360980000000 1.0
C      1  0.4422990000000  0.5352030000000  0.4669760000000 1.0
C      1  0.4280270000000  0.4961050000000  0.5359920000000 1.0
C      1  0.4478520000000  0.4535840000000  0.4644880000000 1.0
C      1  0.4839430000000  0.4324100000000  0.5341960000000 1.0
C      1  0.5264410000000  0.4357530000000  0.4639020000000 1.0
C      1  0.5577010000000  0.4647970000000  0.5330240000000 1.0
C      1  0.5719730000000  0.5038950000000  0.4640080000000 1.0
END
