TITL C-9270-2362-74 -0.00662040213104851 125000 -358.45806365445 0 0 60 (C1) n - 1
REM
REM in /home/bkarasulu/CARBON/AIRSS/Generating-Clusters/EDIP-Nigel-Params/Higher-Symm/Box-15A/Only-C60/SD-CG/HFTN-CG
REM
REM
REM
REM
REM
REM ./C.cell (414f73aa93bd7a1190c7fd0f31ff2f98)
REM
REM compiler GCC version 9.2.1 20190827 (Red Hat 9.2.1-1)
REM options -cpp -mtune=generic -march=x86-64 -g -O0 -fpre-include=/usr/include/finclude/math-vector-fortran.h
REM seed -970351958 -1265237566 358208199 -1736428334 1775305634 136768623 948882146 1524877289 -558736508 1981514203 542566463 -855161138 -31918689 479185249 108040102 1809351718 36483410 -980998014 809679020 -462652090 -477198267 1165464586 -1606677306 1660682270 1952967043 -1300909880 223323413 -442837736 -258306443 1606531014 -543720413 790068121 -1264737987
REM
CELL 1.54180   50.00000   50.00000   50.00000   90.00000   90.00000   90.00000
LATT -1
SFAC C  
C      1  0.4547410000000  0.4854440000000  0.4733270000000 1.0
C      1  0.4443840000000  0.4787020000000  0.4997980000000 1.0
C      1  0.4301530000000  0.4641680000000  0.5515850000000 1.0
C      1  0.4682450000000  0.4597870000000  0.5828400000000 1.0
C      1  0.5169740000000  0.4471600000000  0.5719870000000 1.0
C      1  0.5407000000000  0.4489510000000  0.5545960000000 1.0
C      1  0.5690120000000  0.4557310000000  0.5134320000000 1.0
C      1  0.5621420000000  0.4500260000000  0.4642990000000 1.0
C      1  0.5483240000000  0.4579980000000  0.4402960000000 1.0
C      1  0.5119060000000  0.4861440000000  0.4162220000000 1.0
C      1  0.4726180000000  0.4999230000000  0.4268180000000 1.0
C      1  0.4984010000000  0.4359960000000  0.5525740000000 1.0
C      1  0.5295030000000  0.4367390000000  0.5301880000000 1.0
C      1  0.5472330000000  0.4389140000000  0.5075000000000 1.0
C      1  0.5398950000000  0.4391860000000  0.4795470000000 1.0
C      1  0.5209220000000  0.4511780000000  0.4482010000000 1.0
C      1  0.5015720000000  0.4650490000000  0.4316000000000 1.0
C      1  0.4738060000000  0.4731070000000  0.4350080000000 1.0
C      1  0.4553090000000  0.4646810000000  0.4540010000000 1.0
C      1  0.4613060000000  0.4599310000000  0.5144790000000 1.0
C      1  0.4514580000000  0.4497460000000  0.5399350000000 1.0
C      1  0.4712250000000  0.4421750000000  0.5604480000000 1.0
C      1  0.5544550000000  0.5024350000000  0.5091460000000 1.0
C      1  0.5573370000000  0.4966230000000  0.4803740000000 1.0
C      1  0.5544860000000  0.5154750000000  0.4586590000000 1.0
C      1  0.5312130000000  0.5218060000000  0.4418580000000 1.0
C      1  0.5057120000000  0.5193450000000  0.4558120000000 1.0
C      1  0.4720050000000  0.5293660000000  0.4957000000000 1.0
C      1  0.4549940000000  0.5227120000000  0.5194320000000 1.0
C      1  0.4674530000000  0.5214580000000  0.5443430000000 1.0
C      1  0.4765700000000  0.5013100000000  0.5613280000000 1.0
C      1  0.5043950000000  0.4950900000000  0.5659870000000 1.0
C      1  0.5244900000000  0.4950610000000  0.5453470000000 1.0
C      1  0.4615670000000  0.5147210000000  0.4702390000000 1.0
C      1  0.4372920000000  0.5019140000000  0.5138710000000 1.0
C      1  0.4312310000000  0.4850510000000  0.5692970000000 1.0
C      1  0.4582070000000  0.4860030000000  0.5779060000000 1.0
C      1  0.5091270000000  0.4725970000000  0.5823420000000 1.0
C      1  0.5480240000000  0.4781850000000  0.5502450000000 1.0
C      1  0.5656100000000  0.4808270000000  0.5263150000000 1.0
C      1  0.5732870000000  0.4739320000000  0.4748350000000 1.0
C      1  0.5555180000000  0.4855650000000  0.4337640000000 1.0
C      1  0.5350970000000  0.5014260000000  0.4208150000000 1.0
C      1  0.4783480000000  0.5198540000000  0.4461190000000 1.0
C      1  0.4947010000000  0.6122980000000  0.4429580000000 1.0
C      1  0.4875520000000  0.5877540000000  0.4498240000000 1.0
C      1  0.4800900000000  0.5692430000000  0.4672980000000 1.0
C      1  0.4726190000000  0.5587890000000  0.4916100000000 1.0
C      1  0.4736130000000  0.5751460000000  0.5136550000000 1.0
C      1  0.4767800000000  0.5976460000000  0.5272800000000 1.0
C      1  0.4826800000000  0.6233560000000  0.5294830000000 1.0
C      1  0.4901550000000  0.6461230000000  0.5181870000000 1.0
C      1  0.4969670000000  0.6583550000000  0.4956750000000 1.0
C      1  0.5005870000000  0.6550300000000  0.4696180000000 1.0
C      1  0.4996490000000  0.6373970000000  0.4498450000000 1.0
C      1  0.4842500000000  0.4502010000000  0.5014680000000 1.0
C      1  0.5302720000000  0.5138380000000  0.5235350000000 1.0
C      1  0.5079230000000  0.5195680000000  0.5060300000000 1.0
C      1  0.4992620000000  0.4718100000000  0.4945160000000 1.0
C      1  0.5024110000000  0.4987180000000  0.4877360000000 1.0
END
