TITL C-9259-5960-11 -1.10988865127111e-05 125000 -353.309475479778 0 0 60 (Ci) n - 1
REM
REM in /home/bkarasulu/CARBON/AIRSS/Generating-Clusters/EDIP-Nigel-Params/Higher-Symm/Box-15A/Only-C60/SD-CG/HFTN-CG
REM
REM
REM
REM
REM
REM ./C.cell (414f73aa93bd7a1190c7fd0f31ff2f98)
REM
REM compiler GCC version 9.2.1 20190827 (Red Hat 9.2.1-1)
REM options -cpp -mtune=generic -march=x86-64 -g -O0 -fpre-include=/usr/include/finclude/math-vector-fortran.h
REM seed 1603567263 592897560 814474642 1137557553 -1152834656 756878464 1795274184 1894324100 757335080 -535364530 868856151 1988233778 356777090 -1760281708 -1849948249 -1782350433 -1808778813 -1571077410 -854362349 1507999341 1660373906 540445021 1799209587 -2018669169 -1738454713 -2146948599 -1426453283 -1687237027 -2022902299 -1557774901 -237834926 1014147147 -1669704613
REM
CELL 1.54180   50.00000   50.00000   50.00000   90.00000   90.00000   90.00000
LATT -1
SFAC C  
C      1  0.4354250000000  0.4941060000000  0.5382870000000 1.0
C      1  0.4378670000000  0.5065430000000  0.4615080000000 1.0
C      1  0.4986380000000  0.4911710000000  0.4221640000000 1.0
C      1  0.5645750000000  0.5058940000000  0.4617130000000 1.0
C      1  0.5621330000000  0.4934570000000  0.5384920000000 1.0
C      1  0.5013620000000  0.5088290000000  0.5778360000000 1.0
C      1  0.4577400000000  0.5717480000000  0.4932210000000 1.0
C      1  0.4856580000000  0.4294560000000  0.4633300000000 1.0
C      1  0.5233480000000  0.5687890000000  0.4654970000000 1.0
C      1  0.5422600000000  0.4282520000000  0.5067790000000 1.0
C      1  0.5143420000000  0.5705440000000  0.5366700000000 1.0
C      1  0.4766520000000  0.4312110000000  0.5345030000000 1.0
C      1  0.4769230000000  0.5310800000000  0.5444500000000 1.0
C      1  0.4568220000000  0.4720260000000  0.5026510000000 1.0
C      1  0.4803330000000  0.5266900000000  0.4722530000000 1.0
C      1  0.5230770000000  0.4689200000000  0.4555500000000 1.0
C      1  0.5431780000000  0.5279740000000  0.4973490000000 1.0
C      1  0.5196670000000  0.4733100000000  0.5277470000000 1.0
C      1  0.5612930000000  0.5170930000000  0.5508540000000 1.0
C      1  0.4895680000000  0.4851000000000  0.5813540000000 1.0
C      1  0.4254100000000  0.5171160000000  0.5289050000000 1.0
C      1  0.4387070000000  0.4829070000000  0.4491460000000 1.0
C      1  0.5104320000000  0.5149000000000  0.4186460000000 1.0
C      1  0.5745900000000  0.4828840000000  0.4710950000000 1.0
C      1  0.4261790000000  0.5364550000000  0.5104410000000 1.0
C      1  0.4537160000000  0.4619420000000  0.4421970000000 1.0
C      1  0.5256760000000  0.5341310000000  0.4291850000000 1.0
C      1  0.5738210000000  0.4635450000000  0.4895590000000 1.0
C      1  0.5462840000000  0.5380580000000  0.5578030000000 1.0
C      1  0.4743240000000  0.4658690000000  0.5708150000000 1.0
C      1  0.4877000000000  0.5781840000000  0.5338170000000 1.0
C      1  0.4661470000000  0.4232100000000  0.5100230000000 1.0
C      1  0.4740260000000  0.5791840000000  0.4717950000000 1.0
C      1  0.5123000000000  0.4218160000000  0.4661830000000 1.0
C      1  0.5338530000000  0.5767900000000  0.4899770000000 1.0
C      1  0.5259740000000  0.4208160000000  0.5282050000000 1.0
C      1  0.5062080000000  0.4697370000000  0.5031740000000 1.0
C      1  0.4823480000000  0.5186330000000  0.5201380000000 1.0
C      1  0.4817260000000  0.4819650000000  0.4950950000000 1.0
C      1  0.4937920000000  0.5302630000000  0.4968260000000 1.0
C      1  0.5176520000000  0.4813670000000  0.4798620000000 1.0
C      1  0.5182740000000  0.5180350000000  0.5049050000000 1.0
C      1  0.5345150000000  0.4201600000000  0.4812800000000 1.0
C      1  0.5317260000000  0.5785710000000  0.5166780000000 1.0
C      1  0.5021020000000  0.4219620000000  0.5404690000000 1.0
C      1  0.4654850000000  0.5798400000000  0.5187200000000 1.0
C      1  0.4682740000000  0.4214290000000  0.4833220000000 1.0
C      1  0.4978980000000  0.5780380000000  0.4595310000000 1.0
C      1  0.5517520000000  0.5288620000000  0.4707700000000 1.0
C      1  0.5476280000000  0.4710080000000  0.5307530000000 1.0
C      1  0.4979630000000  0.5319150000000  0.5627810000000 1.0
C      1  0.4482480000000  0.4711380000000  0.5292300000000 1.0
C      1  0.4523720000000  0.5289920000000  0.4692470000000 1.0
C      1  0.5020370000000  0.4680850000000  0.4372190000000 1.0
C      1  0.4665500000000  0.4560220000000  0.5460090000000 1.0
C      1  0.4414670000000  0.5473410000000  0.4896120000000 1.0
C      1  0.4794950000000  0.4528610000000  0.4471200000000 1.0
C      1  0.5334500000000  0.5439780000000  0.4539910000000 1.0
C      1  0.5585330000000  0.4526590000000  0.5103880000000 1.0
C      1  0.5205050000000  0.5471390000000  0.5528800000000 1.0
END
