TITL C-9256-7861-91 -1.67291802917744e-05 125000 -361.025734902086 0 0 60 (C1) n - 1
REM
REM in /home/bkarasulu/CARBON/AIRSS/Generating-Clusters/EDIP-Nigel-Params/Higher-Symm/Box-15A/Only-C60/SD-CG/HFTN-CG
REM
REM
REM
REM
REM
REM ./C.cell (414f73aa93bd7a1190c7fd0f31ff2f98)
REM
REM compiler GCC version 9.2.1 20190827 (Red Hat 9.2.1-1)
REM options -cpp -mtune=generic -march=x86-64 -g -O0 -fpre-include=/usr/include/finclude/math-vector-fortran.h
REM seed -138954771 -1027517791 1188834337 1639485404 1541747159 -1988938505 946893429 -2071007404 1737737723 1087721530 1516024251 -1121400564 -1212183917 -603251446 -853498039 1041468794 1666121089 1217056797 -852418039 773059662 -156221113 -1834132947 -473897642 -1992967202 1566105668 -2091319689 -1610022377 668714703 -1178703911 345931002 -1910968114 -506026146 1739269558
REM
CELL 1.54180   50.00000   50.00000   50.00000   90.00000   90.00000   90.00000
LATT -1
SFAC C  
C      1  0.5328880000000  0.5407350000000  0.4603220000000 1.0
C      1  0.4625200000000  0.5442540000000  0.5441980000000 1.0
C      1  0.4639670000000  0.4560280000000  0.4625490000000 1.0
C      1  0.5403370000000  0.4591210000000  0.5348290000000 1.0
C      1  0.4489850000000  0.5355130000000  0.5206660000000 1.0
C      1  0.5433790000000  0.5290670000000  0.4833300000000 1.0
C      1  0.4545030000000  0.4619200000000  0.4898140000000 1.0
C      1  0.5515850000000  0.4579180000000  0.5079410000000 1.0
C      1  0.5037920000000  0.5732880000000  0.4791830000000 1.0
C      1  0.4950810000000  0.5719660000000  0.5228460000000 1.0
C      1  0.4926750000000  0.4170130000000  0.4815730000000 1.0
C      1  0.5087620000000  0.4187420000000  0.5227560000000 1.0
C      1  0.4737150000000  0.5755580000000  0.5029610000000 1.0
C      1  0.5174100000000  0.5679160000000  0.5042630000000 1.0
C      1  0.4805830000000  0.4241810000000  0.5094710000000 1.0
C      1  0.5216340000000  0.4203870000000  0.4935620000000 1.0
C      1  0.5183110000000  0.4407790000000  0.5419190000000 1.0
C      1  0.4866150000000  0.4369040000000  0.4596450000000 1.0
C      1  0.4900460000000  0.5502030000000  0.5418690000000 1.0
C      1  0.5088190000000  0.5546980000000  0.4581050000000 1.0
C      1  0.5326150000000  0.4472340000000  0.4879700000000 1.0
C      1  0.4724950000000  0.4523340000000  0.5108930000000 1.0
C      1  0.5299870000000  0.5403750000000  0.5082340000000 1.0
C      1  0.4561600000000  0.5530110000000  0.4979050000000 1.0
C      1  0.4435080000000  0.5488870000000  0.4718870000000 1.0
C      1  0.5495690000000  0.5418980000000  0.5300280000000 1.0
C      1  0.5332090000000  0.4555960000000  0.4594760000000 1.0
C      1  0.4729190000000  0.4648190000000  0.5375110000000 1.0
C      1  0.4861960000000  0.5431140000000  0.4443400000000 1.0
C      1  0.5103900000000  0.5437930000000  0.5620440000000 1.0
C      1  0.4971210000000  0.4584360000000  0.5546150000000 1.0
C      1  0.5102750000000  0.4454820000000  0.4441790000000 1.0
C      1  0.4421970000000  0.4885860000000  0.4947290000000 1.0
C      1  0.5639200000000  0.4839220000000  0.5001890000000 1.0
C      1  0.5707940000000  0.5245130000000  0.5271570000000 1.0
C      1  0.4259220000000  0.5274730000000  0.4711270000000 1.0
C      1  0.4868500000000  0.4759090000000  0.4389460000000 1.0
C      1  0.5161540000000  0.4833810000000  0.5533340000000 1.0
C      1  0.5048790000000  0.5207130000000  0.5783940000000 1.0
C      1  0.4915270000000  0.5200220000000  0.4284550000000 1.0
C      1  0.4701670000000  0.4943830000000  0.5378450000000 1.0
C      1  0.5372420000000  0.5462380000000  0.5544440000000 1.0
C      1  0.5344260000000  0.4855090000000  0.4570900000000 1.0
C      1  0.4603210000000  0.5523080000000  0.4498130000000 1.0
C      1  0.5210230000000  0.4966470000000  0.5796320000000 1.0
C      1  0.4756880000000  0.4970190000000  0.4215110000000 1.0
C      1  0.5764740000000  0.4977270000000  0.5230100000000 1.0
C      1  0.4272140000000  0.4999650000000  0.4727560000000 1.0
C      1  0.4943330000000  0.4935960000000  0.4820260000000 1.0
C      1  0.5075490000000  0.5183110000000  0.5161340000000 1.0
C      1  0.5179970000000  0.4932440000000  0.5008840000000 1.0
C      1  0.4814560000000  0.5167110000000  0.4966280000000 1.0
C      1  0.5050610000000  0.4948490000000  0.4545600000000 1.0
C      1  0.4973880000000  0.5064540000000  0.5434600000000 1.0
C      1  0.4582630000000  0.5076570000000  0.5131280000000 1.0
C      1  0.5420420000000  0.4984660000000  0.4843720000000 1.0
C      1  0.4117340000000  0.4847190000000  0.4576580000000 1.0
C      1  0.5980210000000  0.4869850000000  0.5341590000000 1.0
C      1  0.4705070000000  0.4917620000000  0.3961350000000 1.0
C      1  0.5208010000000  0.4817640000000  0.6015410000000 1.0
END
