TITL C-9269-7444-192 6.37995888332894e-07 125000 -336.758663246333 0 0 60 (D4) n - 1
REM
REM in /home/bkarasulu/CARBON/AIRSS/Generating-Clusters/EDIP-Nigel-Params/Higher-Symm/Box-15A/Only-C60/SD-CG/HFTN-CG
REM
REM
REM
REM
REM
REM ./C.cell (414f73aa93bd7a1190c7fd0f31ff2f98)
REM
REM compiler GCC version 9.2.1 20190827 (Red Hat 9.2.1-1)
REM options -cpp -mtune=generic -march=x86-64 -g -O0 -fpre-include=/usr/include/finclude/math-vector-fortran.h
REM seed -1558479194 -490131201 -173073315 694449223 1461869344 1115211905 -1850993601 483204659 1562929428 880413444 -1404760964 -1947797446 491200578 1657652115 1835495369 372801800 476397449 -1934927890 -200705774 769097628 380419279 -371501114 481733749 881875534 -507096827 321909836 2045577041 606970828 -1918545454 251629934 -2099654463 -831755092 -934067565
REM
CELL 1.54180   50.00000   50.00000   50.00000   90.00000   90.00000   90.00000
LATT -1
SFAC C  
C      1  0.5063020000000  0.5451130000000  0.4439000000000 1.0
C      1  0.5561000000000  0.5451130000000  0.5063020000000 1.0
C      1  0.4936980000000  0.5451130000000  0.5561000000000 1.0
C      1  0.4439000000000  0.5451130000000  0.4936980000000 1.0
C      1  0.4934710000000  0.4520050000000  0.4439700000000 1.0
C      1  0.4439700000000  0.4520050000000  0.5065290000000 1.0
C      1  0.5065290000000  0.4520050000000  0.5560300000000 1.0
C      1  0.5560300000000  0.4520050000000  0.4934700000000 1.0
C      1  0.5199670000000  0.4777900000000  0.4892870000000 1.0
C      1  0.5107130000000  0.4777900000000  0.5199670000000 1.0
C      1  0.4800330000000  0.4777900000000  0.5107130000000 1.0
C      1  0.4892870000000  0.4777900000000  0.4800330000000 1.0
C      1  0.4802110000000  0.5201970000000  0.4896220000000 1.0
C      1  0.4896220000000  0.5201970000000  0.5197890000000 1.0
C      1  0.5197890000000  0.5201970000000  0.5103780000000 1.0
C      1  0.5103780000000  0.5201970000000  0.4802110000000 1.0
C      1  0.4733690000000  0.5507410000000  0.4924030000000 1.0
C      1  0.5075970000000  0.5507410000000  0.4733690000000 1.0
C      1  0.5266310000000  0.5507410000000  0.5075970000000 1.0
C      1  0.4924030000000  0.5507410000000  0.5266310000000 1.0
C      1  0.5265310000000  0.4471030000000  0.4921060000000 1.0
C      1  0.4921060000000  0.4471030000000  0.4734690000000 1.0
C      1  0.4734690000000  0.4471030000000  0.5078940000000 1.0
C      1  0.5078940000000  0.4471030000000  0.5265310000000 1.0
C      1  0.4846640000000  0.4990180000000  0.4511700000000 1.0
C      1  0.5488300000000  0.4990180000000  0.4846640000000 1.0
C      1  0.5153360000000  0.4990180000000  0.5488300000000 1.0
C      1  0.4511700000000  0.4990180000000  0.5153360000000 1.0
C      1  0.5152980000000  0.4971200000000  0.4496660000000 1.0
C      1  0.4496660000000  0.4971200000000  0.4847020000000 1.0
C      1  0.4847020000000  0.4971200000000  0.5503340000000 1.0
C      1  0.5503340000000  0.4971200000000  0.5152980000000 1.0
C      1  0.5202730000000  0.4617000000000  0.4358160000000 1.0
C      1  0.5641840000000  0.4617000000000  0.5202730000000 1.0
C      1  0.4797270000000  0.4617000000000  0.5641840000000 1.0
C      1  0.4358160000000  0.4617000000000  0.4797270000000 1.0
C      1  0.4800440000000  0.5343740000000  0.4360670000000 1.0
C      1  0.4360670000000  0.5343740000000  0.5199560000000 1.0
C      1  0.5199560000000  0.5343730000000  0.5639330000000 1.0
C      1  0.5639330000000  0.5343740000000  0.4800440000000 1.0
C      1  0.5475500000000  0.5283730000000  0.5555910000000 1.0
C      1  0.4444090000000  0.5283730000000  0.5475500000000 1.0
C      1  0.4524500000000  0.5283740000000  0.4444090000000 1.0
C      1  0.5555910000000  0.5283740000000  0.4524500000000 1.0
C      1  0.4519080000000  0.4682030000000  0.5557850000000 1.0
C      1  0.5557850000000  0.4682030000000  0.5480920000000 1.0
C      1  0.5480920000000  0.4682030000000  0.4442150000000 1.0
C      1  0.4442150000000  0.4682030000000  0.4519080000000 1.0
C      1  0.4722060000000  0.4740300000000  0.4379740000000 1.0
C      1  0.5620260000000  0.4740300000000  0.4722060000000 1.0
C      1  0.5277940000000  0.4740300000000  0.5620260000000 1.0
C      1  0.4379740000000  0.4740300000000  0.5277940000000 1.0
C      1  0.5276320000000  0.5229510000000  0.4387850000000 1.0
C      1  0.4387850000000  0.5229510000000  0.4723680000000 1.0
C      1  0.4723680000000  0.5229500000000  0.5612160000000 1.0
C      1  0.5612150000000  0.5229500000000  0.5276320000000 1.0
C      1  0.4417070000000  0.4985430000000  0.5582480000000 1.0
C      1  0.4417520000000  0.4985430000000  0.4417070000000 1.0
C      1  0.5582930000000  0.4985430000000  0.4417520000000 1.0
C      1  0.5582480000000  0.4985430000000  0.5582930000000 1.0
END
