TITL C-9258-7861-73 -1.53643290924355e-06 125000 -370.583804443344 0 0 60 (C1) n - 1
REM
REM in /home/bkarasulu/CARBON/AIRSS/Generating-Clusters/EDIP-Nigel-Params/Higher-Symm/Box-15A/Only-C60/SD-CG/HFTN-CG
REM
REM
REM
REM
REM
REM ./C.cell (414f73aa93bd7a1190c7fd0f31ff2f98)
REM
REM compiler GCC version 9.2.1 20190827 (Red Hat 9.2.1-1)
REM options -cpp -mtune=generic -march=x86-64 -g -O0 -fpre-include=/usr/include/finclude/math-vector-fortran.h
REM seed 335046 765186632 20338057 788062252 -905666652 411982310 -2066969440 -1319706614 -1421202453 -1186333856 -505134443 380431908 -322410706 -1763735075 1717359462 -1626860233 1181649714 -397563248 -18888389 289147821 1500422666 121556479 1869837354 1689460431 752568794 1101676760 320121695 2020591729 24499441 -1314186381 -1113129971 1379766271 -1052311120
REM
CELL 1.54180   50.00000   50.00000   50.00000   90.00000   90.00000   90.00000
LATT -1
SFAC C  
C      1  0.5234520000000  0.4923310000000  0.4207760000000 1.0
C      1  0.4795460000000  0.4852210000000  0.4208070000000 1.0
C      1  0.4952910000000  0.5265170000000  0.4239780000000 1.0
C      1  0.5204960000000  0.5195990000000  0.4131920000000 1.0
C      1  0.5039200000000  0.4745050000000  0.4107850000000 1.0
C      1  0.4737170000000  0.5117230000000  0.4126270000000 1.0
C      1  0.5205400000000  0.5020280000000  0.4895940000000 1.0
C      1  0.4959100000000  0.4850600000000  0.4896730000000 1.0
C      1  0.4748370000000  0.5071520000000  0.4951940000000 1.0
C      1  0.5012950000000  0.4381390000000  0.5116270000000 1.0
C      1  0.4419010000000  0.5332950000000  0.5083430000000 1.0
C      1  0.5571100000000  0.5296840000000  0.5089390000000 1.0
C      1  0.5486500000000  0.4613650000000  0.4882040000000 1.0
C      1  0.4499890000000  0.4770200000000  0.4914940000000 1.0
C      1  0.5040060000000  0.5582160000000  0.4923880000000 1.0
C      1  0.5601740000000  0.5478430000000  0.4875280000000 1.0
C      1  0.5208740000000  0.4341730000000  0.4912760000000 1.0
C      1  0.4256130000000  0.5262000000000  0.4863600000000 1.0
C      1  0.5427380000000  0.5046910000000  0.4700810000000 1.0
C      1  0.4873950000000  0.4627070000000  0.4690900000000 1.0
C      1  0.4723530000000  0.5301190000000  0.4725600000000 1.0
C      1  0.4734930000000  0.4808920000000  0.4490860000000 1.0
C      1  0.4957510000000  0.5294740000000  0.4531440000000 1.0
C      1  0.5321910000000  0.4869440000000  0.4482250000000 1.0
C      1  0.4815630000000  0.4465880000000  0.5541550000000 1.0
C      1  0.4609470000000  0.5428190000000  0.5520630000000 1.0
C      1  0.5527040000000  0.5105920000000  0.5518310000000 1.0
C      1  0.5644830000000  0.4884440000000  0.4843100000000 1.0
C      1  0.4638670000000  0.4504080000000  0.4838610000000 1.0
C      1  0.4747300000000  0.5578250000000  0.4847820000000 1.0
C      1  0.5164410000000  0.5461690000000  0.4666130000000 1.0
C      1  0.5363830000000  0.4599300000000  0.4591360000000 1.0
C      1  0.4490440000000  0.4911400000000  0.4630680000000 1.0
C      1  0.4912850000000  0.5156590000000  0.5229900000000 1.0
C      1  0.5233920000000  0.5033590000000  0.5195320000000 1.0
C      1  0.4956500000000  0.4788700000000  0.5255240000000 1.0
C      1  0.4598170000000  0.4473930000000  0.5325020000000 1.0
C      1  0.4738310000000  0.5608170000000  0.5320890000000 1.0
C      1  0.5629850000000  0.4891830000000  0.5329950000000 1.0
C      1  0.4442580000000  0.5204000000000  0.4657620000000 1.0
C      1  0.5447950000000  0.5357430000000  0.4669690000000 1.0
C      1  0.5123660000000  0.4443450000000  0.4653810000000 1.0
C      1  0.4485780000000  0.4957080000000  0.5441260000000 1.0
C      1  0.5214100000000  0.5485620000000  0.5438300000000 1.0
C      1  0.5280390000000  0.4584230000000  0.5474600000000 1.0
C      1  0.5482900000000  0.5357310000000  0.5361890000000 1.0
C      1  0.5070620000000  0.4390640000000  0.5400620000000 1.0
C      1  0.4413140000000  0.5244590000000  0.5367800000000 1.0
C      1  0.5717400000000  0.5039920000000  0.5085980000000 1.0
C      1  0.4723710000000  0.4352100000000  0.5077390000000 1.0
C      1  0.4565790000000  0.5588490000000  0.5078070000000 1.0
C      1  0.5174340000000  0.4770180000000  0.5683890000000 1.0
C      1  0.4738820000000  0.4975760000000  0.5590510000000 1.0
C      1  0.5107090000000  0.5304190000000  0.5658150000000 1.0
C      1  0.4812240000000  0.5248380000000  0.5650060000000 1.0
C      1  0.5264330000000  0.5051800000000  0.5635950000000 1.0
C      1  0.4878250000000  0.4732500000000  0.5682170000000 1.0
C      1  0.5381790000000  0.4741780000000  0.5233280000000 1.0
C      1  0.4600850000000  0.4760570000000  0.5230030000000 1.0
C      1  0.4990640000000  0.5468990000000  0.5224750000000 1.0
END
