TITL C-9265-7156-19 9.8463399591598e-07 125000 -359.096301712191 0 0 60 (Cs) n - 1
REM
REM in /home/bkarasulu/CARBON/AIRSS/Generating-Clusters/EDIP-Nigel-Params/Higher-Symm/Box-15A/Only-C60/SD-CG/HFTN-CG
REM
REM
REM
REM
REM
REM ./C.cell (414f73aa93bd7a1190c7fd0f31ff2f98)
REM
REM compiler GCC version 9.2.1 20190827 (Red Hat 9.2.1-1)
REM options -cpp -mtune=generic -march=x86-64 -g -O0 -fpre-include=/usr/include/finclude/math-vector-fortran.h
REM seed 674663646 -993650498 -204156255 574671902 838830797 829198700 1811235515 -1696253465 103318507 -1928903149 -1461821303 1315221752 686868731 1559398685 -1798457027 898510019 1723711276 388692702 1706050605 -1768634819 -752756939 1517169195 -937314581 446513030 65711557 1676133910 1250914354 -246826450 1162645165 -634121481 112518259 -754364760 -522117901
REM
CELL 1.54180   50.00000   50.00000   50.00000   90.00000   90.00000   90.00000
LATT -1
SFAC C  
C      1  0.4279830000000  0.4833430000000  0.5656600000000 1.0
C      1  0.4529670000000  0.5247090000000  0.5664380000000 1.0
C      1  0.5277040000000  0.5358060000000  0.5518660000000 1.0
C      1  0.5722320000000  0.5126450000000  0.5643060000000 1.0
C      1  0.5465250000000  0.4724040000000  0.5683100000000 1.0
C      1  0.4732570000000  0.4652820000000  0.5519830000000 1.0
C      1  0.5720540000000  0.4832690000000  0.5656020000000 1.0
C      1  0.5471130000000  0.5246610000000  0.5663990000000 1.0
C      1  0.4723750000000  0.5358350000000  0.5518880000000 1.0
C      1  0.4278340000000  0.5127190000000  0.5643650000000 1.0
C      1  0.4535030000000  0.4724520000000  0.5683480000000 1.0
C      1  0.5267490000000  0.4652540000000  0.5519610000000 1.0
C      1  0.4365520000000  0.5148530000000  0.4368770000000 1.0
C      1  0.4817930000000  0.5480880000000  0.4501780000000 1.0
C      1  0.5454220000000  0.5483760000000  0.4414090000000 1.0
C      1  0.5646130000000  0.4857830000000  0.4395940000000 1.0
C      1  0.5190020000000  0.4549520000000  0.4514230000000 1.0
C      1  0.4534620000000  0.4530320000000  0.4442150000000 1.0
C      1  0.5634110000000  0.5147880000000  0.4368260000000 1.0
C      1  0.5182160000000  0.5480690000000  0.4501630000000 1.0
C      1  0.4545800000000  0.5484220000000  0.4414460000000 1.0
C      1  0.4353230000000  0.4858490000000  0.4396470000000 1.0
C      1  0.4809120000000  0.4549720000000  0.4514380000000 1.0
C      1  0.5464450000000  0.4529840000000  0.4441770000000 1.0
C      1  0.5144550000000  0.5396710000000  0.5281040000000 1.0
C      1  0.5849740000000  0.5157400000000  0.5383470000000 1.0
C      1  0.5741370000000  0.4573730000000  0.5240720000000 1.0
C      1  0.4856020000000  0.4643560000000  0.5275260000000 1.0
C      1  0.4151960000000  0.4779150000000  0.5399710000000 1.0
C      1  0.4253820000000  0.5358710000000  0.5221670000000 1.0
C      1  0.4856080000000  0.5396850000000  0.5281160000000 1.0
C      1  0.4150730000000  0.5158270000000  0.5384160000000 1.0
C      1  0.4258390000000  0.4574490000000  0.5241330000000 1.0
C      1  0.5143840000000  0.4643410000000  0.5275140000000 1.0
C      1  0.5848130000000  0.4778280000000  0.5399020000000 1.0
C      1  0.5746730000000  0.5357940000000  0.5221060000000 1.0
C      1  0.5626960000000  0.5123050000000  0.4830140000000 1.0
C      1  0.5596870000000  0.4616400000000  0.4994340000000 1.0
C      1  0.4701880000000  0.4633720000000  0.5031540000000 1.0
C      1  0.4264700000000  0.4864440000000  0.4880090000000 1.0
C      1  0.4415500000000  0.5383410000000  0.4985100000000 1.0
C      1  0.5292760000000  0.5417710000000  0.5034300000000 1.0
C      1  0.4373030000000  0.5123690000000  0.4830660000000 1.0
C      1  0.4402730000000  0.4617010000000  0.4994830000000 1.0
C      1  0.5297770000000  0.4633420000000  0.5031290000000 1.0
C      1  0.5735060000000  0.4863680000000  0.4879490000000 1.0
C      1  0.5584880000000  0.5382810000000  0.4984620000000 1.0
C      1  0.4707700000000  0.5418010000000  0.5034540000000 1.0
C      1  0.5141800000000  0.4601340000000  0.4796990000000 1.0
C      1  0.4335930000000  0.4483510000000  0.4661530000000 1.0
C      1  0.4241300000000  0.5247770000000  0.4607980000000 1.0
C      1  0.4857280000000  0.5465310000000  0.4797210000000 1.0
C      1  0.5652840000000  0.5519240000000  0.4634500000000 1.0
C      1  0.5801970000000  0.4742170000000  0.4621830000000 1.0
C      1  0.4857620000000  0.4601490000000  0.4797110000000 1.0
C      1  0.5663260000000  0.4482830000000  0.4660990000000 1.0
C      1  0.5758640000000  0.5246990000000  0.4607360000000 1.0
C      1  0.5143030000000  0.5465160000000  0.4797100000000 1.0
C      1  0.4347390000000  0.5519910000000  0.4635030000000 1.0
C      1  0.4197460000000  0.4742990000000  0.4622490000000 1.0
END
