TITL C-9261-551-147 -8.5718686523522e-07 125000 -364.40301770995 0 0 60 (C3) n - 1
REM
REM in /home/bkarasulu/CARBON/AIRSS/Generating-Clusters/EDIP-Nigel-Params/Higher-Symm/Box-15A/Only-C60/SD-CG/HFTN-CG
REM
REM
REM
REM
REM
REM ./C.cell (414f73aa93bd7a1190c7fd0f31ff2f98)
REM
REM compiler GCC version 9.2.1 20190827 (Red Hat 9.2.1-1)
REM options -cpp -mtune=generic -march=x86-64 -g -O0 -fpre-include=/usr/include/finclude/math-vector-fortran.h
REM seed 1132736012 -659180523 7923579 933493691 466547163 -1606997971 1152334690 1482638863 -673210615 -109353302 1870876984 1582851421 1576490582 404520040 -655415697 -1937265631 -1547783482 -1064633871 -1790514808 -1031466713 -2047843030 -909100516 1196156145 560931810 -803928150 -479514016 1104320811 1501717297 -766502894 -1883914076 379128776 1243371353 860212426
REM
CELL 1.54180   50.00000   50.00000   50.00000   90.00000   90.00000   90.00000
LATT -1
SFAC C  
C      1  0.4967920000000  0.5345380000000  0.5343010000000 1.0
C      1  0.4967910000000  0.5124370000000  0.4529380000000 1.0
C      1  0.4967930000000  0.4530250000000  0.5127600000000 1.0
C      1  0.4345200000000  0.5435840000000  0.5065830000000 1.0
C      1  0.4345210000000  0.4839070000000  0.4589630000000 1.0
C      1  0.4345210000000  0.4725060000000  0.5344550000000 1.0
C      1  0.4809110000000  0.5348140000000  0.4413000000000 1.0
C      1  0.4809130000000  0.4317570000000  0.4992000000000 1.0
C      1  0.4809120000000  0.5334280000000  0.5595000000000 1.0
C      1  0.5299460000000  0.5576700000000  0.5114180000000 1.0
C      1  0.5299470000000  0.4810540000000  0.4443470000000 1.0
C      1  0.5299480000000  0.4612770000000  0.5442340000000 1.0
C      1  0.4537430000000  0.4376100000000  0.5068060000000 1.0
C      1  0.4537420000000  0.5370880000000  0.5506280000000 1.0
C      1  0.4537420000000  0.5253000000000  0.4425660000000 1.0
C      1  0.4540810000000  0.4500250000000  0.5336380000000 1.0
C      1  0.4540790000000  0.5541180000000  0.5264600000000 1.0
C      1  0.4540800000000  0.4958550000000  0.4399020000000 1.0
C      1  0.5754130000000  0.5310300000000  0.5095970000000 1.0
C      1  0.5754140000000  0.4927980000000  0.4683290000000 1.0
C      1  0.5754140000000  0.4761750000000  0.5220730000000 1.0
C      1  0.5418620000000  0.4420760000000  0.5011180000000 1.0
C      1  0.5418610000000  0.5299310000000  0.5496050000000 1.0
C      1  0.5418600000000  0.5279950000000  0.4492770000000 1.0
C      1  0.5575660000000  0.5070230000000  0.5482510000000 1.0
C      1  0.5575650000000  0.5382770000000  0.4697930000000 1.0
C      1  0.5575660000000  0.4547030000000  0.4819550000000 1.0
C      1  0.5809480000000  0.5206980000000  0.4738920000000 1.0
C      1  0.5809490000000  0.4670430000000  0.4951290000000 1.0
C      1  0.5809480000000  0.5122620000000  0.5309780000000 1.0
C      1  0.5233850000000  0.5471960000000  0.5381730000000 1.0
C      1  0.5233850000000  0.5094610000000  0.4400410000000 1.0
C      1  0.5233860000000  0.4433440000000  0.5217860000000 1.0
C      1  0.5016300000000  0.5703620000000  0.4719970000000 1.0
C      1  0.5016320000000  0.4405680000000  0.4530670000000 1.0
C      1  0.5016320000000  0.4890710000000  0.5749360000000 1.0
C      1  0.5491520000000  0.4819700000000  0.5349530000000 1.0
C      1  0.5491510000000  0.5392860000000  0.4981390000000 1.0
C      1  0.5491520000000  0.4787460000000  0.4669080000000 1.0
C      1  0.4744250000000  0.4917610000000  0.5295030000000 1.0
C      1  0.4744240000000  0.5296690000000  0.4923840000000 1.0
C      1  0.4744250000000  0.4785690000000  0.4781140000000 1.0
C      1  0.4882970000000  0.5123670000000  0.5761020000000 1.0
C      1  0.4882950000000  0.5597220000000  0.4512390000000 1.0
C      1  0.4882970000000  0.4279100000000  0.4726590000000 1.0
C      1  0.4986510000000  0.4780750000000  0.4954310000000 1.0
C      1  0.4986510000000  0.5070060000000  0.5212720000000 1.0
C      1  0.4986510000000  0.5149190000000  0.4832970000000 1.0
C      1  0.4271300000000  0.5060160000000  0.4783330000000 1.0
C      1  0.4271300000000  0.4782260000000  0.5056230000000 1.0
C      1  0.4271300000000  0.5157550000000  0.5160440000000 1.0
C      1  0.4465740000000  0.5312320000000  0.4795790000000 1.0
C      1  0.4465750000000  0.4666980000000  0.4831630000000 1.0
C      1  0.4465740000000  0.5020680000000  0.5372590000000 1.0
C      1  0.5035980000000  0.5670260000000  0.4997310000000 1.0
C      1  0.5035990000000  0.4662540000000  0.4420890000000 1.0
C      1  0.5036000000000  0.4667200000000  0.5581810000000 1.0
C      1  0.4813730000000  0.5497170000000  0.5131130000000 1.0
C      1  0.4813740000000  0.4864970000000  0.4503870000000 1.0
C      1  0.4813740000000  0.4637850000000  0.5365010000000 1.0
END
