TITL C-9266-5713-201 -0.000275771878205163 125000 -363.46011898395 0 0 60 (C2) n - 1
REM
REM in /home/bkarasulu/CARBON/AIRSS/Generating-Clusters/EDIP-Nigel-Params/Higher-Symm/Box-15A/Only-C60/SD-CG/HFTN-CG
REM
REM
REM
REM
REM
REM ./C.cell (414f73aa93bd7a1190c7fd0f31ff2f98)
REM
REM compiler GCC version 9.2.1 20190827 (Red Hat 9.2.1-1)
REM options -cpp -mtune=generic -march=x86-64 -g -O0 -fpre-include=/usr/include/finclude/math-vector-fortran.h
REM seed 73459467 -1000795309 -899464603 815698714 -1397178593 1927166131 -49595346 -389571849 1656372664 -7710522 -321698389 -1375271015 -917239116 -274950560 1540472399 2059954060 2021046815 -242634453 50780664 726439214 1915565099 364420005 -1201291582 -969125848 1296983563 -2103213094 -1252640959 303516223 -1180370965 59484966 -687087786 2113946211 1733809500
REM
CELL 1.54180   50.00000   50.00000   50.00000   90.00000   90.00000   90.00000
LATT -1
SFAC C  
C      1  0.5268410000000  0.4524390000000  0.4615150000000 1.0
C      1  0.4788740000000  0.4505530000000  0.4543560000000 1.0
C      1  0.4495060000000  0.4509570000000  0.4962590000000 1.0
C      1  0.4731000000000  0.4527450000000  0.5388190000000 1.0
C      1  0.5210650000000  0.4508490000000  0.5459910000000 1.0
C      1  0.5504320000000  0.4509220000000  0.5040860000000 1.0
C      1  0.4947990000000  0.4621170000000  0.5612830000000 1.0
C      1  0.5484010000000  0.4624470000000  0.5340870000000 1.0
C      1  0.5556690000000  0.4620540000000  0.4738650000000 1.0
C      1  0.5051530000000  0.4616800000000  0.4389850000000 1.0
C      1  0.4515520000000  0.4622680000000  0.4661780000000 1.0
C      1  0.4442830000000  0.4623090000000  0.5264010000000 1.0
C      1  0.4689750000000  0.5515530000000  0.5432870000000 1.0
C      1  0.5228780000000  0.5538730000000  0.5492980000000 1.0
C      1  0.5536400000000  0.5533840000000  0.5053730000000 1.0
C      1  0.5310900000000  0.5512080000000  0.4563510000000 1.0
C      1  0.4771890000000  0.5535530000000  0.4503240000000 1.0
C      1  0.4464270000000  0.5534120000000  0.4942510000000 1.0
C      1  0.5631920000000  0.4892710000000  0.4707360000000 1.0
C      1  0.5056120000000  0.4886330000000  0.4304230000000 1.0
C      1  0.4473890000000  0.4897600000000  0.4619010000000 1.0
C      1  0.4367950000000  0.4895560000000  0.5293390000000 1.0
C      1  0.4943740000000  0.4891300000000  0.5696550000000 1.0
C      1  0.5525990000000  0.4899630000000  0.5381710000000 1.0
C      1  0.5288620000000  0.5683290000000  0.5028210000000 1.0
C      1  0.5168080000000  0.5650970000000  0.4768550000000 1.0
C      1  0.4884170000000  0.5665460000000  0.4734200000000 1.0
C      1  0.4712240000000  0.5683430000000  0.4966980000000 1.0
C      1  0.4832740000000  0.5652800000000  0.5226850000000 1.0
C      1  0.5116670000000  0.5667170000000  0.5261110000000 1.0
C      1  0.4891390000000  0.5410210000000  0.5618870000000 1.0
C      1  0.5498410000000  0.5433310000000  0.5428210000000 1.0
C      1  0.5603000000000  0.5411160000000  0.4788050000000 1.0
C      1  0.5109120000000  0.5405710000000  0.4378260000000 1.0
C      1  0.4502130000000  0.5430910000000  0.4568750000000 1.0
C      1  0.4397520000000  0.5413390000000  0.5209050000000 1.0
C      1  0.5245000000000  0.5262750000000  0.5143410000000 1.0
C      1  0.5257820000000  0.5106750000000  0.4881330000000 1.0
C      1  0.4988530000000  0.5107430000000  0.4717320000000 1.0
C      1  0.4755330000000  0.5262040000000  0.4854740000000 1.0
C      1  0.4742320000000  0.5107910000000  0.5117910000000 1.0
C      1  0.5011600000000  0.5109410000000  0.5281920000000 1.0
C      1  0.4697430000000  0.4274940000000  0.4978170000000 1.0
C      1  0.4821770000000  0.4255320000000  0.5257070000000 1.0
C      1  0.5127160000000  0.4274950000000  0.5275710000000 1.0
C      1  0.5301660000000  0.4274740000000  0.5026940000000 1.0
C      1  0.5177300000000  0.4253310000000  0.4748180000000 1.0
C      1  0.4871930000000  0.4273180000000  0.4729400000000 1.0
C      1  0.5284090000000  0.4828680000000  0.5010140000000 1.0
C      1  0.5126360000000  0.4685720000000  0.4819960000000 1.0
C      1  0.4888950000000  0.4827450000000  0.4741780000000 1.0
C      1  0.4715700000000  0.4828970000000  0.4991070000000 1.0
C      1  0.4873250000000  0.4687160000000  0.5182250000000 1.0
C      1  0.5110840000000  0.4829130000000  0.5259430000000 1.0
C      1  0.5014590000000  0.5135790000000  0.4429440000000 1.0
C      1  0.4499450000000  0.5164400000000  0.4705770000000 1.0
C      1  0.4498600000000  0.5146350000000  0.5275360000000 1.0
C      1  0.4985590000000  0.5139830000000  0.5569590000000 1.0
C      1  0.5500750000000  0.5165840000000  0.5293060000000 1.0
C      1  0.5501580000000  0.5143780000000  0.4723620000000 1.0
END
