TITL C-9261-551-197 1.94601827966198e-06 125000 -374.314013979408 0 0 60 (D2) n - 1
REM
REM in /home/bkarasulu/CARBON/AIRSS/Generating-Clusters/EDIP-Nigel-Params/Higher-Symm/Box-15A/Only-C60/SD-CG/HFTN-CG
REM
REM
REM
REM
REM
REM ./C.cell (414f73aa93bd7a1190c7fd0f31ff2f98)
REM
REM compiler GCC version 9.2.1 20190827 (Red Hat 9.2.1-1)
REM options -cpp -mtune=generic -march=x86-64 -g -O0 -fpre-include=/usr/include/finclude/math-vector-fortran.h
REM seed 1033342102 555063983 447826765 -1650607363 -1052339336 1820864001 1556109134 402785475 -1700893556 -1815937254 -1970427760 1650953798 -1677421236 669804680 1979433182 1718371298 -649793310 -1219514420 -591434149 1530711061 489350687 -1336029241 -439081923 -1955230025 874800041 -1740369506 1683133751 295520302 1401349459 1599375114 -143920433 -1413941743 1746000258
REM
CELL 1.54180   50.00000   50.00000   50.00000   90.00000   90.00000   90.00000
LATT -1
SFAC C  
C      1  0.5343310000000  0.5365120000000  0.4566450000000 1.0
C      1  0.4651610000000  0.4634210000000  0.4571080000000 1.0
C      1  0.4650960000000  0.5360280000000  0.5433030000000 1.0
C      1  0.5354120000000  0.4640390000000  0.5429440000000 1.0
C      1  0.5354400000000  0.4893860000000  0.5568820000000 1.0
C      1  0.4652320000000  0.5107030000000  0.5572790000000 1.0
C      1  0.4647330000000  0.4887440000000  0.4431340000000 1.0
C      1  0.5345950000000  0.5111680000000  0.4427060000000 1.0
C      1  0.4425180000000  0.5064640000000  0.5138250000000 1.0
C      1  0.5576410000000  0.4935560000000  0.5131580000000 1.0
C      1  0.5573730000000  0.5073520000000  0.4861650000000 1.0
C      1  0.4424690000000  0.4926270000000  0.4868520000000 1.0
C      1  0.4603520000000  0.5313660000000  0.5145160000000 1.0
C      1  0.5398170000000  0.4686560000000  0.5140970000000 1.0
C      1  0.5391480000000  0.5319680000000  0.4854380000000 1.0
C      1  0.4606840000000  0.4680100000000  0.4859490000000 1.0
C      1  0.4934640000000  0.4637800000000  0.5648820000000 1.0
C      1  0.5072990000000  0.5363200000000  0.5647440000000 1.0
C      1  0.5071080000000  0.4637940000000  0.4351710000000 1.0
C      1  0.4921290000000  0.5361060000000  0.4352030000000 1.0
C      1  0.4810410000000  0.4191550000000  0.5308150000000 1.0
C      1  0.5193200000000  0.5808920000000  0.5304650000000 1.0
C      1  0.5202350000000  0.4194210000000  0.4693020000000 1.0
C      1  0.4794040000000  0.5805320000000  0.4694180000000 1.0
C      1  0.4754210000000  0.4690700000000  0.5315300000000 1.0
C      1  0.5249480000000  0.5309790000000  0.5311910000000 1.0
C      1  0.5250650000000  0.4694160000000  0.4685150000000 1.0
C      1  0.4745660000000  0.5305350000000  0.4687650000000 1.0
C      1  0.4920110000000  0.4877780000000  0.4296830000000 1.0
C      1  0.5071610000000  0.5121140000000  0.4295750000000 1.0
C      1  0.5081810000000  0.4880080000000  0.5703350000000 1.0
C      1  0.4926480000000  0.5121010000000  0.5704070000000 1.0
C      1  0.4626880000000  0.5581050000000  0.4747920000000 1.0
C      1  0.5370140000000  0.4418560000000  0.4744440000000 1.0
C      1  0.5363890000000  0.5587240000000  0.5251230000000 1.0
C      1  0.4639100000000  0.4413150000000  0.5256400000000 1.0
C      1  0.5101300000000  0.5505120000000  0.4517500000000 1.0
C      1  0.4893030000000  0.4494130000000  0.4519510000000 1.0
C      1  0.4890730000000  0.5504160000000  0.5481770000000 1.0
C      1  0.5114940000000  0.4496580000000  0.5481230000000 1.0
C      1  0.4843640000000  0.4809660000000  0.5030960000000 1.0
C      1  0.5156710000000  0.5190390000000  0.5028820000000 1.0
C      1  0.5159350000000  0.4812110000000  0.4969320000000 1.0
C      1  0.4840300000000  0.5187850000000  0.4970910000000 1.0
C      1  0.4552580000000  0.5588550000000  0.5027310000000 1.0
C      1  0.5447710000000  0.4411490000000  0.5022950000000 1.0
C      1  0.5438060000000  0.5595510000000  0.4971830000000 1.0
C      1  0.4561650000000  0.4404450000000  0.4977910000000 1.0
C      1  0.5065940000000  0.5747820000000  0.4660180000000 1.0
C      1  0.4930070000000  0.4251650000000  0.4662130000000 1.0
C      1  0.4922250000000  0.5747180000000  0.5338740000000 1.0
C      1  0.5081740000000  0.4253340000000  0.5338950000000 1.0
C      1  0.5466390000000  0.5102090000000  0.5373010000000 1.0
C      1  0.4538040000000  0.4898490000000  0.5378640000000 1.0
C      1  0.4532060000000  0.5094170000000  0.4626840000000 1.0
C      1  0.5463510000000  0.4905260000000  0.4621510000000 1.0
C      1  0.5293190000000  0.4213530000000  0.5156800000000 1.0
C      1  0.4708660000000  0.5786710000000  0.5159030000000 1.0
C      1  0.4719280000000  0.4208770000000  0.4844340000000 1.0
C      1  0.5278860000000  0.5790990000000  0.4839830000000 1.0
END
