TITL C-9263-351-85 4.64988907479059e-07 125000 -358.929612775833 0 0 60 (Cs) n - 1
REM
REM in /home/bkarasulu/CARBON/AIRSS/Generating-Clusters/EDIP-Nigel-Params/Higher-Symm/Box-15A/Only-C60/SD-CG/HFTN-CG
REM
REM
REM
REM
REM
REM ./C.cell (414f73aa93bd7a1190c7fd0f31ff2f98)
REM
REM compiler GCC version 9.2.1 20190827 (Red Hat 9.2.1-1)
REM options -cpp -mtune=generic -march=x86-64 -g -O0 -fpre-include=/usr/include/finclude/math-vector-fortran.h
REM seed 381142925 -2147278399 625177686 495740938 -739457705 -1619412926 -492790821 762033401 -1627468328 -5580591 190272151 -1462472898 -878982226 -74725924 -978854494 -2089693536 -402821134 -1323707652 141305463 2013157652 414992264 2095206143 -1444165395 2061453195 -1685409733 -1231272470 -398971728 -963152766 106560936 1103377052 150080264 1158179201 680630951
REM
CELL 1.54180   50.00000   50.00000   50.00000   90.00000   90.00000   90.00000
LATT -1
SFAC C  
C      1  0.4872260000000  0.5562770000000  0.4945950000000 1.0
C      1  0.4862720000000  0.4438400000000  0.4953660000000 1.0
C      1  0.4374030000000  0.5305920000000  0.5384270000000 1.0
C      1  0.4372160000000  0.4710320000000  0.5388420000000 1.0
C      1  0.5556200000000  0.5302020000000  0.4574430000000 1.0
C      1  0.5550800000000  0.4681430000000  0.4579310000000 1.0
C      1  0.4986980000000  0.5248630000000  0.5294290000000 1.0
C      1  0.4982180000000  0.4756210000000  0.5297550000000 1.0
C      1  0.5341340000000  0.5464580000000  0.5542270000000 1.0
C      1  0.5332540000000  0.4537670000000  0.5549560000000 1.0
C      1  0.4338400000000  0.4719700000000  0.4911150000000 1.0
C      1  0.4343500000000  0.5289930000000  0.4907440000000 1.0
C      1  0.5292460000000  0.5168370000000  0.4493040000000 1.0
C      1  0.5289530000000  0.4818540000000  0.4495670000000 1.0
C      1  0.5427430000000  0.5198030000000  0.5487280000000 1.0
C      1  0.5423560000000  0.4801620000000  0.5490410000000 1.0
C      1  0.4621050000000  0.4399760000000  0.5102320000000 1.0
C      1  0.4631620000000  0.5607440000000  0.5094900000000 1.0
C      1  0.5385360000000  0.5534700000000  0.4972940000000 1.0
C      1  0.5375790000000  0.4457970000000  0.4981450000000 1.0
C      1  0.4515160000000  0.5340010000000  0.5131070000000 1.0
C      1  0.4509810000000  0.4669710000000  0.5134920000000 1.0
C      1  0.5081610000000  0.5605440000000  0.4317210000000 1.0
C      1  0.5070960000000  0.4382540000000  0.4326660000000 1.0
C      1  0.4771310000000  0.5309780000000  0.5663630000000 1.0
C      1  0.4767680000000  0.4706500000000  0.5669510000000 1.0
C      1  0.5118530000000  0.4376670000000  0.5434680000000 1.0
C      1  0.5130420000000  0.5627790000000  0.5424580000000 1.0
C      1  0.4873010000000  0.5265740000000  0.4831250000000 1.0
C      1  0.4868600000000  0.4733760000000  0.4834680000000 1.0
C      1  0.5153200000000  0.4843800000000  0.4779940000000 1.0
C      1  0.5155770000000  0.5150000000000  0.4777740000000 1.0
C      1  0.5457330000000  0.5574910000000  0.4676360000000 1.0
C      1  0.5447060000000  0.4411970000000  0.4685500000000 1.0
C      1  0.5367860000000  0.4753530000000  0.4980850000000 1.0
C      1  0.5372150000000  0.5239400000000  0.4977070000000 1.0
C      1  0.5254860000000  0.5686200000000  0.4519750000000 1.0
C      1  0.5242680000000  0.4301890000000  0.4530540000000 1.0
C      1  0.5631430000000  0.5143560000000  0.4832470000000 1.0
C      1  0.5628830000000  0.4842510000000  0.4834860000000 1.0
C      1  0.4546950000000  0.4860530000000  0.5546650000000 1.0
C      1  0.4553240000000  0.5156080000000  0.5537260000000 1.0
C      1  0.5003930000000  0.4867380000000  0.5665680000000 1.0
C      1  0.5006000000000  0.5146970000000  0.5665530000000 1.0
C      1  0.5114800000000  0.4373330000000  0.5114770000000 1.0
C      1  0.5126110000000  0.5626080000000  0.5105080000000 1.0
C      1  0.4768850000000  0.4848680000000  0.5103020000000 1.0
C      1  0.4771560000000  0.5156400000000  0.5101340000000 1.0
C      1  0.5268200000000  0.5143150000000  0.5245050000000 1.0
C      1  0.5265500000000  0.4855670000000  0.5247220000000 1.0
C      1  0.4856490000000  0.4574410000000  0.4349070000000 1.0
C      1  0.4863770000000  0.5417800000000  0.4342700000000 1.0
C      1  0.5112040000000  0.4689980000000  0.4284160000000 1.0
C      1  0.5117190000000  0.5296690000000  0.4279540000000 1.0
C      1  0.4858110000000  0.5546770000000  0.5511580000000 1.0
C      1  0.4847940000000  0.4465060000000  0.5520410000000 1.0
C      1  0.4665950000000  0.5150190000000  0.4635740000000 1.0
C      1  0.4663390000000  0.4850170000000  0.4637700000000 1.0
C      1  0.4403670000000  0.4741830000000  0.4650680000000 1.0
C      1  0.4408120000000  0.5263120000000  0.4647260000000 1.0
END
