TITL C-9265-7156-124 2.2427270075897e-06 125000 -366.805699714762 0 0 60 (C1) n - 1
REM
REM in /home/bkarasulu/CARBON/AIRSS/Generating-Clusters/EDIP-Nigel-Params/Higher-Symm/Box-15A/Only-C60/SD-CG/HFTN-CG
REM
REM
REM
REM
REM
REM ./C.cell (414f73aa93bd7a1190c7fd0f31ff2f98)
REM
REM compiler GCC version 9.2.1 20190827 (Red Hat 9.2.1-1)
REM options -cpp -mtune=generic -march=x86-64 -g -O0 -fpre-include=/usr/include/finclude/math-vector-fortran.h
REM seed 1350516756 -1629711743 -811397467 -1330172775 -863020536 -1843103875 -2136864694 901505735 -495654398 -522366776 -524396998 950024548 -831488999 744244829 1284459333 1938909651 1120405827 -280288948 1527622278 1970833264 -1202658180 -1486354810 -1186556389 -1271230359 2009597951 -398834372 491153269 -2127955133 237103220 1093255844 -471208552 -1057127513 1842145956
REM
CELL 1.54180   50.00000   50.00000   50.00000   90.00000   90.00000   90.00000
LATT -1
SFAC C  
C      1  0.4630040000000  0.5513700000000  0.4835480000000 1.0
C      1  0.4645950000000  0.4612970000000  0.4653070000000 1.0
C      1  0.4625220000000  0.4886240000000  0.5518100000000 1.0
C      1  0.4798770000000  0.5663890000000  0.5035600000000 1.0
C      1  0.4785960000000  0.4695560000000  0.4403400000000 1.0
C      1  0.4781210000000  0.4638100000000  0.5569640000000 1.0
C      1  0.4949120000000  0.5180920000000  0.5169410000000 1.0
C      1  0.4907410000000  0.5084420000000  0.4764120000000 1.0
C      1  0.4896810000000  0.4786810000000  0.5053430000000 1.0
C      1  0.4253380000000  0.5218540000000  0.5054120000000 1.0
C      1  0.4257610000000  0.4939580000000  0.4778170000000 1.0
C      1  0.4252840000000  0.4839430000000  0.5157710000000 1.0
C      1  0.4781460000000  0.4405900000000  0.4822850000000 1.0
C      1  0.4759240000000  0.5135180000000  0.5612700000000 1.0
C      1  0.4754500000000  0.5476190000000  0.4564740000000 1.0
C      1  0.5578010000000  0.4666330000000  0.4700680000000 1.0
C      1  0.5566570000000  0.4923810000000  0.5528670000000 1.0
C      1  0.5558970000000  0.5460510000000  0.4841350000000 1.0
C      1  0.4707680000000  0.4541550000000  0.5089390000000 1.0
C      1  0.4708410000000  0.5293030000000  0.5354680000000 1.0
C      1  0.4697790000000  0.5172870000000  0.4553480000000 1.0
C      1  0.5072280000000  0.5620740000000  0.4915140000000 1.0
C      1  0.5062740000000  0.4609500000000  0.4499560000000 1.0
C      1  0.5053260000000  0.4761100000000  0.5614150000000 1.0
C      1  0.5213090000000  0.5265570000000  0.5509280000000 1.0
C      1  0.5193340000000  0.5332060000000  0.4437190000000 1.0
C      1  0.5222030000000  0.4373660000000  0.5024500000000 1.0
C      1  0.5644730000000  0.4515490000000  0.5235840000000 1.0
C      1  0.5602050000000  0.5282660000000  0.5250980000000 1.0
C      1  0.5594650000000  0.5117830000000  0.4569900000000 1.0
C      1  0.5084290000000  0.5297860000000  0.4903830000000 1.0
C      1  0.5068640000000  0.4789280000000  0.4777960000000 1.0
C      1  0.5107450000000  0.4919040000000  0.5263930000000 1.0
C      1  0.4397940000000  0.5154210000000  0.4628760000000 1.0
C      1  0.4403940000000  0.4602630000000  0.5055730000000 1.0
C      1  0.4402810000000  0.5242560000000  0.5308260000000 1.0
C      1  0.4817940000000  0.5572400000000  0.5330290000000 1.0
C      1  0.4804750000000  0.4997050000000  0.4331000000000 1.0
C      1  0.4811450000000  0.4426970000000  0.5348760000000 1.0
C      1  0.5473450000000  0.5355650000000  0.4479790000000 1.0
C      1  0.5513120000000  0.4428000000000  0.4998670000000 1.0
C      1  0.5495330000000  0.5193310000000  0.5495280000000 1.0
C      1  0.4371610000000  0.5365830000000  0.4828310000000 1.0
C      1  0.4382630000000  0.4671040000000  0.4769990000000 1.0
C      1  0.4367830000000  0.4965920000000  0.5398840000000 1.0
C      1  0.5401610000000  0.4974170000000  0.5126020000000 1.0
C      1  0.5377930000000  0.5203380000000  0.4880210000000 1.0
C      1  0.5361010000000  0.4768850000000  0.4888800000000 1.0
C      1  0.5041680000000  0.5079220000000  0.5663320000000 1.0
C      1  0.5030920000000  0.5548230000000  0.4542290000000 1.0
C      1  0.5060710000000  0.4347900000000  0.4781270000000 1.0
C      1  0.5114280000000  0.5527850000000  0.5391810000000 1.0
C      1  0.5097570000000  0.5068020000000  0.4326050000000 1.0
C      1  0.5108920000000  0.4395230000000  0.5301470000000 1.0
C      1  0.5265680000000  0.5645850000000  0.5162350000000 1.0
C      1  0.5253320000000  0.4819170000000  0.4373510000000 1.0
C      1  0.5250250000000  0.4571600000000  0.5490760000000 1.0
C      1  0.5525860000000  0.4852780000000  0.4487600000000 1.0
C      1  0.5510420000000  0.4668540000000  0.5427240000000 1.0
C      1  0.5541550000000  0.5533310000000  0.5120610000000 1.0
END
