TITL C-9262-5533-35 1.12612479749737e-07 125000 -374.104234105667 0 0 60 (C1) n - 1
REM
REM in /home/bkarasulu/CARBON/AIRSS/Generating-Clusters/EDIP-Nigel-Params/Higher-Symm/Box-15A/Only-C60/SD-CG/HFTN-CG
REM
REM
REM
REM
REM
REM ./C.cell (414f73aa93bd7a1190c7fd0f31ff2f98)
REM
REM compiler GCC version 9.2.1 20190827 (Red Hat 9.2.1-1)
REM options -cpp -mtune=generic -march=x86-64 -g -O0 -fpre-include=/usr/include/finclude/math-vector-fortran.h
REM seed -140373073 -1767668864 -576593261 503007386 1502177824 -1001784918 931649284 -1334931044 -8501496 -479994085 1773976594 770895605 -868593083 -1362101676 1221584095 76219317 1130685944 -698714140 2104309126 -1231050153 95059470 -1636819416 -1824730050 -440982678 1600992597 -658831640 1288953925 657012966 -1232344259 -1421078535 889843326 -1665910963 -1418792571
REM
CELL 1.54180   50.00000   50.00000   50.00000   90.00000   90.00000   90.00000
LATT -1
SFAC C  
C      1  0.5489990000000  0.4743150000000  0.5025240000000 1.0
C      1  0.4983210000000  0.5589100000000  0.4480360000000 1.0
C      1  0.5564550000000  0.5187080000000  0.5296670000000 1.0
C      1  0.5342790000000  0.4316420000000  0.4512290000000 1.0
C      1  0.4887650000000  0.5005410000000  0.4841260000000 1.0
C      1  0.4444560000000  0.4586700000000  0.4984210000000 1.0
C      1  0.5098050000000  0.4387490000000  0.4914690000000 1.0
C      1  0.4731290000000  0.4514030000000  0.5532210000000 1.0
C      1  0.4838030000000  0.4544310000000  0.4451830000000 1.0
C      1  0.4763200000000  0.5658320000000  0.4956390000000 1.0
C      1  0.4624310000000  0.4740960000000  0.4530940000000 1.0
C      1  0.4526750000000  0.4727740000000  0.5471610000000 1.0
C      1  0.4866290000000  0.4265440000000  0.4503500000000 1.0
C      1  0.5315010000000  0.4791600000000  0.5473250000000 1.0
C      1  0.5077420000000  0.4701640000000  0.4370320000000 1.0
C      1  0.5022100000000  0.4994710000000  0.4388950000000 1.0
C      1  0.5235550000000  0.5150060000000  0.4548990000000 1.0
C      1  0.4750830000000  0.5454440000000  0.4408350000000 1.0
C      1  0.5111670000000  0.5281820000000  0.5668040000000 1.0
C      1  0.5686900000000  0.5159270000000  0.4677890000000 1.0
C      1  0.4872210000000  0.4872720000000  0.5747270000000 1.0
C      1  0.5512790000000  0.5049360000000  0.4476310000000 1.0
C      1  0.5550080000000  0.5382640000000  0.4788940000000 1.0
C      1  0.4353430000000  0.5043630000000  0.5134520000000 1.0
C      1  0.5670740000000  0.4800330000000  0.4802630000000 1.0
C      1  0.5325280000000  0.4597680000000  0.4486000000000 1.0
C      1  0.4600990000000  0.5406060000000  0.4963870000000 1.0
C      1  0.4770940000000  0.4997360000000  0.4558000000000 1.0
C      1  0.4620580000000  0.4972020000000  0.5621300000000 1.0
C      1  0.4919400000000  0.4509500000000  0.5306280000000 1.0
C      1  0.4445900000000  0.5290760000000  0.4735890000000 1.0
C      1  0.5563910000000  0.4762460000000  0.4523440000000 1.0
C      1  0.4609470000000  0.4360460000000  0.4965690000000 1.0
C      1  0.5106750000000  0.4253110000000  0.4655660000000 1.0
C      1  0.5262730000000  0.5459780000000  0.4541510000000 1.0
C      1  0.5328910000000  0.4496180000000  0.5074880000000 1.0
C      1  0.5091010000000  0.4987780000000  0.5569820000000 1.0
C      1  0.5145350000000  0.5125480000000  0.4840560000000 1.0
C      1  0.5353740000000  0.5415180000000  0.5708060000000 1.0
C      1  0.4843540000000  0.5653640000000  0.5464130000000 1.0
C      1  0.5494210000000  0.4903550000000  0.5269460000000 1.0
C      1  0.4864560000000  0.4345750000000  0.5076430000000 1.0
C      1  0.4499470000000  0.5291510000000  0.5217340000000 1.0
C      1  0.4923920000000  0.5721820000000  0.5204380000000 1.0
C      1  0.4954410000000  0.5086560000000  0.5295900000000 1.0
C      1  0.4823470000000  0.4892270000000  0.5105350000000 1.0
C      1  0.5538470000000  0.5301130000000  0.5549570000000 1.0
C      1  0.4309880000000  0.5038270000000  0.4837160000000 1.0
C      1  0.4702400000000  0.5208190000000  0.5437500000000 1.0
C      1  0.5174650000000  0.5590890000000  0.5111450000000 1.0
C      1  0.4392280000000  0.4743580000000  0.4733020000000 1.0
C      1  0.5241110000000  0.5691040000000  0.4847390000000 1.0
C      1  0.4862390000000  0.4591100000000  0.5773420000000 1.0
C      1  0.5210390000000  0.4537980000000  0.5348550000000 1.0
C      1  0.4972050000000  0.5726750000000  0.4739240000000 1.0
C      1  0.5555830000000  0.5372040000000  0.5074410000000 1.0
C      1  0.4600950000000  0.5236810000000  0.4492190000000 1.0
C      1  0.4535810000000  0.4804970000000  0.5176700000000 1.0
C      1  0.4851410000000  0.5413160000000  0.5597510000000 1.0
C      1  0.5184480000000  0.5266820000000  0.5111280000000 1.0
END
