TITL C-9257-5531-222 -5.27473648531001e-07 125000 -365.329504090142 0 0 60 (Cs) n - 1
REM
REM in /home/bkarasulu/CARBON/AIRSS/Generating-Clusters/EDIP-Nigel-Params/Higher-Symm/Box-15A/Only-C60/SD-CG/HFTN-CG
REM
REM
REM
REM
REM
REM ./C.cell (414f73aa93bd7a1190c7fd0f31ff2f98)
REM
REM compiler GCC version 9.2.1 20190827 (Red Hat 9.2.1-1)
REM options -cpp -mtune=generic -march=x86-64 -g -O0 -fpre-include=/usr/include/finclude/math-vector-fortran.h
REM seed 1290349897 -1360747651 -170919374 1115772268 -1461661529 -535076554 -164955316 303641671 570901519 503246647 151428135 1769604959 1741207543 1160735183 1457450080 -1922428228 261884450 404667123 487989240 -1513098950 -1653116389 230498905 -113167662 439713730 875363769 -1345508043 -2109763234 -1461550319 1956632828 1821284031 104815270 -2023686639 -977001234
REM
CELL 1.54180   50.00000   50.00000   50.00000   90.00000   90.00000   90.00000
LATT -1
SFAC C  
C      1  0.5472180000000  0.5542180000000  0.5155420000000 1.0
C      1  0.4514900000000  0.4457760000000  0.5161620000000 1.0
C      1  0.4529910000000  0.5540610000000  0.5166780000000 1.0
C      1  0.5490660000000  0.4459380000000  0.5149850000000 1.0
C      1  0.5814520000000  0.4851440000000  0.4743010000000 1.0
C      1  0.4239910000000  0.5093840000000  0.4884660000000 1.0
C      1  0.4180020000000  0.4848730000000  0.4762720000000 1.0
C      1  0.5756770000000  0.5096360000000  0.4866370000000 1.0
C      1  0.5566690000000  0.5269160000000  0.4718890000000 1.0
C      1  0.4406070000000  0.4707250000000  0.4674510000000 1.0
C      1  0.4425810000000  0.5267260000000  0.4732650000000 1.0
C      1  0.5586880000000  0.4709210000000  0.4660270000000 1.0
C      1  0.4566950000000  0.5143770000000  0.4498400000000 1.0
C      1  0.5429820000000  0.4853840000000  0.4454190000000 1.0
C      1  0.5420350000000  0.5145190000000  0.4488110000000 1.0
C      1  0.4557630000000  0.4852390000000  0.4464710000000 1.0
C      1  0.5543590000000  0.5256630000000  0.5569650000000 1.0
C      1  0.4654920000000  0.4705570000000  0.5589660000000 1.0
C      1  0.4469460000000  0.5254840000000  0.5582600000000 1.0
C      1  0.5360180000000  0.4706740000000  0.5581160000000 1.0
C      1  0.5390320000000  0.4620080000000  0.4877030000000 1.0
C      1  0.4629150000000  0.5392480000000  0.4914660000000 1.0
C      1  0.4608090000000  0.4618780000000  0.4886470000000 1.0
C      1  0.5367380000000  0.5393710000000  0.4905760000000 1.0
C      1  0.4250790000000  0.4855510000000  0.5319160000000 1.0
C      1  0.5739460000000  0.5101330000000  0.5160520000000 1.0
C      1  0.5757170000000  0.4858010000000  0.5300990000000 1.0
C      1  0.4264300000000  0.5098890000000  0.5178320000000 1.0
C      1  0.4808130000000  0.5584940000000  0.5297420000000 1.0
C      1  0.5196840000000  0.4408700000000  0.5220610000000 1.0
C      1  0.5197050000000  0.5585580000000  0.5292730000000 1.0
C      1  0.4810500000000  0.4408050000000  0.5225270000000 1.0
C      1  0.4799140000000  0.5277470000000  0.4388290000000 1.0
C      1  0.5186040000000  0.4726610000000  0.4360730000000 1.0
C      1  0.5185120000000  0.5278110000000  0.4383630000000 1.0
C      1  0.4799510000000  0.4725970000000  0.4365400000000 1.0
C      1  0.5146000000000  0.5289770000000  0.5316510000000 1.0
C      1  0.4858790000000  0.4708720000000  0.5258680000000 1.0
C      1  0.4860710000000  0.5289300000000  0.5319950000000 1.0
C      1  0.5148370000000  0.4709200000000  0.5255180000000 1.0
C      1  0.4813080000000  0.4440390000000  0.4755320000000 1.0
C      1  0.5178640000000  0.5580530000000  0.4763300000000 1.0
C      1  0.5182820000000  0.4441010000000  0.4750860000000 1.0
C      1  0.4813780000000  0.5579920000000  0.4767700000000 1.0
C      1  0.4743130000000  0.5188530000000  0.5573110000000 1.0
C      1  0.5164920000000  0.4923710000000  0.5635240000000 1.0
C      1  0.5269990000000  0.5189410000000  0.5566750000000 1.0
C      1  0.4850700000000  0.4923180000000  0.5639030000000 1.0
C      1  0.5221970000000  0.5163420000000  0.5048650000000 1.0
C      1  0.4750980000000  0.4863640000000  0.5025040000000 1.0
C      1  0.4778720000000  0.5162680000000  0.5054000000000 1.0
C      1  0.5250010000000  0.4864470000000  0.5019020000000 1.0
C      1  0.4369160000000  0.5332930000000  0.5326650000000 1.0
C      1  0.5574400000000  0.4651740000000  0.5375500000000 1.0
C      1  0.5637430000000  0.5335030000000  0.5311350000000 1.0
C      1  0.4435990000000  0.4649850000000  0.5389230000000 1.0
C      1  0.4847610000000  0.4458750000000  0.4462780000000 1.0
C      1  0.5140140000000  0.5549350000000  0.4470580000000 1.0
C      1  0.5141190000000  0.4459240000000  0.4459240000000 1.0
C      1  0.4845310000000  0.5548860000000  0.4474140000000 1.0
END
