TITL C-9270-2362-181 5.32566350733307e-05 125000 -365.173095949392 0 0 60 (C4) n - 1
REM
REM in /home/bkarasulu/CARBON/AIRSS/Generating-Clusters/EDIP-Nigel-Params/Higher-Symm/Box-15A/Only-C60/SD-CG/HFTN-CG
REM
REM
REM
REM
REM
REM ./C.cell (414f73aa93bd7a1190c7fd0f31ff2f98)
REM
REM compiler GCC version 9.2.1 20190827 (Red Hat 9.2.1-1)
REM options -cpp -mtune=generic -march=x86-64 -g -O0 -fpre-include=/usr/include/finclude/math-vector-fortran.h
REM seed -153161729 -44244473 -208392815 1446923527 1645083419 445686159 -111023330 -439609748 400452197 -373934076 -421870224 -231183269 426747382 586448372 2099303226 2012902035 109865804 755613831 2113099410 619399258 946533704 -668737985 1859567036 -1005194234 800755233 2082475512 1901269985 651882786 -1982120925 -378743909 -1574131702 1709259888 1187772676
REM
CELL 1.54180   50.00000   50.00000   50.00000   90.00000   90.00000   90.00000
LATT -1
SFAC C  
C      1  0.5362740000000  0.5151650000000  0.4276190000000 1.0
C      1  0.4276440000000  0.5150660000000  0.4636320000000 1.0
C      1  0.4636570000000  0.5155500000000  0.5722600000000 1.0
C      1  0.5722860000000  0.5156480000000  0.5362470000000 1.0
C      1  0.5339860000000  0.4835110000000  0.4260630000000 1.0
C      1  0.4260390000000  0.4834290000000  0.4661060000000 1.0
C      1  0.4660810000000  0.4839190000000  0.5740520000000 1.0
C      1  0.5740280000000  0.4840010000000  0.5340100000000 1.0
C      1  0.4302510000000  0.5164590000000  0.4945900000000 1.0
C      1  0.4946170000000  0.5168780000000  0.5696460000000 1.0
C      1  0.5696740000000  0.5167980000000  0.5052790000000 1.0
C      1  0.5053080000000  0.5163790000000  0.4302230000000 1.0
C      1  0.4238540000000  0.4873940000000  0.4978390000000 1.0
C      1  0.4978200000000  0.4878460000000  0.5762140000000 1.0
C      1  0.5761960000000  0.4877370000000  0.5022480000000 1.0
C      1  0.5022300000000  0.4872850000000  0.4238720000000 1.0
C      1  0.4748010000000  0.4468380000000  0.5429620000000 1.0
C      1  0.5428780000000  0.4469180000000  0.5255070000000 1.0
C      1  0.5254240000000  0.4466260000000  0.4574300000000 1.0
C      1  0.4573470000000  0.4465450000000  0.4748850000000 1.0
C      1  0.4653770000000  0.5520940000000  0.5383420000000 1.0
C      1  0.5384270000000  0.5522350000000  0.5343110000000 1.0
C      1  0.5343960000000  0.5519530000000  0.4612620000000 1.0
C      1  0.4613470000000  0.5518120000000  0.4652930000000 1.0
C      1  0.5447720000000  0.4502000000000  0.4970860000000 1.0
C      1  0.4970080000000  0.4499420000000  0.4555180000000 1.0
C      1  0.4554390000000  0.4500310000000  0.5032810000000 1.0
C      1  0.5032020000000  0.4502890000000  0.5448500000000 1.0
C      1  0.5343700000000  0.5473110000000  0.5051950000000 1.0
C      1  0.5052720000000  0.5470990000000  0.4653470000000 1.0
C      1  0.4654240000000  0.5471220000000  0.4944450000000 1.0
C      1  0.4945210000000  0.5473340000000  0.5342930000000 1.0
C      1  0.4507520000000  0.4698380000000  0.4593030000000 1.0
C      1  0.4592550000000  0.4701930000000  0.5494190000000 1.0
C      1  0.5493730000000  0.4703550000000  0.5409150000000 1.0
C      1  0.5408690000000  0.4699990000000  0.4507990000000 1.0
C      1  0.4545150000000  0.5243240000000  0.4536860000000 1.0
C      1  0.4537260000000  0.5246660000000  0.5453350000000 1.0
C      1  0.5453760000000  0.5248650000000  0.5461240000000 1.0
C      1  0.5461650000000  0.5245240000000  0.4544750000000 1.0
C      1  0.5539620000000  0.4757980000000  0.4861710000000 1.0
C      1  0.4861340000000  0.4755030000000  0.4461770000000 1.0
C      1  0.4461390000000  0.4756710000000  0.5140040000000 1.0
C      1  0.5139670000000  0.4759660000000  0.5539990000000 1.0
C      1  0.5393420000000  0.5180180000000  0.5024720000000 1.0
C      1  0.5025020000000  0.5177820000000  0.4605480000000 1.0
C      1  0.4605780000000  0.5178300000000  0.4973870000000 1.0
C      1  0.4974170000000  0.5180660000000  0.5393120000000 1.0
C      1  0.5350410000000  0.4311860000000  0.4788730000000 1.0
C      1  0.4787640000000  0.4310140000000  0.4653600000000 1.0
C      1  0.4652510000000  0.4311960000000  0.5216360000000 1.0
C      1  0.5215270000000  0.4313670000000  0.5351490000000 1.0
C      1  0.5457720000000  0.5633060000000  0.4846740000000 1.0
C      1  0.4847770000000  0.5630600000000  0.4538510000000 1.0
C      1  0.4539530000000  0.5632220000000  0.5148460000000 1.0
C      1  0.5149480000000  0.5634680000000  0.5456700000000 1.0
C      1  0.5257350000000  0.5055860000000  0.5313980000000 1.0
C      1  0.5314080000000  0.5053840000000  0.4742280000000 1.0
C      1  0.4685650000000  0.5054420000000  0.5257250000000 1.0
C      1  0.4742380000000  0.5052400000000  0.4685560000000 1.0
END
