TITL C-9257-5531-348 7.78520451673939e-07 125000 -365.42074411649 0 0 60 (C1) n - 1
REM
REM in /home/bkarasulu/CARBON/AIRSS/Generating-Clusters/EDIP-Nigel-Params/Higher-Symm/Box-15A/Only-C60/SD-CG/HFTN-CG
REM
REM
REM
REM
REM
REM ./C.cell (414f73aa93bd7a1190c7fd0f31ff2f98)
REM
REM compiler GCC version 9.2.1 20190827 (Red Hat 9.2.1-1)
REM options -cpp -mtune=generic -march=x86-64 -g -O0 -fpre-include=/usr/include/finclude/math-vector-fortran.h
REM seed -175161821 -1840103339 1078443181 -1043868703 -1108200923 1032619510 -1786210111 -1106737168 367447855 445174832 -785896179 1304525109 -1475871628 18206369 -251124226 881476111 -1616110363 937761680 592354160 -1029128841 -1637193010 -1408002888 -2110409705 2075762015 -1548879393 -143004217 133457598 -1451764558 -30569738 1911090600 1203954454 75960784 624109614
REM
CELL 1.54180   50.00000   50.00000   50.00000   90.00000   90.00000   90.00000
LATT -1
SFAC C  
C      1  0.4354900000000  0.5785810000000  0.4714880000000 1.0
C      1  0.5644320000000  0.4210140000000  0.4719450000000 1.0
C      1  0.4729840000000  0.4733220000000  0.5392670000000 1.0
C      1  0.5277110000000  0.5270830000000  0.5383370000000 1.0
C      1  0.4773550000000  0.4536840000000  0.4952670000000 1.0
C      1  0.5231490000000  0.5470030000000  0.4952480000000 1.0
C      1  0.5291430000000  0.4835500000000  0.5616920000000 1.0
C      1  0.4682530000000  0.5184520000000  0.5630390000000 1.0
C      1  0.5198890000000  0.5482170000000  0.5570040000000 1.0
C      1  0.4787210000000  0.4508230000000  0.5568030000000 1.0
C      1  0.5427560000000  0.4172780000000  0.4872860000000 1.0
C      1  0.4572190000000  0.5822340000000  0.4867790000000 1.0
C      1  0.5695040000000  0.4715930000000  0.4842290000000 1.0
C      1  0.4303200000000  0.5282020000000  0.4841780000000 1.0
C      1  0.4978320000000  0.5678880000000  0.5158980000000 1.0
C      1  0.5018610000000  0.4318050000000  0.5158270000000 1.0
C      1  0.5019380000000  0.4400280000000  0.5449330000000 1.0
C      1  0.4967490000000  0.5585110000000  0.5446800000000 1.0
C      1  0.4811170000000  0.5216260000000  0.4771720000000 1.0
C      1  0.5192320000000  0.4781680000000  0.4767900000000 1.0
C      1  0.4471190000000  0.4832010000000  0.4678130000000 1.0
C      1  0.5530200000000  0.5166870000000  0.4678460000000 1.0
C      1  0.4874730000000  0.5376960000000  0.4540470000000 1.0
C      1  0.5127620000000  0.4622970000000  0.4536170000000 1.0
C      1  0.5475860000000  0.4876730000000  0.4703470000000 1.0
C      1  0.4526040000000  0.5122110000000  0.4706460000000 1.0
C      1  0.4696510000000  0.5667600000000  0.5061910000000 1.0
C      1  0.5303060000000  0.4327130000000  0.5067270000000 1.0
C      1  0.4256580000000  0.5537140000000  0.4738960000000 1.0
C      1  0.5740950000000  0.4459510000000  0.4742770000000 1.0
C      1  0.4512780000000  0.5110960000000  0.4411250000000 1.0
C      1  0.5489720000000  0.4890050000000  0.4408840000000 1.0
C      1  0.4856220000000  0.4645430000000  0.4454410000000 1.0
C      1  0.5145720000000  0.5356110000000  0.4456590000000 1.0
C      1  0.5045850000000  0.4680240000000  0.5015030000000 1.0
C      1  0.4958530000000  0.5317720000000  0.5020130000000 1.0
C      1  0.5450420000000  0.5050790000000  0.5494480000000 1.0
C      1  0.4545390000000  0.4955720000000  0.5501360000000 1.0
C      1  0.5257480000000  0.4587400000000  0.5450060000000 1.0
C      1  0.4737380000000  0.5403490000000  0.5439930000000 1.0
C      1  0.5661730000000  0.5228460000000  0.5097780000000 1.0
C      1  0.4345180000000  0.4775420000000  0.5099760000000 1.0
C      1  0.4737170000000  0.5265950000000  0.4305990000000 1.0
C      1  0.5264290000000  0.4736660000000  0.4302500000000 1.0
C      1  0.5434580000000  0.5387420000000  0.5159630000000 1.0
C      1  0.4579440000000  0.4627220000000  0.5159350000000 1.0
C      1  0.5037060000000  0.5137140000000  0.5250930000000 1.0
C      1  0.5009920000000  0.4835010000000  0.5281460000000 1.0
C      1  0.5449890000000  0.4513890000000  0.5237000000000 1.0
C      1  0.4552470000000  0.5480700000000  0.5231940000000 1.0
C      1  0.4886260000000  0.5097170000000  0.5801740000000 1.0
C      1  0.5092610000000  0.4926400000000  0.5790650000000 1.0
C      1  0.4671750000000  0.4626390000000  0.4675810000000 1.0
C      1  0.5331580000000  0.5374710000000  0.4676430000000 1.0
C      1  0.5624640000000  0.4727140000000  0.5130820000000 1.0
C      1  0.4365180000000  0.5275570000000  0.5133070000000 1.0
C      1  0.5020060000000  0.4861050000000  0.4181390000000 1.0
C      1  0.4980750000000  0.5142940000000  0.4182440000000 1.0
C      1  0.5619880000000  0.4994970000000  0.5255840000000 1.0
C      1  0.4376760000000  0.5008250000000  0.5260690000000 1.0
END
