TITL C-9269-7444-180 -6.64445212043312e-07 125000 -366.633782473324 0 0 60 (C1) n - 1
REM
REM in /home/bkarasulu/CARBON/AIRSS/Generating-Clusters/EDIP-Nigel-Params/Higher-Symm/Box-15A/Only-C60/SD-CG/HFTN-CG
REM
REM
REM
REM
REM
REM ./C.cell (414f73aa93bd7a1190c7fd0f31ff2f98)
REM
REM compiler GCC version 9.2.1 20190827 (Red Hat 9.2.1-1)
REM options -cpp -mtune=generic -march=x86-64 -g -O0 -fpre-include=/usr/include/finclude/math-vector-fortran.h
REM seed 373515264 -62388344 954726545 -1565020759 -1281544509 -871960447 -923260267 -1762833591 -155755179 1829040296 1034933392 -1121144117 149000701 -1610953062 123047166 1834683988 -1035385160 682496092 47593572 1145649095 -407788935 -970690864 1465364779 -506204217 582529244 -507925216 1570612584 1759135362 -666939910 -2076929178 1760420931 -2138697552 -781783149
REM
CELL 1.54180   50.00000   50.00000   50.00000   90.00000   90.00000   90.00000
LATT -1
SFAC C  
C      1  0.4827960000000  0.5512120000000  0.4664970000000 1.0
C      1  0.4818650000000  0.5594760000000  0.5209610000000 1.0
C      1  0.4830750000000  0.5200970000000  0.5582620000000 1.0
C      1  0.4831990000000  0.4708370000000  0.5474600000000 1.0
C      1  0.4843480000000  0.4376010000000  0.5067500000000 1.0
C      1  0.4872710000000  0.4549450000000  0.4551730000000 1.0
C      1  0.4845380000000  0.5049420000000  0.4416850000000 1.0
C      1  0.5373180000000  0.4623400000000  0.4636400000000 1.0
C      1  0.5366390000000  0.5099410000000  0.4461080000000 1.0
C      1  0.5308860000000  0.5526350000000  0.4652930000000 1.0
C      1  0.5346630000000  0.5545830000000  0.5149240000000 1.0
C      1  0.5401840000000  0.5151770000000  0.5511720000000 1.0
C      1  0.5362470000000  0.4661530000000  0.5512930000000 1.0
C      1  0.5336810000000  0.4420160000000  0.5083600000000 1.0
C      1  0.4427210000000  0.5400940000000  0.5417850000000 1.0
C      1  0.4423390000000  0.4944910000000  0.5564900000000 1.0
C      1  0.4434570000000  0.4559670000000  0.5271080000000 1.0
C      1  0.4458700000000  0.4482430000000  0.4799350000000 1.0
C      1  0.4455300000000  0.4782180000000  0.4433950000000 1.0
C      1  0.4434230000000  0.5248230000000  0.4529330000000 1.0
C      1  0.4430070000000  0.5491340000000  0.4946800000000 1.0
C      1  0.4995740000000  0.4791990000000  0.4317130000000 1.0
C      1  0.4937050000000  0.5335950000000  0.4358660000000 1.0
C      1  0.4912100000000  0.5695360000000  0.4917880000000 1.0
C      1  0.4970870000000  0.5448940000000  0.5480780000000 1.0
C      1  0.4953820000000  0.4933480000000  0.5648210000000 1.0
C      1  0.4929910000000  0.4422940000000  0.5398090000000 1.0
C      1  0.4961890000000  0.4315910000000  0.4751220000000 1.0
C      1  0.5224990000000  0.5355080000000  0.4397030000000 1.0
C      1  0.5204010000000  0.5686160000000  0.4904880000000 1.0
C      1  0.5265520000000  0.5429530000000  0.5437820000000 1.0
C      1  0.5241850000000  0.4917770000000  0.5610870000000 1.0
C      1  0.5219940000000  0.4436680000000  0.5370530000000 1.0
C      1  0.5251780000000  0.4367020000000  0.4780900000000 1.0
C      1  0.5281590000000  0.4818130000000  0.4401960000000 1.0
C      1  0.5563880000000  0.4740070000000  0.4833300000000 1.0
C      1  0.5617720000000  0.5161050000000  0.4604990000000 1.0
C      1  0.5577130000000  0.5421930000000  0.4738370000000 1.0
C      1  0.5563710000000  0.5379520000000  0.5031530000000 1.0
C      1  0.5638820000000  0.5027200000000  0.5347830000000 1.0
C      1  0.5610920000000  0.4727910000000  0.5356110000000 1.0
C      1  0.5573840000000  0.4596610000000  0.5083900000000 1.0
C      1  0.5050120000000  0.5311210000000  0.5077120000000 1.0
C      1  0.5179910000000  0.5070840000000  0.5201120000000 1.0
C      1  0.4924470000000  0.4863210000000  0.5210400000000 1.0
C      1  0.5020860000000  0.4647910000000  0.5032710000000 1.0
C      1  0.5020740000000  0.4753910000000  0.4752420000000 1.0
C      1  0.4904770000000  0.5026000000000  0.4706390000000 1.0
C      1  0.5026380000000  0.5286870000000  0.4784910000000 1.0
C      1  0.4550480000000  0.4429700000000  0.5053230000000 1.0
C      1  0.4574600000000  0.4570910000000  0.4565680000000 1.0
C      1  0.4549790000000  0.5037330000000  0.4389580000000 1.0
C      1  0.4537780000000  0.5446080000000  0.4695310000000 1.0
C      1  0.4528410000000  0.5540840000000  0.5201210000000 1.0
C      1  0.4539670000000  0.5198160000000  0.5569910000000 1.0
C      1  0.4535450000000  0.4701920000000  0.5488350000000 1.0
C      1  0.4691280000000  0.4982310000000  0.5090300000000 1.0
C      1  0.5717980000000  0.4970190000000  0.4793600000000 1.0
C      1  0.5504440000000  0.5089740000000  0.5091640000000 1.0
C      1  0.4444030000000  0.4991720000000  0.5013010000000 1.0
END
