TITL C-9262-5533-376 -2.28390451080719e-06 125000 -367.569180111416 0 0 60 (C1) n - 1
REM
REM in /home/bkarasulu/CARBON/AIRSS/Generating-Clusters/EDIP-Nigel-Params/Higher-Symm/Box-15A/Only-C60/SD-CG/HFTN-CG
REM
REM
REM
REM
REM
REM ./C.cell (414f73aa93bd7a1190c7fd0f31ff2f98)
REM
REM compiler GCC version 9.2.1 20190827 (Red Hat 9.2.1-1)
REM options -cpp -mtune=generic -march=x86-64 -g -O0 -fpre-include=/usr/include/finclude/math-vector-fortran.h
REM seed -389615535 -734274590 1862196605 -395197267 -1888690279 -187100416 -1845420730 323455169 -2070414891 -1144788580 -1732863367 654818218 -1505293542 292994130 -1660808907 916543534 -496811586 61762687 66262668 -382396035 -267681424 -72382883 1696428988 -737386087 -1298479906 571469684 -2064449967 -627847481 758274914 18354618 712019302 332894779 665079053
REM
CELL 1.54180   50.00000   50.00000   50.00000   90.00000   90.00000   90.00000
LATT -1
SFAC C  
C      1  0.4266240000000  0.4864050000000  0.5334010000000 1.0
C      1  0.4845780000000  0.4686300000000  0.5626200000000 1.0
C      1  0.5166750000000  0.4810320000000  0.4547730000000 1.0
C      1  0.4980800000000  0.4952680000000  0.4356920000000 1.0
C      1  0.4787840000000  0.4944550000000  0.5730940000000 1.0
C      1  0.4408250000000  0.5410950000000  0.5240780000000 1.0
C      1  0.4988340000000  0.5073320000000  0.5180360000000 1.0
C      1  0.4799590000000  0.5148400000000  0.5398120000000 1.0
C      1  0.5461760000000  0.4572280000000  0.4950720000000 1.0
C      1  0.4571850000000  0.4329840000000  0.5066540000000 1.0
C      1  0.5113200000000  0.4586450000000  0.5648620000000 1.0
C      1  0.4492210000000  0.4762720000000  0.4798440000000 1.0
C      1  0.4305050000000  0.5367160000000  0.4778980000000 1.0
C      1  0.4842870000000  0.5560060000000  0.4858750000000 1.0
C      1  0.5300630000000  0.4770130000000  0.5744080000000 1.0
C      1  0.5742960000000  0.4890640000000  0.4785670000000 1.0
C      1  0.4555330000000  0.5267020000000  0.4374510000000 1.0
C      1  0.4394140000000  0.4664030000000  0.5460130000000 1.0
C      1  0.5624480000000  0.5154690000000  0.4695900000000 1.0
C      1  0.5484060000000  0.5632050000000  0.5121890000000 1.0
C      1  0.4652340000000  0.4577870000000  0.4953650000000 1.0
C      1  0.5194540000000  0.4394550000000  0.5454340000000 1.0
C      1  0.5251270000000  0.4365910000000  0.4819230000000 1.0
C      1  0.4454970000000  0.5460640000000  0.4558900000000 1.0
C      1  0.4723350000000  0.4326160000000  0.5308070000000 1.0
C      1  0.5607680000000  0.4668340000000  0.4647780000000 1.0
C      1  0.4673380000000  0.5646910000000  0.4634260000000 1.0
C      1  0.4222450000000  0.4812990000000  0.4862130000000 1.0
C      1  0.5228450000000  0.4931870000000  0.5278100000000 1.0
C      1  0.5117060000000  0.4214330000000  0.5017130000000 1.0
C      1  0.4284020000000  0.5267320000000  0.5039300000000 1.0
C      1  0.4723630000000  0.5060020000000  0.4469350000000 1.0
C      1  0.4638960000000  0.4534750000000  0.5499260000000 1.0
C      1  0.5649270000000  0.4823080000000  0.5058930000000 1.0
C      1  0.5200730000000  0.4640030000000  0.5161410000000 1.0
C      1  0.4983310000000  0.5142930000000  0.5654370000000 1.0
C      1  0.4672590000000  0.5415590000000  0.5332150000000 1.0
C      1  0.5475120000000  0.5201540000000  0.5599890000000 1.0
C      1  0.4669200000000  0.4995900000000  0.4753040000000 1.0
C      1  0.4927490000000  0.4956030000000  0.4913350000000 1.0
C      1  0.5112430000000  0.5082830000000  0.4148280000000 1.0
C      1  0.5362360000000  0.5143460000000  0.4231910000000 1.0
C      1  0.4234040000000  0.4983690000000  0.5084470000000 1.0
C      1  0.5296760000000  0.5480380000000  0.4947690000000 1.0
C      1  0.5060600000000  0.4556920000000  0.4688440000000 1.0
C      1  0.5141830000000  0.5486660000000  0.5207590000000 1.0
C      1  0.4943370000000  0.4657750000000  0.4948680000000 1.0
C      1  0.5556430000000  0.5499460000000  0.5362670000000 1.0
C      1  0.5611730000000  0.5220220000000  0.5350230000000 1.0
C      1  0.5163780000000  0.5025430000000  0.4755910000000 1.0
C      1  0.5104840000000  0.5617470000000  0.4758850000000 1.0
C      1  0.4864200000000  0.5553730000000  0.5153340000000 1.0
C      1  0.5249430000000  0.5007980000000  0.5583260000000 1.0
C      1  0.5105580000000  0.5670090000000  0.4483300000000 1.0
C      1  0.5433070000000  0.4758960000000  0.4445600000000 1.0
C      1  0.5012010000000  0.4261270000000  0.5276080000000 1.0
C      1  0.5559350000000  0.5162580000000  0.4418930000000 1.0
C      1  0.4842850000000  0.5714410000000  0.4415090000000 1.0
C      1  0.5475340000000  0.5047780000000  0.5144570000000 1.0
C      1  0.5388060000000  0.5184520000000  0.4881200000000 1.0
END
