TITL C-9264-7143-266 4.78464239742954e-05 125000 -350.340959585296 0 0 60 (C1) n - 1
REM
REM in /home/bkarasulu/CARBON/AIRSS/Generating-Clusters/EDIP-Nigel-Params/Higher-Symm/Box-15A/Only-C60/SD-CG/HFTN-CG
REM
REM
REM
REM
REM
REM ./C.cell (414f73aa93bd7a1190c7fd0f31ff2f98)
REM
REM compiler GCC version 9.2.1 20190827 (Red Hat 9.2.1-1)
REM options -cpp -mtune=generic -march=x86-64 -g -O0 -fpre-include=/usr/include/finclude/math-vector-fortran.h
REM seed 166926864 -2129562573 571865636 2104596595 -142692463 -2042757936 554444202 1723059200 -1240066421 -2128427986 -244769791 -447472295 -708153580 -1209474228 1307849904 -331746075 -978224312 -2016123104 -1374100744 -979868577 -911302504 1182695795 -171354011 -852772493 -784133827 2080090274 2143940798 -1213201464 -1463094093 1389856378 -401226452 -1015985340 1659588432
REM
CELL 1.54180   50.00000   50.00000   50.00000   90.00000   90.00000   90.00000
LATT -1
SFAC C  
C      1  0.4972740000000  0.4696010000000  0.4780130000000 1.0
C      1  0.5191530000000  0.4802130000000  0.4957300000000 1.0
C      1  0.4774670000000  0.4896840000000  0.4681240000000 1.0
C      1  0.5401880000000  0.4603400000000  0.4578440000000 1.0
C      1  0.5141830000000  0.4756090000000  0.5444620000000 1.0
C      1  0.4501270000000  0.4773720000000  0.4676110000000 1.0
C      1  0.4892330000000  0.5618520000000  0.5564060000000 1.0
C      1  0.4576410000000  0.5508200000000  0.4669070000000 1.0
C      1  0.5555950000000  0.5609390000000  0.4914510000000 1.0
C      1  0.5571570000000  0.4677570000000  0.5243570000000 1.0
C      1  0.4312250000000  0.4660030000000  0.5413860000000 1.0
C      1  0.5011410000000  0.4623580000000  0.4295330000000 1.0
C      1  0.5362250000000  0.5526690000000  0.4722890000000 1.0
C      1  0.5182990000000  0.5662920000000  0.5554060000000 1.0
C      1  0.4482010000000  0.5530140000000  0.4942560000000 1.0
C      1  0.5132840000000  0.5418250000000  0.5182660000000 1.0
C      1  0.4771950000000  0.5153470000000  0.4840410000000 1.0
C      1  0.5079590000000  0.5222710000000  0.4912250000000 1.0
C      1  0.5406250000000  0.4847940000000  0.4750180000000 1.0
C      1  0.5139850000000  0.5029190000000  0.5486450000000 1.0
C      1  0.4386980000000  0.4842560000000  0.4939370000000 1.0
C      1  0.4948650000000  0.4581990000000  0.5548560000000 1.0
C      1  0.4504670000000  0.4494420000000  0.4633340000000 1.0
C      1  0.5528300000000  0.4371630000000  0.4679210000000 1.0
C      1  0.4685420000000  0.5434000000000  0.6017220000000 1.0
C      1  0.4232970000000  0.5384420000000  0.4283320000000 1.0
C      1  0.6078000000000  0.5549450000000  0.4843540000000 1.0
C      1  0.5663530000000  0.4928180000000  0.5269420000000 1.0
C      1  0.4535370000000  0.4814830000000  0.5449050000000 1.0
C      1  0.5019690000000  0.4879400000000  0.4210880000000 1.0
C      1  0.5543450000000  0.5164110000000  0.5304540000000 1.0
C      1  0.4589580000000  0.5046410000000  0.5311280000000 1.0
C      1  0.5095170000000  0.5042840000000  0.4412820000000 1.0
C      1  0.5286110000000  0.4649760000000  0.5208440000000 1.0
C      1  0.4397850000000  0.4612480000000  0.5140890000000 1.0
C      1  0.5108460000000  0.4542810000000  0.4554850000000 1.0
C      1  0.4318370000000  0.5317130000000  0.5023680000000 1.0
C      1  0.5443430000000  0.5315720000000  0.4557670000000 1.0
C      1  0.5333790000000  0.5434290000000  0.5627240000000 1.0
C      1  0.4514160000000  0.5098130000000  0.5039260000000 1.0
C      1  0.5264660000000  0.5102670000000  0.4639020000000 1.0
C      1  0.5290790000000  0.5256840000000  0.5401510000000 1.0
C      1  0.5242250000000  0.5773610000000  0.5294550000000 1.0
C      1  0.4677860000000  0.5593640000000  0.5126670000000 1.0
C      1  0.5081620000000  0.5578740000000  0.4772870000000 1.0
C      1  0.5461100000000  0.5709620000000  0.5149870000000 1.0
C      1  0.4861740000000  0.5484510000000  0.5303030000000 1.0
C      1  0.4857490000000  0.5464930000000  0.4630520000000 1.0
C      1  0.4800190000000  0.5502940000000  0.5798770000000 1.0
C      1  0.4394900000000  0.5426720000000  0.4477210000000 1.0
C      1  0.5824310000000  0.5569010000000  0.4872790000000 1.0
C      1  0.5194280000000  0.4365870000000  0.5209750000000 1.0
C      1  0.4570030000000  0.4372310000000  0.5082930000000 1.0
C      1  0.5077060000000  0.4246420000000  0.4602630000000 1.0
C      1  0.4837460000000  0.4167250000000  0.4725680000000 1.0
C      1  0.5267600000000  0.4171490000000  0.5024030000000 1.0
C      1  0.4726040000000  0.4251490000000  0.5280130000000 1.0
C      1  0.4964270000000  0.4351340000000  0.5386350000000 1.0
C      1  0.4606400000000  0.4300940000000  0.4805920000000 1.0
C      1  0.5324440000000  0.4188320000000  0.4751500000000 1.0
END
