TITL C-9259-5960-193 -4.06950907154492e-06 125000 -367.075002341335 0 0 60 (C1) n - 1
REM
REM in /home/bkarasulu/CARBON/AIRSS/Generating-Clusters/EDIP-Nigel-Params/Higher-Symm/Box-15A/Only-C60/SD-CG/HFTN-CG
REM
REM
REM
REM
REM
REM ./C.cell (414f73aa93bd7a1190c7fd0f31ff2f98)
REM
REM compiler GCC version 9.2.1 20190827 (Red Hat 9.2.1-1)
REM options -cpp -mtune=generic -march=x86-64 -g -O0 -fpre-include=/usr/include/finclude/math-vector-fortran.h
REM seed -570311759 -2029188588 -1007490862 1999213757 1111071792 -146550704 -5402832 860325809 -1184000798 845163071 -1798854705 46954908 1150041432 -627629273 1300122754 21460038 -1731729702 -398848506 -142342809 -275771915 -1640376240 -960488441 -168267131 -31806797 621250831 -974010241 1088205836 -1330228012 1998144579 -1064571348 87750223 1740185835 -459415912
REM
CELL 1.54180   50.00000   50.00000   50.00000   90.00000   90.00000   90.00000
LATT -1
SFAC C  
C      1  0.4537780000000  0.4588160000000  0.5599560000000 1.0
C      1  0.4309900000000  0.4571990000000  0.4733620000000 1.0
C      1  0.5016290000000  0.4575850000000  0.4208400000000 1.0
C      1  0.5724620000000  0.4563120000000  0.4781840000000 1.0
C      1  0.5462880000000  0.4623060000000  0.5679080000000 1.0
C      1  0.5380870000000  0.5507790000000  0.4656600000000 1.0
C      1  0.5458190000000  0.5520960000000  0.5253190000000 1.0
C      1  0.4906770000000  0.5522250000000  0.5511530000000 1.0
C      1  0.4495710000000  0.5509580000000  0.5069600000000 1.0
C      1  0.4793650000000  0.5536530000000  0.4533620000000 1.0
C      1  0.4610380000000  0.5343650000000  0.4444390000000 1.0
C      1  0.5398780000000  0.5301570000000  0.4465090000000 1.0
C      1  0.5644990000000  0.5316200000000  0.5207390000000 1.0
C      1  0.4991830000000  0.5319990000000  0.5688430000000 1.0
C      1  0.4345620000000  0.5303380000000  0.5193430000000 1.0
C      1  0.4665520000000  0.5046330000000  0.5442320000000 1.0
C      1  0.4487720000000  0.5045250000000  0.4801320000000 1.0
C      1  0.5008150000000  0.5048190000000  0.4432640000000 1.0
C      1  0.5526270000000  0.5033990000000  0.4848850000000 1.0
C      1  0.5319630000000  0.5050890000000  0.5450180000000 1.0
C      1  0.4722750000000  0.5093430000000  0.4326230000000 1.0
C      1  0.5522310000000  0.5043680000000  0.4552230000000 1.0
C      1  0.5603740000000  0.5066740000000  0.5364890000000 1.0
C      1  0.4831860000000  0.5067320000000  0.5686600000000 1.0
C      1  0.4308450000000  0.5049930000000  0.5037150000000 1.0
C      1  0.4542430000000  0.4852590000000  0.4356670000000 1.0
C      1  0.5425850000000  0.4789400000000  0.4425420000000 1.0
C      1  0.5693580000000  0.4805520000000  0.5245930000000 1.0
C      1  0.4981410000000  0.4819340000000  0.5736540000000 1.0
C      1  0.4312520000000  0.4800080000000  0.5191840000000 1.0
C      1  0.4769870000000  0.5044190000000  0.4908000000000 1.0
C      1  0.5008110000000  0.5043470000000  0.4744290000000 1.0
C      1  0.5232190000000  0.5037040000000  0.4934180000000 1.0
C      1  0.5130920000000  0.5026230000000  0.5207030000000 1.0
C      1  0.4840680000000  0.5030640000000  0.5190770000000 1.0
C      1  0.5683470000000  0.5259800000000  0.4938370000000 1.0
C      1  0.5266720000000  0.5252520000000  0.5655910000000 1.0
C      1  0.4442220000000  0.5232560000000  0.5451470000000 1.0
C      1  0.4423950000000  0.5275100000000  0.4638390000000 1.0
C      1  0.5166350000000  0.5263020000000  0.4318790000000 1.0
C      1  0.4831900000000  0.4570510000000  0.5685960000000 1.0
C      1  0.4288880000000  0.4548700000000  0.5038590000000 1.0
C      1  0.4633070000000  0.4630400000000  0.4194570000000 1.0
C      1  0.5568790000000  0.4543580000000  0.4514650000000 1.0
C      1  0.5628680000000  0.4573460000000  0.5421630000000 1.0
C      1  0.5221190000000  0.5601530000000  0.5127770000000 1.0
C      1  0.4956230000000  0.5600010000000  0.5247870000000 1.0
C      1  0.4758750000000  0.5601560000000  0.5034360000000 1.0
C      1  0.4904890000000  0.5605210000000  0.4781390000000 1.0
C      1  0.5190210000000  0.5605500000000  0.4838470000000 1.0
C      1  0.5751430000000  0.4340970000000  0.4605240000000 1.0
C      1  0.5634660000000  0.4397460000000  0.5649050000000 1.0
C      1  0.4651200000000  0.4349540000000  0.5708900000000 1.0
C      1  0.4227430000000  0.4330920000000  0.4862560000000 1.0
C      1  0.4795720000000  0.4426680000000  0.4284070000000 1.0
C      1  0.5655060000000  0.4789470000000  0.4955190000000 1.0
C      1  0.5274340000000  0.4864540000000  0.5695500000000 1.0
C      1  0.4432500000000  0.4841330000000  0.5462920000000 1.0
C      1  0.4457100000000  0.4803610000000  0.4634150000000 1.0
C      1  0.5143070000000  0.4793670000000  0.4345360000000 1.0
END
