TITL C-9262-5533-357 -17.2076161631031 125000 -364.443623281417 0 0 60 (C1) n - 1
REM
REM in /home/bkarasulu/CARBON/AIRSS/Generating-Clusters/EDIP-Nigel-Params/Higher-Symm/Box-15A/Only-C60/SD-CG/HFTN-CG
REM
REM
REM
REM
REM
REM ./C.cell (414f73aa93bd7a1190c7fd0f31ff2f98)
REM
REM compiler GCC version 9.2.1 20190827 (Red Hat 9.2.1-1)
REM options -cpp -mtune=generic -march=x86-64 -g -O0 -fpre-include=/usr/include/finclude/math-vector-fortran.h
REM seed -1608439222 -530677050 1327437397 -418754559 746208230 -901180293 1740434138 -267205292 642634630 -675508337 332395939 -964612624 1717666870 -688290107 -1106908173 215933525 1162351956 -61103241 1353792533 -624053012 2080276691 -262505135 -32668842 -569356570 23204829 -1913585192 664571477 -1583035934 -1153258261 2089330398 1034606989 -1427964369 -2087580112
REM
CELL 1.54180   50.00000   50.00000   50.00000   90.00000   90.00000   90.00000
LATT -1
SFAC C  
C      1  0.4644300000000  0.5111570000000  0.4271650000000 1.0
C      1  0.5115530000000  0.4992920000000  0.4279090000000 1.0
C      1  0.5483540000000  0.4991870000000  0.4406190000000 1.0
C      1  0.5833010000000  0.5012400000000  0.4813540000000 1.0
C      1  0.5892130000000  0.5025780000000  0.5196230000000 1.0
C      1  0.5636630000000  0.4977370000000  0.5662530000000 1.0
C      1  0.5177230000000  0.4896240000000  0.5755690000000 1.0
C      1  0.4705560000000  0.4897710000000  0.5662320000000 1.0
C      1  0.4303490000000  0.5128010000000  0.5519610000000 1.0
C      1  0.4119670000000  0.5085510000000  0.5057280000000 1.0
C      1  0.4254180000000  0.5142780000000  0.4541050000000 1.0
C      1  0.4909010000000  0.5186380000000  0.4668290000000 1.0
C      1  0.5201480000000  0.5320110000000  0.4619300000000 1.0
C      1  0.5408390000000  0.5212260000000  0.4808820000000 1.0
C      1  0.5556020000000  0.5336260000000  0.5038090000000 1.0
C      1  0.5479370000000  0.5211590000000  0.5295770000000 1.0
C      1  0.5281720000000  0.5281030000000  0.5503430000000 1.0
C      1  0.5008130000000  0.5167000000000  0.5414930000000 1.0
C      1  0.4751770000000  0.5320600000000  0.5485030000000 1.0
C      1  0.4475770000000  0.5384660000000  0.5156620000000 1.0
C      1  0.4466140000000  0.5334300000000  0.4884030000000 1.0
C      1  0.4663670000000  0.5385130000000  0.4675240000000 1.0
C      1  0.5279560000000  0.5584640000000  0.5522280000000 1.0
C      1  0.5033800000000  0.5696620000000  0.5580580000000 1.0
C      1  0.4772010000000  0.5616020000000  0.5544320000000 1.0
C      1  0.4649480000000  0.5614990000000  0.5248340000000 1.0
C      1  0.4858230000000  0.5658880000000  0.5029510000000 1.0
C      1  0.4763390000000  0.5669110000000  0.4742190000000 1.0
C      1  0.4971610000000  0.5750210000000  0.4574120000000 1.0
C      1  0.5215160000000  0.5622020000000  0.4619080000000 1.0
C      1  0.5373180000000  0.5722800000000  0.4827200000000 1.0
C      1  0.5509870000000  0.5631740000000  0.5052760000000 1.0
C      1  0.5411650000000  0.5701180000000  0.5305130000000 1.0
C      1  0.4492300000000  0.5268820000000  0.4445270000000 1.0
C      1  0.4865700000000  0.5026130000000  0.4419040000000 1.0
C      1  0.5292070000000  0.5200710000000  0.4357320000000 1.0
C      1  0.5574360000000  0.5018930000000  0.4680160000000 1.0
C      1  0.5842890000000  0.5234340000000  0.5000160000000 1.0
C      1  0.5680990000000  0.5043580000000  0.5393370000000 1.0
C      1  0.5379860000000  0.5087150000000  0.5718070000000 1.0
C      1  0.4970230000000  0.4912240000000  0.5568130000000 1.0
C      1  0.4561780000000  0.5136960000000  0.5627350000000 1.0
C      1  0.4257770000000  0.5227700000000  0.5263090000000 1.0
C      1  0.4261980000000  0.5158270000000  0.4822010000000 1.0
C      1  0.4697870000000  0.4070040000000  0.5010740000000 1.0
C      1  0.4556230000000  0.3859410000000  0.5086500000000 1.0
C      1  0.4508100000000  0.3599500000000  0.5100520000000 1.0
C      1  0.4577930000000  0.3350910000000  0.5041220000000 1.0
C      1  0.4754720000000  0.3194500000000  0.4920560000000 1.0
C      1  0.4979250000000  0.3191980000000  0.4779530000000 1.0
C      1  0.5167180000000  0.3344280000000  0.4671090000000 1.0
C      1  0.5254910000000  0.3591100000000  0.4631410000000 1.0
C      1  0.5225580000000  0.3851890000000  0.4666050000000 1.0
C      1  0.5099270000000  0.4065520000000  0.4758610000000 1.0
C      1  0.4903550000000  0.4205300000000  0.4890140000000 1.0
C      1  0.4908710000000  0.5015690000000  0.4914760000000 1.0
C      1  0.5039640000000  0.5443730000000  0.5043960000000 1.0
C      1  0.5031670000000  0.5173830000000  0.5118090000000 1.0
C      1  0.4930940000000  0.4742360000000  0.4907820000000 1.0
C      1  0.4913310000000  0.4478540000000  0.4900810000000 1.0
END
