TITL C-9260-5597-59 -1.17204220406949e-05 125000 -355.328075481951 0 0 60 (C1) n - 1
REM
REM in /home/bkarasulu/CARBON/AIRSS/Generating-Clusters/EDIP-Nigel-Params/Higher-Symm/Box-15A/Only-C60/SD-CG/HFTN-CG
REM
REM
REM
REM
REM
REM ./C.cell (414f73aa93bd7a1190c7fd0f31ff2f98)
REM
REM compiler GCC version 9.2.1 20190827 (Red Hat 9.2.1-1)
REM options -cpp -mtune=generic -march=x86-64 -g -O0 -fpre-include=/usr/include/finclude/math-vector-fortran.h
REM seed -673388660 -140844163 -1230165495 1287109273 2066897156 322673666 1435173653 -911219447 -1162674128 -696283937 440783130 1286452153 -419130368 2083133932 172402424 610436592 1884834933 -1341896595 1269729634 -420980785 -1733045750 -1495351438 -310756074 1314997697 -2105686584 -444211720 -1706208203 -1422446819 -1180744380 1470953328 -940056186 -264244139 550418811
REM
CELL 1.54180   50.00000   50.00000   50.00000   90.00000   90.00000   90.00000
LATT -1
SFAC C  
C      1  0.5100740000000  0.4544850000000  0.5517740000000 1.0
C      1  0.4668110000000  0.4540980000000  0.5298140000000 1.0
C      1  0.4471180000000  0.4605710000000  0.5105470000000 1.0
C      1  0.4734750000000  0.4530730000000  0.4657080000000 1.0
C      1  0.5168460000000  0.4520990000000  0.4542340000000 1.0
C      1  0.5575600000000  0.4624110000000  0.4804620000000 1.0
C      1  0.5520790000000  0.4615080000000  0.5289400000000 1.0
C      1  0.4826760000000  0.5086570000000  0.4738190000000 1.0
C      1  0.5104320000000  0.5149070000000  0.4682480000000 1.0
C      1  0.5345140000000  0.5123320000000  0.4854080000000 1.0
C      1  0.5292470000000  0.4941280000000  0.5096850000000 1.0
C      1  0.5089230000000  0.5100060000000  0.5243860000000 1.0
C      1  0.4828430000000  0.4973020000000  0.5220610000000 1.0
C      1  0.4688040000000  0.5070730000000  0.4992100000000 1.0
C      1  0.4219660000000  0.5033620000000  0.5243720000000 1.0
C      1  0.4399570000000  0.4900230000000  0.4713000000000 1.0
C      1  0.4879110000000  0.4907100000000  0.4342610000000 1.0
C      1  0.5450410000000  0.4888220000000  0.4424420000000 1.0
C      1  0.5735040000000  0.4975710000000  0.5083910000000 1.0
C      1  0.5365020000000  0.4914270000000  0.5624420000000 1.0
C      1  0.4777990000000  0.4862010000000  0.5640820000000 1.0
C      1  0.4405460000000  0.5637340000000  0.4861170000000 1.0
C      1  0.4722300000000  0.5517500000000  0.4469060000000 1.0
C      1  0.5258260000000  0.5499760000000  0.4464140000000 1.0
C      1  0.5602810000000  0.5412080000000  0.4906320000000 1.0
C      1  0.5435260000000  0.5528000000000  0.5431020000000 1.0
C      1  0.4993260000000  0.5569110000000  0.5611320000000 1.0
C      1  0.4509450000000  0.5436920000000  0.5348640000000 1.0
C      1  0.4675200000000  0.5676410000000  0.4932310000000 1.0
C      1  0.4854510000000  0.5592420000000  0.4716330000000 1.0
C      1  0.5151240000000  0.5587070000000  0.4716820000000 1.0
C      1  0.5337710000000  0.5557050000000  0.4945650000000 1.0
C      1  0.5249120000000  0.5596370000000  0.5223610000000 1.0
C      1  0.4982980000000  0.5648190000000  0.5340510000000 1.0
C      1  0.4726910000000  0.5588300000000  0.5207530000000 1.0
C      1  0.4272320000000  0.4772880000000  0.5206780000000 1.0
C      1  0.4547020000000  0.4685580000000  0.4829350000000 1.0
C      1  0.4920980000000  0.4655430000000  0.4467080000000 1.0
C      1  0.5426910000000  0.4649420000000  0.4564420000000 1.0
C      1  0.5665600000000  0.4705180000000  0.5061830000000 1.0
C      1  0.5357930000000  0.4656830000000  0.5517890000000 1.0
C      1  0.4829060000000  0.4613780000000  0.5519250000000 1.0
C      1  0.5706800000000  0.5249770000000  0.5137380000000 1.0
C      1  0.5322600000000  0.5194830000000  0.5604630000000 1.0
C      1  0.4790030000000  0.5142360000000  0.5669080000000 1.0
C      1  0.4335370000000  0.5278020000000  0.5169430000000 1.0
C      1  0.4398900000000  0.5184720000000  0.4674710000000 1.0
C      1  0.4873890000000  0.5193090000000  0.4311610000000 1.0
C      1  0.5467050000000  0.5170930000000  0.4433310000000 1.0
C      1  0.5624210000000  0.5325190000000  0.5399420000000 1.0
C      1  0.5040180000000  0.5291430000000  0.5640990000000 1.0
C      1  0.4573010000000  0.5302050000000  0.5588180000000 1.0
C      1  0.4318000000000  0.5370820000000  0.4891370000000 1.0
C      1  0.4529130000000  0.5308680000000  0.4444880000000 1.0
C      1  0.5142970000000  0.5313790000000  0.4281540000000 1.0
C      1  0.5643260000000  0.5259790000000  0.4652460000000 1.0
C      1  0.4916500000000  0.4340800000000  0.4781270000000 1.0
C      1  0.5156760000000  0.4694710000000  0.5035280000000 1.0
C      1  0.4994760000000  0.5299450000000  0.5016450000000 1.0
C      1  0.5090580000000  0.4438760000000  0.4971210000000 1.0
END
