TITL C-9267-1554-28 1.63058396983938e-05 125000 -356.275078302184 0 0 60 (C1) n - 1
REM
REM in /home/bkarasulu/CARBON/AIRSS/Generating-Clusters/EDIP-Nigel-Params/Higher-Symm/Box-15A/Only-C60/SD-CG/HFTN-CG
REM
REM
REM
REM
REM
REM ./C.cell (414f73aa93bd7a1190c7fd0f31ff2f98)
REM
REM compiler GCC version 9.2.1 20190827 (Red Hat 9.2.1-1)
REM options -cpp -mtune=generic -march=x86-64 -g -O0 -fpre-include=/usr/include/finclude/math-vector-fortran.h
REM seed -444347072 858898997 -413617425 -64187624 1650307386 407217615 1237513980 -1801664026 1812883850 -1514771447 -1007549561 369489782 -225961141 -1835665588 938100722 1462160795 1265141891 -140049065 -1415781351 -600814087 2067248172 193375344 -1280915348 1241638838 1202274657 -884947805 -77922503 -1483035423 -432801347 -1028834551 1980453941 1110650309 -539663583
REM
CELL 1.54180   50.00000   50.00000   50.00000   90.00000   90.00000   90.00000
LATT -1
SFAC C  
C      1  0.5698310000000  0.5340040000000  0.4979800000000 1.0
C      1  0.4413680000000  0.5398940000000  0.4689470000000 1.0
C      1  0.4882810000000  0.5066520000000  0.5784340000000 1.0
C      1  0.4917350000000  0.4973230000000  0.4827770000000 1.0
C      1  0.4725770000000  0.4910540000000  0.4497320000000 1.0
C      1  0.4501770000000  0.4790490000000  0.5113970000000 1.0
C      1  0.4809160000000  0.5188740000000  0.4457930000000 1.0
C      1  0.4506350000000  0.4567620000000  0.4930510000000 1.0
C      1  0.5240320000000  0.5388900000000  0.5465200000000 1.0
C      1  0.5197410000000  0.4656660000000  0.5515350000000 1.0
C      1  0.5149640000000  0.4271800000000  0.4835550000000 1.0
C      1  0.4353310000000  0.4981710000000  0.4950780000000 1.0
C      1  0.4915880000000  0.5481430000000  0.4859810000000 1.0
C      1  0.5058210000000  0.5594000000000  0.5531830000000 1.0
C      1  0.4385830000000  0.5206410000000  0.5399080000000 1.0
C      1  0.5351470000000  0.4902970000000  0.5558250000000 1.0
C      1  0.5739420000000  0.5054360000000  0.4950160000000 1.0
C      1  0.5404820000000  0.4831090000000  0.4608960000000 1.0
C      1  0.5638990000000  0.4895500000000  0.5170370000000 1.0
C      1  0.5294020000000  0.5579620000000  0.5067300000000 1.0
C      1  0.5096420000000  0.5251590000000  0.4527930000000 1.0
C      1  0.4789500000000  0.4330710000000  0.5245620000000 1.0
C      1  0.5302320000000  0.4565180000000  0.4528580000000 1.0
C      1  0.4789420000000  0.4999760000000  0.5536830000000 1.0
C      1  0.5130120000000  0.5216240000000  0.5260030000000 1.0
C      1  0.4700140000000  0.4518770000000  0.5466020000000 1.0
C      1  0.4806820000000  0.5481300000000  0.5461490000000 1.0
C      1  0.4908040000000  0.4734010000000  0.5442640000000 1.0
C      1  0.4723120000000  0.5690610000000  0.4817140000000 1.0
C      1  0.4660850000000  0.4651720000000  0.4388480000000 1.0
C      1  0.4393070000000  0.4590910000000  0.4447870000000 1.0
C      1  0.5765630000000  0.4937190000000  0.4691190000000 1.0
C      1  0.4359210000000  0.4695060000000  0.4707270000000 1.0
C      1  0.4431770000000  0.5399710000000  0.5195170000000 1.0
C      1  0.5180490000000  0.5522710000000  0.4587800000000 1.0
C      1  0.5053370000000  0.4471150000000  0.4632410000000 1.0
C      1  0.4842070000000  0.4448860000000  0.4451300000000 1.0
C      1  0.5384560000000  0.5586490000000  0.4785660000000 1.0
C      1  0.5300940000000  0.4511510000000  0.5272560000000 1.0
C      1  0.5512790000000  0.4638580000000  0.5108900000000 1.0
C      1  0.5527180000000  0.5063530000000  0.5383060000000 1.0
C      1  0.5204520000000  0.4936590000000  0.5197400000000 1.0
C      1  0.4849430000000  0.5218060000000  0.5323980000000 1.0
C      1  0.5749200000000  0.4658670000000  0.4670280000000 1.0
C      1  0.4990550000000  0.5642920000000  0.5100980000000 1.0
C      1  0.5197860000000  0.5038030000000  0.4709780000000 1.0
C      1  0.5520640000000  0.5415820000000  0.5211150000000 1.0
C      1  0.4941800000000  0.4774830000000  0.5056560000000 1.0
C      1  0.4658540000000  0.5665160000000  0.4545850000000 1.0
C      1  0.4466500000000  0.4718170000000  0.5394360000000 1.0
C      1  0.5105520000000  0.4309100000000  0.5145950000000 1.0
C      1  0.4484960000000  0.5250030000000  0.4938050000000 1.0
C      1  0.4803690000000  0.4496920000000  0.4985690000000 1.0
C      1  0.5590290000000  0.4514070000000  0.4860070000000 1.0
C      1  0.4639360000000  0.5601340000000  0.5261380000000 1.0
C      1  0.4791090000000  0.5221180000000  0.4968190000000 1.0
C      1  0.4490690000000  0.4980540000000  0.5536700000000 1.0
C      1  0.5646170000000  0.5485070000000  0.4743880000000 1.0
C      1  0.4591960000000  0.5397030000000  0.4454220000000 1.0
C      1  0.5434880000000  0.4290330000000  0.4763810000000 1.0
END
