TITL C-9256-7861-337 1.65232979780634e-06 125000 -367.102584968112 0 0 60 (C1) n - 1
REM
REM in /home/bkarasulu/CARBON/AIRSS/Generating-Clusters/EDIP-Nigel-Params/Higher-Symm/Box-15A/Only-C60/SD-CG/HFTN-CG
REM
REM
REM
REM
REM
REM ./C.cell (414f73aa93bd7a1190c7fd0f31ff2f98)
REM
REM compiler GCC version 9.2.1 20190827 (Red Hat 9.2.1-1)
REM options -cpp -mtune=generic -march=x86-64 -g -O0 -fpre-include=/usr/include/finclude/math-vector-fortran.h
REM seed 490569501 2101126893 -1132318154 -2142127818 -668200859 -1221029716 -1146072983 468658843 -1033529983 -352569384 -411043692 -2045486145 1745076059 -1357061137 1666861406 1738739404 -1308247155 -1784245455 403004847 609776529 478569692 -143711784 -456644276 806594771 2019919645 293822885 1179527864 474011653 1854305798 -978091638 96150206 2012539265 -1452720096
REM
CELL 1.54180   50.00000   50.00000   50.00000   90.00000   90.00000   90.00000
LATT -1
SFAC C  
C      1  0.5580890000000  0.4563320000000  0.4857390000000 1.0
C      1  0.4454020000000  0.4784540000000  0.5548700000000 1.0
C      1  0.4824020000000  0.5526810000000  0.4454050000000 1.0
C      1  0.5497880000000  0.5435330000000  0.5131700000000 1.0
C      1  0.4456660000000  0.4457100000000  0.5157860000000 1.0
C      1  0.4482510000000  0.5542470000000  0.4811750000000 1.0
C      1  0.4475290000000  0.5162620000000  0.4487300000000 1.0
C      1  0.5508330000000  0.4842820000000  0.4463980000000 1.0
C      1  0.5505380000000  0.5167520000000  0.5556140000000 1.0
C      1  0.4865790000000  0.4466020000000  0.5490800000000 1.0
C      1  0.5190510000000  0.5576870000000  0.5522680000000 1.0
C      1  0.5184360000000  0.4481650000000  0.4525920000000 1.0
C      1  0.5511340000000  0.4852740000000  0.4769600000000 1.0
C      1  0.4684080000000  0.5666390000000  0.4658270000000 1.0
C      1  0.4691360000000  0.4649920000000  0.5640810000000 1.0
C      1  0.5597310000000  0.5191190000000  0.5269820000000 1.0
C      1  0.4355360000000  0.5322400000000  0.4687890000000 1.0
C      1  0.4402600000000  0.4721320000000  0.5273770000000 1.0
C      1  0.4752460000000  0.4364930000000  0.5228760000000 1.0
C      1  0.5366150000000  0.4377920000000  0.4737260000000 1.0
C      1  0.5318100000000  0.5615740000000  0.5266020000000 1.0
C      1  0.4720210000000  0.5269680000000  0.4391080000000 1.0
C      1  0.5239170000000  0.5287670000000  0.5622080000000 1.0
C      1  0.5308730000000  0.4675910000000  0.4364940000000 1.0
C      1  0.5470080000000  0.5133530000000  0.4432970000000 1.0
C      1  0.5156930000000  0.4542520000000  0.5464720000000 1.0
C      1  0.4547270000000  0.5503480000000  0.5095110000000 1.0
C      1  0.5531930000000  0.4868520000000  0.5564760000000 1.0
C      1  0.4617530000000  0.5116950000000  0.5431490000000 1.0
C      1  0.4528520000000  0.4874910000000  0.4537590000000 1.0
C      1  0.5118950000000  0.5484280000000  0.4480290000000 1.0
C      1  0.4889740000000  0.4531940000000  0.4562950000000 1.0
C      1  0.4874920000000  0.5598590000000  0.5467650000000 1.0
C      1  0.4444250000000  0.4489440000000  0.4847980000000 1.0
C      1  0.5440180000000  0.5410160000000  0.4849110000000 1.0
C      1  0.5567640000000  0.4563600000000  0.5161160000000 1.0
C      1  0.5285620000000  0.4492190000000  0.5205370000000 1.0
C      1  0.5174850000000  0.5187600000000  0.4427990000000 1.0
C      1  0.4506930000000  0.5216440000000  0.5165710000000 1.0
C      1  0.5188240000000  0.5540400000000  0.4763610000000 1.0
C      1  0.4780980000000  0.5652520000000  0.5194410000000 1.0
C      1  0.4681230000000  0.4374750000000  0.4703260000000 1.0
C      1  0.5295110000000  0.4719480000000  0.5647350000000 1.0
C      1  0.4824180000000  0.4810240000000  0.4505880000000 1.0
C      1  0.4854420000000  0.5301090000000  0.5505170000000 1.0
C      1  0.4397210000000  0.4769230000000  0.4774170000000 1.0
C      1  0.5643720000000  0.4803450000000  0.5302190000000 1.0
C      1  0.5583590000000  0.5224090000000  0.4684840000000 1.0
C      1  0.5129260000000  0.4977730000000  0.5414970000000 1.0
C      1  0.5073350000000  0.5329400000000  0.5183270000000 1.0
C      1  0.5250000000000  0.5070690000000  0.5144260000000 1.0
C      1  0.5020770000000  0.5014560000000  0.4640560000000 1.0
C      1  0.4813580000000  0.5206870000000  0.4761570000000 1.0
C      1  0.4832200000000  0.4886980000000  0.5367470000000 1.0
C      1  0.5149300000000  0.4583380000000  0.4956540000000 1.0
C      1  0.4949080000000  0.5440890000000  0.4923490000000 1.0
C      1  0.4855400000000  0.4543740000000  0.4998830000000 1.0
C      1  0.5220120000000  0.4885680000000  0.4881710000000 1.0
C      1  0.4605700000000  0.5043830000000  0.4936660000000 1.0
C      1  0.4724690000000  0.4803970000000  0.5096380000000 1.0
END
