TITL C-9255-4564-30 6.3641148437413e-06 125000 -356.571778009472 0 0 60 (C1) n - 1
REM
REM in /home/bkarasulu/CARBON/AIRSS/Generating-Clusters/EDIP-Nigel-Params/Higher-Symm/Box-15A/Only-C60/SD-CG/HFTN-CG
REM
REM
REM
REM
REM
REM ./C.cell (414f73aa93bd7a1190c7fd0f31ff2f98)
REM
REM compiler GCC version 9.2.1 20190827 (Red Hat 9.2.1-1)
REM options -cpp -mtune=generic -march=x86-64 -g -O0 -fpre-include=/usr/include/finclude/math-vector-fortran.h
REM seed -1730761791 -587425604 2018632357 1455809929 -809052167 -1496943385 -2114289879 -2016635261 864484397 -1941139131 -354135014 2141434531 -630059214 483495395 -104625513 -817773800 1222901179 -1333423841 -1326608709 -1464690290 1012349856 62417221 2118686755 -1356486310 -1681568305 2103714433 876166880 1754960488 540906020 -1014257924 1022992205 -1586524817 -2110588516
REM
CELL 1.54180   50.00000   50.00000   50.00000   90.00000   90.00000   90.00000
LATT -1
SFAC C  
C      1  0.5317670000000  0.4285670000000  0.4849190000000 1.0
C      1  0.4263100000000  0.5040100000000  0.4866790000000 1.0
C      1  0.5396390000000  0.5601450000000  0.4845570000000 1.0
C      1  0.5307050000000  0.4317950000000  0.5114970000000 1.0
C      1  0.4262910000000  0.5042590000000  0.5135400000000 1.0
C      1  0.5385210000000  0.5553660000000  0.5108540000000 1.0
C      1  0.4873840000000  0.5744540000000  0.5137150000000 1.0
C      1  0.5760450000000  0.4766950000000  0.5152230000000 1.0
C      1  0.4441070000000  0.4571800000000  0.5137310000000 1.0
C      1  0.4867680000000  0.5746120000000  0.4864960000000 1.0
C      1  0.5727500000000  0.4780470000000  0.4885900000000 1.0
C      1  0.4441290000000  0.4570440000000  0.4862570000000 1.0
C      1  0.4672930000000  0.4814770000000  0.5647100000000 1.0
C      1  0.5029240000000  0.5329870000000  0.5681060000000 1.0
C      1  0.5233750000000  0.4835000000000  0.5620550000000 1.0
C      1  0.4673380000000  0.4814650000000  0.4352730000000 1.0
C      1  0.5029960000000  0.5330670000000  0.4319330000000 1.0
C      1  0.5232690000000  0.4833760000000  0.4381270000000 1.0
C      1  0.4694010000000  0.5002930000000  0.4146750000000 1.0
C      1  0.5273650000000  0.5278480000000  0.4191570000000 1.0
C      1  0.5091270000000  0.4668000000000  0.4203340000000 1.0
C      1  0.4692920000000  0.5002230000000  0.5853980000000 1.0
C      1  0.5272230000000  0.5279450000000  0.5810840000000 1.0
C      1  0.5090310000000  0.4669470000000  0.5796900000000 1.0
C      1  0.4355310000000  0.5559930000000  0.5135940000000 1.0
C      1  0.5723120000000  0.5252600000000  0.5141640000000 1.0
C      1  0.4815800000000  0.4260760000000  0.5141130000000 1.0
C      1  0.4352040000000  0.5558730000000  0.4864810000000 1.0
C      1  0.5720990000000  0.5253250000000  0.4861180000000 1.0
C      1  0.4814390000000  0.4259860000000  0.4862760000000 1.0
C      1  0.4863330000000  0.4589360000000  0.5643830000000 1.0
C      1  0.4800360000000  0.5245680000000  0.5813170000000 1.0
C      1  0.5395810000000  0.5076430000000  0.5664670000000 1.0
C      1  0.4862730000000  0.4588370000000  0.4354470000000 1.0
C      1  0.4801810000000  0.5246350000000  0.4186190000000 1.0
C      1  0.5394700000000  0.5075970000000  0.4340650000000 1.0
C      1  0.4701190000000  0.4695600000000  0.4804780000000 1.0
C      1  0.4825600000000  0.5464750000000  0.4802560000000 1.0
C      1  0.5512740000000  0.4881220000000  0.4743290000000 1.0
C      1  0.4700530000000  0.4698050000000  0.5194250000000 1.0
C      1  0.4828970000000  0.5463640000000  0.5199030000000 1.0
C      1  0.5529290000000  0.4875710000000  0.5268950000000 1.0
C      1  0.4456760000000  0.5126360000000  0.4682710000000 1.0
C      1  0.5316310000000  0.5365450000000  0.4714760000000 1.0
C      1  0.5185710000000  0.4504270000000  0.4732650000000 1.0
C      1  0.4457130000000  0.5128350000000  0.5319120000000 1.0
C      1  0.5317890000000  0.5356620000000  0.5289530000000 1.0
C      1  0.5182580000000  0.4516820000000  0.5261290000000 1.0
C      1  0.5042390000000  0.5357340000000  0.4612210000000 1.0
C      1  0.5348290000000  0.4699230000000  0.4598070000000 1.0
C      1  0.4665170000000  0.4927190000000  0.4619420000000 1.0
C      1  0.5044950000000  0.5354590000000  0.5388950000000 1.0
C      1  0.5349870000000  0.4699040000000  0.5404890000000 1.0
C      1  0.4664950000000  0.4928580000000  0.5380970000000 1.0
C      1  0.4891350000000  0.4485200000000  0.5327680000000 1.0
C      1  0.4543100000000  0.5409670000000  0.5282130000000 1.0
C      1  0.5539470000000  0.5162410000000  0.5375300000000 1.0
C      1  0.4890850000000  0.4479950000000  0.4670200000000 1.0
C      1  0.4540560000000  0.5408460000000  0.4719420000000 1.0
C      1  0.5533460000000  0.5163170000000  0.4631360000000 1.0
END
