TITL C-9268-6400-139 2.0827403961043e-05 125000 -360.286142330407 0 0 60 (C1) n - 1
REM
REM in /home/bkarasulu/CARBON/AIRSS/Generating-Clusters/EDIP-Nigel-Params/Higher-Symm/Box-15A/Only-C60/SD-CG/HFTN-CG
REM
REM
REM
REM
REM
REM ./C.cell (414f73aa93bd7a1190c7fd0f31ff2f98)
REM
REM compiler GCC version 9.2.1 20190827 (Red Hat 9.2.1-1)
REM options -cpp -mtune=generic -march=x86-64 -g -O0 -fpre-include=/usr/include/finclude/math-vector-fortran.h
REM seed -772352860 -1169417881 -999106204 281212635 1446387089 549984465 -607281342 -854003948 -206420433 332877934 461177807 896043385 1792882357 -1947156244 -870170866 -575445568 -1789658696 -927488289 -2080070625 -1085088956 -1292830120 -556316519 -755609544 663834490 76808539 264729235 -1035298194 -1426936565 2013159948 691863835 94220202 54512699 -1804593540
REM
CELL 1.54180   50.00000   50.00000   50.00000   90.00000   90.00000   90.00000
LATT -1
SFAC C  
C      1  0.4778560000000  0.4832370000000  0.5118960000000 1.0
C      1  0.5149840000000  0.5134100000000  0.5186000000000 1.0
C      1  0.4803610000000  0.4775630000000  0.4815660000000 1.0
C      1  0.5147790000000  0.5186300000000  0.4889780000000 1.0
C      1  0.4938050000000  0.4319340000000  0.5296980000000 1.0
C      1  0.4958710000000  0.5657660000000  0.5347030000000 1.0
C      1  0.5070050000000  0.4257890000000  0.4639420000000 1.0
C      1  0.4819570000000  0.5643180000000  0.4636830000000 1.0
C      1  0.4793950000000  0.5049860000000  0.4658390000000 1.0
C      1  0.5155380000000  0.4923050000000  0.4721720000000 1.0
C      1  0.4851490000000  0.5107680000000  0.5238040000000 1.0
C      1  0.5241920000000  0.4861630000000  0.5263010000000 1.0
C      1  0.4714650000000  0.5325620000000  0.5073680000000 1.0
C      1  0.5026950000000  0.4673800000000  0.5168270000000 1.0
C      1  0.4874420000000  0.5301660000000  0.4810870000000 1.0
C      1  0.5153130000000  0.4639850000000  0.4891480000000 1.0
C      1  0.5488940000000  0.4903140000000  0.4476510000000 1.0
C      1  0.4456320000000  0.5098610000000  0.4380340000000 1.0
C      1  0.5578630000000  0.4861180000000  0.5597370000000 1.0
C      1  0.4510720000000  0.5195190000000  0.5567420000000 1.0
C      1  0.5781060000000  0.5430670000000  0.5184980000000 1.0
C      1  0.4216090000000  0.4673040000000  0.5136270000000 1.0
C      1  0.5753280000000  0.5429450000000  0.4919430000000 1.0
C      1  0.4274080000000  0.4600720000000  0.4886670000000 1.0
C      1  0.4733570000000  0.5099430000000  0.4371740000000 1.0
C      1  0.5292260000000  0.4785280000000  0.4334510000000 1.0
C      1  0.4780570000000  0.5139820000000  0.5528220000000 1.0
C      1  0.5310780000000  0.4810190000000  0.5537710000000 1.0
C      1  0.5168650000000  0.4588150000000  0.5625750000000 1.0
C      1  0.4970240000000  0.5303660000000  0.5666030000000 1.0
C      1  0.5084820000000  0.4610230000000  0.4300390000000 1.0
C      1  0.4865670000000  0.5325770000000  0.4280380000000 1.0
C      1  0.5105320000000  0.5462950000000  0.5479250000000 1.0
C      1  0.4934670000000  0.4460200000000  0.5544090000000 1.0
C      1  0.4985180000000  0.5518100000000  0.4441890000000 1.0
C      1  0.4958420000000  0.4486160000000  0.4520860000000 1.0
C      1  0.5129930000000  0.4240940000000  0.5116210000000 1.0
C      1  0.4779670000000  0.5612530000000  0.5140460000000 1.0
C      1  0.5195490000000  0.4348120000000  0.4868810000000 1.0
C      1  0.4844950000000  0.5729440000000  0.4897140000000 1.0
C      1  0.5644660000000  0.5312930000000  0.4693990000000 1.0
C      1  0.4394190000000  0.4710150000000  0.4664470000000 1.0
C      1  0.5704590000000  0.5295270000000  0.5412990000000 1.0
C      1  0.4315440000000  0.4805930000000  0.5357090000000 1.0
C      1  0.4685110000000  0.4552940000000  0.5625520000000 1.0
C      1  0.5306820000000  0.5502170000000  0.5670820000000 1.0
C      1  0.4727360000000  0.4466590000000  0.4359900000000 1.0
C      1  0.5258740000000  0.5553740000000  0.4441580000000 1.0
C      1  0.5562940000000  0.5422400000000  0.5614210000000 1.0
C      1  0.4447660000000  0.4658710000000  0.5554830000000 1.0
C      1  0.5498510000000  0.5471110000000  0.4522270000000 1.0
C      1  0.4487760000000  0.4550740000000  0.4459930000000 1.0
C      1  0.4309830000000  0.5146360000000  0.4843380000000 1.0
C      1  0.5718440000000  0.4889660000000  0.4904260000000 1.0
C      1  0.4421560000000  0.5242790000000  0.5080350000000 1.0
C      1  0.5788460000000  0.4893260000000  0.5163510000000 1.0
C      1  0.4380850000000  0.5092950000000  0.5338910000000 1.0
C      1  0.5726660000000  0.5008650000000  0.5409480000000 1.0
C      1  0.4356020000000  0.4989790000000  0.4618680000000 1.0
C      1  0.5587000000000  0.5031300000000  0.4705280000000 1.0
END
