TITL C-9270-2362-282 -1.39019983958105e-05 125000 -366.894794825136 0 0 60 (C2) n - 1
REM
REM in /home/bkarasulu/CARBON/AIRSS/Generating-Clusters/EDIP-Nigel-Params/Higher-Symm/Box-15A/Only-C60/SD-CG/HFTN-CG
REM
REM
REM
REM
REM
REM ./C.cell (414f73aa93bd7a1190c7fd0f31ff2f98)
REM
REM compiler GCC version 9.2.1 20190827 (Red Hat 9.2.1-1)
REM options -cpp -mtune=generic -march=x86-64 -g -O0 -fpre-include=/usr/include/finclude/math-vector-fortran.h
REM seed -1536717594 -689631942 18134891 -305169171 528044856 1354891420 -350715547 1759498470 853058078 268259043 393959107 563395597 -1203275864 539306693 -272811916 370517724 1657984952 -1485400387 -1862028679 -1821362376 -2139863514 1744962728 1963921985 -1095575312 -794906909 1815296390 766023504 -75817614 -1261161482 -1353538925 -894963609 -1356210406 -1025757644
REM
CELL 1.54180   50.00000   50.00000   50.00000   90.00000   90.00000   90.00000
LATT -1
SFAC C  
C      1  0.5470140000000  0.4562740000000  0.5502320000000 1.0
C      1  0.4400900000000  0.4797170000000  0.5357710000000 1.0
C      1  0.5148780000000  0.5576230000000  0.5535260000000 1.0
C      1  0.5448950000000  0.4608400000000  0.4504690000000 1.0
C      1  0.4371160000000  0.4753780000000  0.4619970000000 1.0
C      1  0.5067480000000  0.5638370000000  0.4628720000000 1.0
C      1  0.4551250000000  0.4608460000000  0.5495550000000 1.0
C      1  0.5628970000000  0.4754340000000  0.5380180000000 1.0
C      1  0.4932180000000  0.5638560000000  0.5370890000000 1.0
C      1  0.4530090000000  0.4562180000000  0.4497940000000 1.0
C      1  0.5599200000000  0.4797270000000  0.4642410000000 1.0
C      1  0.4850910000000  0.5575820000000  0.4464380000000 1.0
C      1  0.4456710000000  0.5083460000000  0.5380640000000 1.0
C      1  0.5379150000000  0.5418980000000  0.5521300000000 1.0
C      1  0.5225000000000  0.4435640000000  0.5476390000000 1.0
C      1  0.4413140000000  0.5034470000000  0.4563740000000 1.0
C      1  0.5222430000000  0.5392410000000  0.4700900000000 1.0
C      1  0.5220910000000  0.4450820000000  0.4524840000000 1.0
C      1  0.5586840000000  0.5035050000000  0.5436230000000 1.0
C      1  0.4777360000000  0.5392480000000  0.5298860000000 1.0
C      1  0.4779380000000  0.4450990000000  0.5475490000000 1.0
C      1  0.5543250000000  0.5083510000000  0.4619310000000 1.0
C      1  0.4620630000000  0.5418460000000  0.4478440000000 1.0
C      1  0.4775300000000  0.4435230000000  0.4523960000000 1.0
C      1  0.5142570000000  0.4336720000000  0.4779020000000 1.0
C      1  0.4293890000000  0.5227560000000  0.4739870000000 1.0
C      1  0.5466540000000  0.5468750000000  0.4865540000000 1.0
C      1  0.5142970000000  0.4324280000000  0.5223610000000 1.0
C      1  0.4345120000000  0.5256490000000  0.5179650000000 1.0
C      1  0.5556810000000  0.5469990000000  0.5300390000000 1.0
C      1  0.4857390000000  0.4324070000000  0.4776800000000 1.0
C      1  0.5654740000000  0.5256730000000  0.4820190000000 1.0
C      1  0.4442940000000  0.5469510000000  0.4699320000000 1.0
C      1  0.4857790000000  0.4336780000000  0.5221380000000 1.0
C      1  0.5705990000000  0.5228100000000  0.5259990000000 1.0
C      1  0.4533220000000  0.5468580000000  0.5134170000000 1.0
C      1  0.5012880000000  0.5781200000000  0.4864710000000 1.0
C      1  0.4986710000000  0.5781280000000  0.5134820000000 1.0
C      1  0.4253400000000  0.4691220000000  0.4864250000000 1.0
C      1  0.5740430000000  0.4712860000000  0.4867290000000 1.0
C      1  0.4259720000000  0.4712550000000  0.5132890000000 1.0
C      1  0.5746770000000  0.4691700000000  0.5135940000000 1.0
C      1  0.5191920000000  0.4851040000000  0.5025130000000 1.0
C      1  0.5025640000000  0.4938360000000  0.4781020000000 1.0
C      1  0.4974400000000  0.4938480000000  0.5219020000000 1.0
C      1  0.4808160000000  0.4850920000000  0.4974960000000 1.0
C      1  0.4980010000000  0.5224320000000  0.5147880000000 1.0
C      1  0.5019870000000  0.5224240000000  0.4851980000000 1.0
C      1  0.5299910000000  0.4263650000000  0.4999230000000 1.0
C      1  0.4700480000000  0.4263490000000  0.5001220000000 1.0
C      1  0.5499300000000  0.5642610000000  0.5085470000000 1.0
C      1  0.4500360000000  0.5642300000000  0.4914140000000 1.0
C      1  0.4157020000000  0.5181320000000  0.4983310000000 1.0
C      1  0.5842890000000  0.5181780000000  0.5016580000000 1.0
C      1  0.5004100000000  0.4501520000000  0.5638840000000 1.0
C      1  0.4669850000000  0.5219150000000  0.5518370000000 1.0
C      1  0.5330030000000  0.5219010000000  0.4481500000000 1.0
C      1  0.4996160000000  0.4501130000000  0.4361470000000 1.0
C      1  0.4583410000000  0.5156450000000  0.4371530000000 1.0
C      1  0.5416500000000  0.5157050000000  0.5628370000000 1.0
END
