TITL C-9261-551-274 2.1984474019581e-08 125000 -377.812207671423 0 0 60 (C1) n - 1
REM
REM in /home/bkarasulu/CARBON/AIRSS/Generating-Clusters/EDIP-Nigel-Params/Higher-Symm/Box-15A/Only-C60/SD-CG/HFTN-CG
REM
REM
REM
REM
REM
REM ./C.cell (414f73aa93bd7a1190c7fd0f31ff2f98)
REM
REM compiler GCC version 9.2.1 20190827 (Red Hat 9.2.1-1)
REM options -cpp -mtune=generic -march=x86-64 -g -O0 -fpre-include=/usr/include/finclude/math-vector-fortran.h
REM seed 76906171 -947586317 -1711280387 376757194 500767109 -98127142 -428129993 -1609934530 810060993 836462168 -994410942 1966500947 -1482896949 232461569 1947194867 -553884513 -2026405341 -1492987340 -1322691938 223481121 -1159167530 2080178855 -1241715994 1174428970 -1649277144 2038207761 -1879537396 1326670191 -2048537600 996195416 -1905030049 1029399174 915539258
REM
CELL 1.54180   50.00000   50.00000   50.00000   90.00000   90.00000   90.00000
LATT -1
SFAC C  
C      1  0.5053300000000  0.4628330000000  0.4380640000000 1.0
C      1  0.4928650000000  0.5392140000000  0.4366010000000 1.0
C      1  0.4964460000000  0.4638190000000  0.5497370000000 1.0
C      1  0.5063310000000  0.5400970000000  0.5548610000000 1.0
C      1  0.5573920000000  0.4461070000000  0.4894630000000 1.0
C      1  0.4410720000000  0.5521650000000  0.4902060000000 1.0
C      1  0.4369010000000  0.4450770000000  0.5091540000000 1.0
C      1  0.5645130000000  0.5548420000000  0.5102480000000 1.0
C      1  0.5661970000000  0.4482860000000  0.5146410000000 1.0
C      1  0.4307870000000  0.5542250000000  0.5150130000000 1.0
C      1  0.4544420000000  0.4447160000000  0.4867900000000 1.0
C      1  0.5452630000000  0.5533360000000  0.4894860000000 1.0
C      1  0.4768160000000  0.4466010000000  0.5367590000000 1.0
C      1  0.5249940000000  0.5544220000000  0.5375300000000 1.0
C      1  0.5189370000000  0.4472430000000  0.4586910000000 1.0
C      1  0.4809250000000  0.5496590000000  0.4612640000000 1.0
C      1  0.5512520000000  0.5433280000000  0.5321820000000 1.0
C      1  0.4518210000000  0.4589590000000  0.5285850000000 1.0
C      1  0.4555710000000  0.5389340000000  0.4705330000000 1.0
C      1  0.5427630000000  0.4599840000000  0.4704710000000 1.0
C      1  0.5632210000000  0.4691050000000  0.5328620000000 1.0
C      1  0.4380840000000  0.5313390000000  0.5292530000000 1.0
C      1  0.4581850000000  0.4725710000000  0.4750170000000 1.0
C      1  0.5421110000000  0.5258440000000  0.4772220000000 1.0
C      1  0.4605200000000  0.5002200000000  0.4364130000000 1.0
C      1  0.5375690000000  0.4997980000000  0.4391210000000 1.0
C      1  0.5379740000000  0.5010620000000  0.5561490000000 1.0
C      1  0.4638170000000  0.5007490000000  0.5533870000000 1.0
C      1  0.5013750000000  0.4314200000000  0.4739940000000 1.0
C      1  0.4977770000000  0.5655330000000  0.4773390000000 1.0
C      1  0.4847550000000  0.4253020000000  0.5199920000000 1.0
C      1  0.5168350000000  0.5765970000000  0.5219480000000 1.0
C      1  0.4340240000000  0.4921780000000  0.4752620000000 1.0
C      1  0.5660330000000  0.5062180000000  0.4765650000000 1.0
C      1  0.5729030000000  0.4956990000000  0.5253690000000 1.0
C      1  0.4277350000000  0.5049830000000  0.5233830000000 1.0
C      1  0.5551360000000  0.4844910000000  0.4583910000000 1.0
C      1  0.4444080000000  0.5145310000000  0.4578520000000 1.0
C      1  0.4444560000000  0.4857520000000  0.5376180000000 1.0
C      1  0.5548760000000  0.5151330000000  0.5376230000000 1.0
C      1  0.4797400000000  0.4542690000000  0.4312200000000 1.0
C      1  0.5202220000000  0.5446620000000  0.4350000000000 1.0
C      1  0.5211880000000  0.4539070000000  0.5585820000000 1.0
C      1  0.4791920000000  0.5470240000000  0.5553140000000 1.0
C      1  0.4622860000000  0.4715940000000  0.4447880000000 1.0
C      1  0.5395470000000  0.5282540000000  0.4468190000000 1.0
C      1  0.5400090000000  0.4727210000000  0.5500860000000 1.0
C      1  0.4579300000000  0.5294470000000  0.5504000000000 1.0
C      1  0.4956910000000  0.4991380000000  0.5149670000000 1.0
C      1  0.5024800000000  0.4970180000000  0.4717820000000 1.0
C      1  0.5810860000000  0.4992470000000  0.4990980000000 1.0
C      1  0.4189780000000  0.4985800000000  0.4979220000000 1.0
C      1  0.5086090000000  0.4921910000000  0.4429740000000 1.0
C      1  0.4917220000000  0.4933640000000  0.5452210000000 1.0
C      1  0.4799580000000  0.4300140000000  0.4923470000000 1.0
C      1  0.5195960000000  0.5671290000000  0.4953010000000 1.0
C      1  0.5184540000000  0.5112390000000  0.4913740000000 1.0
C      1  0.4822310000000  0.4859690000000  0.4895310000000 1.0
C      1  0.4877300000000  0.5106310000000  0.4287590000000 1.0
C      1  0.5109390000000  0.5112290000000  0.5604780000000 1.0
END
