TITL C-9255-4564-237 -1.92843516579274e-06 125000 -361.247841159992 0 0 60 (C1) n - 1
REM
REM in /home/bkarasulu/CARBON/AIRSS/Generating-Clusters/EDIP-Nigel-Params/Higher-Symm/Box-15A/Only-C60/SD-CG/HFTN-CG
REM
REM
REM
REM
REM
REM ./C.cell (414f73aa93bd7a1190c7fd0f31ff2f98)
REM
REM compiler GCC version 9.2.1 20190827 (Red Hat 9.2.1-1)
REM options -cpp -mtune=generic -march=x86-64 -g -O0 -fpre-include=/usr/include/finclude/math-vector-fortran.h
REM seed -673767739 -20082787 -305521660 1119171289 894038783 -155098627 -402549381 532679629 69820766 -1166823162 541813900 -605168918 -2074892548 -1979678359 709710851 1687283745 1061262980 -835797267 1140899136 -1581503386 -1681629245 -1903790223 -903631919 1955329825 474398021 -1274950607 -1971836473 1185202737 -362784390 1173793035 -88391933 206525938 -1923376773
REM
CELL 1.54180   50.00000   50.00000   50.00000   90.00000   90.00000   90.00000
LATT -1
SFAC C  
C      1  0.5521550000000  0.5111110000000  0.5476020000000 1.0
C      1  0.4432810000000  0.5132190000000  0.4567970000000 1.0
C      1  0.5588090000000  0.4865680000000  0.5382070000000 1.0
C      1  0.4463430000000  0.4857120000000  0.4520870000000 1.0
C      1  0.5121600000000  0.5676530000000  0.5093140000000 1.0
C      1  0.4885030000000  0.5677160000000  0.4929690000000 1.0
C      1  0.5116260000000  0.4322980000000  0.5077980000000 1.0
C      1  0.4884020000000  0.4324910000000  0.4908190000000 1.0
C      1  0.5072930000000  0.4355380000000  0.5372380000000 1.0
C      1  0.4935120000000  0.4340640000000  0.4612670000000 1.0
C      1  0.5077750000000  0.5658420000000  0.5387540000000 1.0
C      1  0.4924160000000  0.5652290000000  0.4636370000000 1.0
C      1  0.4924870000000  0.5162930000000  0.5661900000000 1.0
C      1  0.5065130000000  0.5161820000000  0.4362470000000 1.0
C      1  0.4933650000000  0.4864870000000  0.5595260000000 1.0
C      1  0.5060840000000  0.4860700000000  0.4394960000000 1.0
C      1  0.4449320000000  0.4571150000000  0.4892810000000 1.0
C      1  0.5556980000000  0.4538070000000  0.5086390000000 1.0
C      1  0.4449000000000  0.5406450000000  0.4951340000000 1.0
C      1  0.5551690000000  0.5390310000000  0.5076800000000 1.0
C      1  0.5600930000000  0.4865710000000  0.4880900000000 1.0
C      1  0.4399570000000  0.4883100000000  0.5117310000000 1.0
C      1  0.5596430000000  0.5156270000000  0.4848490000000 1.0
C      1  0.4402550000000  0.5170010000000  0.5171940000000 1.0
C      1  0.4841850000000  0.4696450000000  0.4276290000000 1.0
C      1  0.5151540000000  0.4701550000000  0.5710270000000 1.0
C      1  0.4813050000000  0.5313920000000  0.4292720000000 1.0
C      1  0.5186250000000  0.5312060000000  0.5729340000000 1.0
C      1  0.4732190000000  0.4504840000000  0.4487590000000 1.0
C      1  0.5275650000000  0.4525610000000  0.5497370000000 1.0
C      1  0.4718260000000  0.5482780000000  0.4526780000000 1.0
C      1  0.5279500000000  0.5484320000000  0.5495560000000 1.0
C      1  0.5115180000000  0.5133330000000  0.5117060000000 1.0
C      1  0.4870810000000  0.5133710000000  0.4898120000000 1.0
C      1  0.5142680000000  0.4841750000000  0.5092110000000 1.0
C      1  0.4877670000000  0.4842260000000  0.4879910000000 1.0
C      1  0.5172630000000  0.5613060000000  0.4501270000000 1.0
C      1  0.4829320000000  0.5618880000000  0.5522950000000 1.0
C      1  0.5184830000000  0.4411580000000  0.4494490000000 1.0
C      1  0.4817970000000  0.4420900000000  0.5481590000000 1.0
C      1  0.5363390000000  0.5277250000000  0.5287960000000 1.0
C      1  0.4621890000000  0.5282380000000  0.4736440000000 1.0
C      1  0.5386510000000  0.4698620000000  0.5270020000000 1.0
C      1  0.4635540000000  0.4700460000000  0.4698840000000 1.0
C      1  0.5263500000000  0.5344950000000  0.4488050000000 1.0
C      1  0.4732610000000  0.5352690000000  0.5535220000000 1.0
C      1  0.5275190000000  0.4680520000000  0.4487460000000 1.0
C      1  0.4722630000000  0.4687710000000  0.5492900000000 1.0
C      1  0.4635140000000  0.5609200000000  0.5064670000000 1.0
C      1  0.5373100000000  0.5601680000000  0.4961860000000 1.0
C      1  0.4626640000000  0.4386360000000  0.5032850000000 1.0
C      1  0.5370020000000  0.4372230000000  0.4944790000000 1.0
C      1  0.4584810000000  0.5142210000000  0.4223410000000 1.0
C      1  0.5412410000000  0.5116660000000  0.5750200000000 1.0
C      1  0.4618800000000  0.4857650000000  0.4174190000000 1.0
C      1  0.5338560000000  0.4862110000000  0.5845100000000 1.0
C      1  0.5389350000000  0.4706220000000  0.4754310000000 1.0
C      1  0.4624400000000  0.4722430000000  0.5219560000000 1.0
C      1  0.5332880000000  0.5275800000000  0.4762940000000 1.0
C      1  0.4669520000000  0.5280060000000  0.5260370000000 1.0
END
