TITL C-9268-6400-127 2.36046422495172e-05 125000 -359.854949125483 0 0 60 (Ci) n - 1
REM
REM in /home/bkarasulu/CARBON/AIRSS/Generating-Clusters/EDIP-Nigel-Params/Higher-Symm/Box-15A/Only-C60/SD-CG/HFTN-CG
REM
REM
REM
REM
REM
REM ./C.cell (414f73aa93bd7a1190c7fd0f31ff2f98)
REM
REM compiler GCC version 9.2.1 20190827 (Red Hat 9.2.1-1)
REM options -cpp -mtune=generic -march=x86-64 -g -O0 -fpre-include=/usr/include/finclude/math-vector-fortran.h
REM seed 875110209 -369896947 -309449881 953965632 325852706 1215042542 249856732 -46616787 1638323961 1272378423 224691651 -1410450396 1384734758 902102653 -769617267 -820159811 -243535094 1793048621 1748123561 -805825579 1388931250 -245252887 -1298380665 1058901642 -1933101108 2003671504 -1501584253 1910715154 1414930569 1459167300 885430657 -978746735 1484887804
REM
CELL 1.54180   50.00000   50.00000   50.00000   90.00000   90.00000   90.00000
LATT -1
SFAC C  
C      1  0.4528950000000  0.4742060000000  0.5137250000000 1.0
C      1  0.5471050000000  0.5257940000000  0.4862750000000 1.0
C      1  0.5305120000000  0.5148080000000  0.4422830000000 1.0
C      1  0.4694880000000  0.4851920000000  0.5577170000000 1.0
C      1  0.4686140000000  0.5530510000000  0.4883870000000 1.0
C      1  0.5313860000000  0.4469490000000  0.5116130000000 1.0
C      1  0.4814510000000  0.4999340000000  0.4676400000000 1.0
C      1  0.5185490000000  0.5000660000000  0.5323600000000 1.0
C      1  0.5440110000000  0.5535640000000  0.4921300000000 1.0
C      1  0.4559890000000  0.4464360000000  0.5078700000000 1.0
C      1  0.4446430000000  0.4991930000000  0.5497190000000 1.0
C      1  0.5553570000000  0.5008070000000  0.4502810000000 1.0
C      1  0.5379690000000  0.4957680000000  0.5763160000000 1.0
C      1  0.4620310000000  0.5042320000000  0.4236840000000 1.0
C      1  0.4440470000000  0.5422820000000  0.4997110000000 1.0
C      1  0.5559530000000  0.4577180000000  0.5002890000000 1.0
C      1  0.4770950000000  0.5162830000000  0.4446930000000 1.0
C      1  0.5229050000000  0.4837170000000  0.5553070000000 1.0
C      1  0.4663200000000  0.5500580000000  0.4600080000000 1.0
C      1  0.5336800000000  0.4499420000000  0.5399920000000 1.0
C      1  0.4954840000000  0.5579900000000  0.5008950000000 1.0
C      1  0.5045160000000  0.4420100000000  0.4991050000000 1.0
C      1  0.4283600000000  0.5259740000000  0.4835980000000 1.0
C      1  0.5716400000000  0.4740260000000  0.5164020000000 1.0
C      1  0.5147060000000  0.4736620000000  0.4181250000000 1.0
C      1  0.4852940000000  0.5263380000000  0.5818750000000 1.0
C      1  0.4510630000000  0.4625190000000  0.4518300000000 1.0
C      1  0.5489370000000  0.5374810000000  0.5481700000000 1.0
C      1  0.4778760000000  0.4796750000000  0.5284460000000 1.0
C      1  0.5221240000000  0.5203250000000  0.4715540000000 1.0
C      1  0.4704250000000  0.4457040000000  0.4634110000000 1.0
C      1  0.5295750000000  0.5542960000000  0.5365890000000 1.0
C      1  0.5612240000000  0.4575670000000  0.4732340000000 1.0
C      1  0.4387760000000  0.5424330000000  0.5267660000000 1.0
C      1  0.5023440000000  0.5014690000000  0.4855450000000 1.0
C      1  0.4976560000000  0.4985310000000  0.5144550000000 1.0
C      1  0.5487920000000  0.4724490000000  0.4536140000000 1.0
C      1  0.4512080000000  0.5275510000000  0.5463860000000 1.0
C      1  0.5181650000000  0.5621060000000  0.4830010000000 1.0
C      1  0.4818350000000  0.4378940000000  0.5169990000000 1.0
C      1  0.4966990000000  0.4393130000000  0.4710380000000 1.0
C      1  0.5033010000000  0.5606870000000  0.5289620000000 1.0
C      1  0.5669570000000  0.5235700000000  0.5320530000000 1.0
C      1  0.4330430000000  0.4764300000000  0.4679470000000 1.0
C      1  0.5136720000000  0.5535960000000  0.4556270000000 1.0
C      1  0.4863280000000  0.4464040000000  0.5443730000000 1.0
C      1  0.5287190000000  0.4592960000000  0.4375950000000 1.0
C      1  0.4712810000000  0.5407040000000  0.5624050000000 1.0
C      1  0.4862680000000  0.5004840000000  0.5740760000000 1.0
C      1  0.5137320000000  0.4995160000000  0.4259240000000 1.0
C      1  0.4243640000000  0.5010040000000  0.4746920000000 1.0
C      1  0.5756360000000  0.4989960000000  0.5253080000000 1.0
C      1  0.5115030000000  0.4469910000000  0.5567560000000 1.0
C      1  0.4884970000000  0.5530090000000  0.4432440000000 1.0
C      1  0.5156900000000  0.4387930000000  0.4508380000000 1.0
C      1  0.4843100000000  0.5612070000000  0.5491620000000 1.0
C      1  0.5684930000000  0.5146500000000  0.4715410000000 1.0
C      1  0.4315070000000  0.4853500000000  0.5284590000000 1.0
C      1  0.4588440000000  0.4782220000000  0.4302660000000 1.0
C      1  0.5411560000000  0.5217780000000  0.5697340000000 1.0
END
