TITL C-9268-6400-344 4.66498502990217e-05 125000 -362.260060905519 0 0 60 (C1) n - 1
REM
REM in /home/bkarasulu/CARBON/AIRSS/Generating-Clusters/EDIP-Nigel-Params/Higher-Symm/Box-15A/Only-C60/SD-CG/HFTN-CG
REM
REM
REM
REM
REM
REM ./C.cell (414f73aa93bd7a1190c7fd0f31ff2f98)
REM
REM compiler GCC version 9.2.1 20190827 (Red Hat 9.2.1-1)
REM options -cpp -mtune=generic -march=x86-64 -g -O0 -fpre-include=/usr/include/finclude/math-vector-fortran.h
REM seed 419797702 855332814 182755023 -1068918117 928599455 628799432 -86339954 -1466287875 376411614 -1730924171 -1594696395 582454999 135012186 1568597838 1228485725 -690381992 -208644879 -834838816 1470511032 -1105239275 -273904111 -52912980 -1767537072 1730058655 -157275372 264968819 690801966 -496064804 74356503 2030976657 1706505398 -1811294131 -1752318672
REM
CELL 1.54180   50.00000   50.00000   50.00000   90.00000   90.00000   90.00000
LATT -1
SFAC C  
C      1  0.5070950000000  0.5104200000000  0.4716040000000 1.0
C      1  0.5019000000000  0.4392110000000  0.4561180000000 1.0
C      1  0.4944220000000  0.5470850000000  0.5576240000000 1.0
C      1  0.4921240000000  0.5140280000000  0.5194810000000 1.0
C      1  0.5582720000000  0.5085350000000  0.4518290000000 1.0
C      1  0.5255760000000  0.4876100000000  0.4879400000000 1.0
C      1  0.4353600000000  0.4685590000000  0.4907360000000 1.0
C      1  0.4617370000000  0.5095430000000  0.5658720000000 1.0
C      1  0.4545500000000  0.4826570000000  0.5618110000000 1.0
C      1  0.5264570000000  0.5440020000000  0.4508690000000 1.0
C      1  0.5172070000000  0.5683720000000  0.4892820000000 1.0
C      1  0.4989350000000  0.5450130000000  0.4453960000000 1.0
C      1  0.5397890000000  0.4681370000000  0.4512910000000 1.0
C      1  0.4648770000000  0.5470790000000  0.4837320000000 1.0
C      1  0.5586970000000  0.4847070000000  0.4393790000000 1.0
C      1  0.5581100000000  0.5124550000000  0.5385790000000 1.0
C      1  0.5426220000000  0.4564010000000  0.5225840000000 1.0
C      1  0.5233170000000  0.5035960000000  0.5146380000000 1.0
C      1  0.4827470000000  0.5574390000000  0.4645790000000 1.0
C      1  0.5090580000000  0.4601110000000  0.4937260000000 1.0
C      1  0.4896050000000  0.5202110000000  0.5724310000000 1.0
C      1  0.5469030000000  0.4498660000000  0.4730350000000 1.0
C      1  0.5162980000000  0.4575700000000  0.4375750000000 1.0
C      1  0.5590240000000  0.4613580000000  0.4981360000000 1.0
C      1  0.4280420000000  0.4776130000000  0.5187480000000 1.0
C      1  0.4508260000000  0.5232080000000  0.4755450000000 1.0
C      1  0.4487260000000  0.4675030000000  0.5388780000000 1.0
C      1  0.5346770000000  0.4817070000000  0.5351500000000 1.0
C      1  0.5133860000000  0.4473340000000  0.5577790000000 1.0
C      1  0.5390620000000  0.5582560000000  0.5041010000000 1.0
C      1  0.4854350000000  0.4876460000000  0.4796910000000 1.0
C      1  0.4708080000000  0.4650260000000  0.5178020000000 1.0
C      1  0.4588240000000  0.4499880000000  0.4936840000000 1.0
C      1  0.5481760000000  0.5327510000000  0.4937090000000 1.0
C      1  0.4503060000000  0.5279380000000  0.5462330000000 1.0
C      1  0.5295410000000  0.4348110000000  0.5375180000000 1.0
C      1  0.4947080000000  0.5722150000000  0.5051180000000 1.0
C      1  0.4996500000000  0.4730410000000  0.4212970000000 1.0
C      1  0.5669080000000  0.4889630000000  0.4961880000000 1.0
C      1  0.5047220000000  0.5325710000000  0.4945770000000 1.0
C      1  0.5141340000000  0.4763800000000  0.5558240000000 1.0
C      1  0.4760140000000  0.5377290000000  0.5334680000000 1.0
C      1  0.5339370000000  0.5216250000000  0.5538170000000 1.0
C      1  0.4987150000000  0.4522800000000  0.5223960000000 1.0
C      1  0.5210140000000  0.4357490000000  0.4789240000000 1.0
C      1  0.4751760000000  0.4931040000000  0.5068180000000 1.0
C      1  0.5652430000000  0.5144450000000  0.5096190000000 1.0
C      1  0.4752090000000  0.4517610000000  0.4673890000000 1.0
C      1  0.4586210000000  0.5169920000000  0.4489020000000 1.0
C      1  0.4598570000000  0.4691970000000  0.4489520000000 1.0
C      1  0.5239960000000  0.5485210000000  0.5524410000000 1.0
C      1  0.4718380000000  0.5569710000000  0.5106260000000 1.0
C      1  0.5144300000000  0.5037130000000  0.5678750000000 1.0
C      1  0.5347790000000  0.5630060000000  0.5312590000000 1.0
C      1  0.5463970000000  0.5299960000000  0.4646660000000 1.0
C      1  0.4864740000000  0.5191960000000  0.4416820000000 1.0
C      1  0.4739450000000  0.4792030000000  0.4270220000000 1.0
C      1  0.4271440000000  0.5195850000000  0.5331970000000 1.0
C      1  0.4431130000000  0.4862740000000  0.4667300000000 1.0
C      1  0.4114830000000  0.4997370000000  0.5241260000000 1.0
END
