TITL C-9263-351-209 2.99109562323259e-05 125000 -348.556981691845 0 0 60 (C3) n - 1
REM
REM in /home/bkarasulu/CARBON/AIRSS/Generating-Clusters/EDIP-Nigel-Params/Higher-Symm/Box-15A/Only-C60/SD-CG/HFTN-CG
REM
REM
REM
REM
REM
REM ./C.cell (414f73aa93bd7a1190c7fd0f31ff2f98)
REM
REM compiler GCC version 9.2.1 20190827 (Red Hat 9.2.1-1)
REM options -cpp -mtune=generic -march=x86-64 -g -O0 -fpre-include=/usr/include/finclude/math-vector-fortran.h
REM seed 723632370 -1336340681 689389807 -1420219348 1166581356 -1499502384 1080189253 -1046041807 86775763 458756270 1283999867 -1495547363 622962735 270901190 2007770680 389295154 1698912018 -1402265930 1098668145 1793401963 403497557 -677763316 477159556 -360388916 -1728951922 549489036 1821232060 1938533789 878632923 -1362609571 -729987450 101552020 -116280129
REM
CELL 1.54180   50.00000   50.00000   50.00000   90.00000   90.00000   90.00000
LATT -1
SFAC C  
C      1  0.4704770000000  0.5037390000000  0.4388720000000 1.0
C      1  0.4704860000000  0.5510690000000  0.5338100000000 1.0
C      1  0.4704940000000  0.4451850000000  0.5273300000000 1.0
C      1  0.4479030000000  0.5605720000000  0.4913850000000 1.0
C      1  0.4479200000000  0.4771750000000  0.5567800000000 1.0
C      1  0.4479060000000  0.4622400000000  0.4518580000000 1.0
C      1  0.4504380000000  0.4745930000000  0.4968210000000 1.0
C      1  0.4504320000000  0.5154560000000  0.4796010000000 1.0
C      1  0.4504380000000  0.5099380000000  0.5236000000000 1.0
C      1  0.4896360000000  0.5490350000000  0.5559950000000 1.0
C      1  0.4896410000000  0.4269900000000  0.5144710000000 1.0
C      1  0.4896210000000  0.5239730000000  0.4295390000000 1.0
C      1  0.4340670000000  0.4982000000000  0.5442040000000 1.0
C      1  0.4340610000000  0.4626180000000  0.4763590000000 1.0
C      1  0.4340550000000  0.5391650000000  0.4794660000000 1.0
C      1  0.5497030000000  0.5418330000000  0.4745730000000 1.0
C      1  0.5497180000000  0.5011040000000  0.5489280000000 1.0
C      1  0.5497110000000  0.4570750000000  0.4764780000000 1.0
C      1  0.5693600000000  0.4966800000000  0.4774950000000 1.0
C      1  0.5693620000000  0.5211500000000  0.5083570000000 1.0
C      1  0.5693660000000  0.4821880000000  0.5141180000000 1.0
C      1  0.4819120000000  0.5751790000000  0.4831050000000 1.0
C      1  0.4819330000000  0.4770420000000  0.5735600000000 1.0
C      1  0.4819170000000  0.4477740000000  0.4433440000000 1.0
C      1  0.5014540000000  0.5659260000000  0.4633280000000 1.0
C      1  0.5014750000000  0.4987960000000  0.5754290000000 1.0
C      1  0.5014650000000  0.4352790000000  0.4612420000000 1.0
C      1  0.5490740000000  0.5145740000000  0.4650410000000 1.0
C      1  0.5490820000000  0.5229890000000  0.5300870000000 1.0
C      1  0.5490840000000  0.4624500000000  0.5048510000000 1.0
C      1  0.5203660000000  0.4461910000000  0.5401850000000 1.0
C      1  0.5203470000000  0.4921040000000  0.4333020000000 1.0
C      1  0.5203540000000  0.5617110000000  0.5265050000000 1.0
C      1  0.4894330000000  0.4237160000000  0.4857710000000 1.0
C      1  0.4894160000000  0.5504640000000  0.4410540000000 1.0
C      1  0.4894370000000  0.5258170000000  0.5731800000000 1.0
C      1  0.4996760000000  0.5178700000000  0.5366250000000 1.0
C      1  0.4996760000000  0.4593470000000  0.4971630000000 1.0
C      1  0.4996660000000  0.5227830000000  0.4662120000000 1.0
C      1  0.5273170000000  0.4617390000000  0.5611110000000 1.0
C      1  0.5272990000000  0.4662070000000  0.4363020000000 1.0
C      1  0.5272990000000  0.5720610000000  0.5025750000000 1.0
C      1  0.5709950000000  0.5452290000000  0.4928340000000 1.0
C      1  0.5710070000000  0.4835910000000  0.5427320000000 1.0
C      1  0.5709970000000  0.4711970000000  0.4644030000000 1.0
C      1  0.5246180000000  0.4541250000000  0.4614080000000 1.0
C      1  0.5246120000000  0.5563590000000  0.4795600000000 1.0
C      1  0.5246290000000  0.4895220000000  0.5590210000000 1.0
C      1  0.5225820000000  0.4618610000000  0.5167950000000 1.0
C      1  0.5225700000000  0.5045240000000  0.4585670000000 1.0
C      1  0.5225770000000  0.5336200000000  0.5246280000000 1.0
C      1  0.4480950000000  0.5167250000000  0.4510270000000 1.0
C      1  0.4481060000000  0.5340490000000  0.5389860000000 1.0
C      1  0.4481090000000  0.4492120000000  0.5100090000000 1.0
C      1  0.4744720000000  0.4722410000000  0.5432350000000 1.0
C      1  0.4744590000000  0.4764370000000  0.4543500000000 1.0
C      1  0.4744590000000  0.5513160000000  0.5024260000000 1.0
C      1  0.4784110000000  0.4806230000000  0.4861380000000 1.0
C      1  0.4784080000000  0.5216930000000  0.4901560000000 1.0
C      1  0.4784150000000  0.4976790000000  0.5237150000000 1.0
END
