TITL C-9261-551-183 -2.29577193096358e-06 125000 -361.208009469274 0 0 60 (C1) n - 1
REM
REM in /home/bkarasulu/CARBON/AIRSS/Generating-Clusters/EDIP-Nigel-Params/Higher-Symm/Box-15A/Only-C60/SD-CG/HFTN-CG
REM
REM
REM
REM
REM
REM ./C.cell (414f73aa93bd7a1190c7fd0f31ff2f98)
REM
REM compiler GCC version 9.2.1 20190827 (Red Hat 9.2.1-1)
REM options -cpp -mtune=generic -march=x86-64 -g -O0 -fpre-include=/usr/include/finclude/math-vector-fortran.h
REM seed 1279837781 653117652 -1604884293 1482229297 828614476 913425062 946059381 584600046 -1446342142 1723226771 -874731945 2021137954 1441122104 114587193 -682253100 -715645929 1246882391 875022911 -1878131429 709880570 348380147 -1320651104 -1073374925 1469891825 384967020 -1875084270 -703024842 -1149208120 162463514 -1055170239 1000471239 -309502910 2063127806
REM
CELL 1.54180   50.00000   50.00000   50.00000   90.00000   90.00000   90.00000
LATT -1
SFAC C  
C      1  0.5326480000000  0.4961180000000  0.5386890000000 1.0
C      1  0.5329540000000  0.5342120000000  0.4817830000000 1.0
C      1  0.5326420000000  0.4662780000000  0.4740090000000 1.0
C      1  0.4605170000000  0.5471360000000  0.4943450000000 1.0
C      1  0.4644320000000  0.4632040000000  0.4562760000000 1.0
C      1  0.4553010000000  0.4829190000000  0.5536290000000 1.0
C      1  0.5000870000000  0.4813310000000  0.4367770000000 1.0
C      1  0.4998160000000  0.4580820000000  0.5486500000000 1.0
C      1  0.5040060000000  0.5618630000000  0.5129070000000 1.0
C      1  0.5596280000000  0.4663650000000  0.5131920000000 1.0
C      1  0.5612830000000  0.5296610000000  0.5207520000000 1.0
C      1  0.5616660000000  0.5025770000000  0.4606920000000 1.0
C      1  0.4451970000000  0.5300530000000  0.5126810000000 1.0
C      1  0.4432460000000  0.4833470000000  0.4487390000000 1.0
C      1  0.4393230000000  0.4713630000000  0.5305940000000 1.0
C      1  0.5601670000000  0.4872580000000  0.5334090000000 1.0
C      1  0.5607750000000  0.5343010000000  0.4916470000000 1.0
C      1  0.5609390000000  0.4744670000000  0.4696600000000 1.0
C      1  0.4841740000000  0.4358660000000  0.5374520000000 1.0
C      1  0.4933040000000  0.5655240000000  0.5399790000000 1.0
C      1  0.4843530000000  0.5021970000000  0.4266560000000 1.0
C      1  0.4943620000000  0.4901290000000  0.4835840000000 1.0
C      1  0.4903000000000  0.5014660000000  0.5262210000000 1.0
C      1  0.4896910000000  0.5150710000000  0.4994380000000 1.0
C      1  0.5789380000000  0.5194170000000  0.4755580000000 1.0
C      1  0.5779200000000  0.4683770000000  0.4917120000000 1.0
C      1  0.5784770000000  0.5087900000000  0.5293520000000 1.0
C      1  0.5292220000000  0.5261600000000  0.4339960000000 1.0
C      1  0.5292900000000  0.4314570000000  0.5092710000000 1.0
C      1  0.5278060000000  0.5411390000000  0.5537560000000 1.0
C      1  0.4846600000000  0.5536270000000  0.4532260000000 1.0
C      1  0.4933830000000  0.4406390000000  0.4855040000000 1.0
C      1  0.4838300000000  0.5158560000000  0.5744440000000 1.0
C      1  0.5097000000000  0.4291340000000  0.4657490000000 1.0
C      1  0.5088990000000  0.5094760000000  0.5847120000000 1.0
C      1  0.5105420000000  0.5635050000000  0.4569580000000 1.0
C      1  0.4599420000000  0.4397790000000  0.5230960000000 1.0
C      1  0.4679340000000  0.5558040000000  0.5460680000000 1.0
C      1  0.4568260000000  0.5055290000000  0.4307400000000 1.0
C      1  0.5223170000000  0.4162740000000  0.4871380000000 1.0
C      1  0.5158120000000  0.5356360000000  0.5780370000000 1.0
C      1  0.5162590000000  0.5504620000000  0.4328610000000 1.0
C      1  0.5142750000000  0.5339030000000  0.5055640000000 1.0
C      1  0.5148380000000  0.4881480000000  0.4627400000000 1.0
C      1  0.5108020000000  0.4784320000000  0.5281990000000 1.0
C      1  0.4712170000000  0.5337980000000  0.4704900000000 1.0
C      1  0.4767980000000  0.4650310000000  0.4832470000000 1.0
C      1  0.4707250000000  0.5081880000000  0.5485920000000 1.0
C      1  0.4320040000000  0.5018450000000  0.4734670000000 1.0
C      1  0.4192460000000  0.4893940000000  0.5199490000000 1.0
C      1  0.4350480000000  0.5045970000000  0.5025120000000 1.0
C      1  0.4843790000000  0.4579090000000  0.4369030000000 1.0
C      1  0.4745990000000  0.4635560000000  0.5631680000000 1.0
C      1  0.4768560000000  0.5684340000000  0.5046030000000 1.0
C      1  0.5315070000000  0.4600200000000  0.5050210000000 1.0
C      1  0.5330620000000  0.5253500000000  0.5303940000000 1.0
C      1  0.5336020000000  0.5133250000000  0.4592920000000 1.0
C      1  0.4568010000000  0.4625480000000  0.5057120000000 1.0
C      1  0.4539580000000  0.5320300000000  0.5405960000000 1.0
C      1  0.4477130000000  0.5216450000000  0.4556150000000 1.0
END
