TITL C-9256-7861-140 -5.60978431224187e-07 125000 -391.467711235593 0 0 60 (Ih) n - 1
REM
REM in /home/bkarasulu/CARBON/AIRSS/Generating-Clusters/EDIP-Nigel-Params/Higher-Symm/Box-15A/Only-C60/SD-CG/HFTN-CG
REM
REM
REM
REM
REM
REM ./C.cell (414f73aa93bd7a1190c7fd0f31ff2f98)
REM
REM compiler GCC version 9.2.1 20190827 (Red Hat 9.2.1-1)
REM options -cpp -mtune=generic -march=x86-64 -g -O0 -fpre-include=/usr/include/finclude/math-vector-fortran.h
REM seed 263640574 -1320148668 1081761773 1968198095 614755969 -163160612 -228628763 10755411 2136377509 458998164 84516210 403964318 769317108 1872916127 -1186365780 1026106853 -2116398979 -905020048 -1307748967 437406359 -1778279626 -2105261763 378881442 -69479337 -430495 -1987723167 253831862 -215982015 821047286 152983498 -1525300104 -2063250969 -709396397
REM
CELL 1.54180   50.00000   50.00000   50.00000   90.00000   90.00000   90.00000
LATT -1
SFAC C  
C      1  0.5297810000000  0.4369450000000  0.5241100000000 1.0
C      1  0.5240920000000  0.5297630000000  0.4369290000000 1.0
C      1  0.4369340000000  0.5240960000000  0.5297690000000 1.0
C      1  0.5297600000000  0.5630640000000  0.4758880000000 1.0
C      1  0.4702210000000  0.5630640000000  0.5240890000000 1.0
C      1  0.4702380000000  0.4369270000000  0.4759130000000 1.0
C      1  0.5241070000000  0.4702450000000  0.5630680000000 1.0
C      1  0.4759020000000  0.4702140000000  0.4369420000000 1.0
C      1  0.4758990000000  0.5297790000000  0.5630600000000 1.0
C      1  0.4369380000000  0.4758860000000  0.4702370000000 1.0
C      1  0.5630690000000  0.4759150000000  0.5297720000000 1.0
C      1  0.5630590000000  0.5241030000000  0.4702220000000 1.0
C      1  0.4702400000000  0.4369360000000  0.5241120000000 1.0
C      1  0.4758930000000  0.5297550000000  0.4369320000000 1.0
C      1  0.5630620000000  0.5241140000000  0.5297630000000 1.0
C      1  0.4702190000000  0.5630550000000  0.4758900000000 1.0
C      1  0.5297620000000  0.5630730000000  0.5240870000000 1.0
C      1  0.5297790000000  0.4369360000000  0.4759110000000 1.0
C      1  0.4759080000000  0.4702370000000  0.5630710000000 1.0
C      1  0.5241010000000  0.4702210000000  0.4369400000000 1.0
C      1  0.5240980000000  0.5297860000000  0.5630580000000 1.0
C      1  0.5630660000000  0.4759040000000  0.4702310000000 1.0
C      1  0.4369410000000  0.4758970000000  0.5297780000000 1.0
C      1  0.4369310000000  0.5240850000000  0.4702280000000 1.0
C      1  0.5149000000000  0.4461230000000  0.4518390000000 1.0
C      1  0.4518250000000  0.5148770000000  0.4461290000000 1.0
C      1  0.4461380000000  0.4518250000000  0.5149060000000 1.0
C      1  0.5148890000000  0.5538810000000  0.5481590000000 1.0
C      1  0.4850950000000  0.5538590000000  0.4518210000000 1.0
C      1  0.4851160000000  0.4461360000000  0.5481800000000 1.0
C      1  0.4518350000000  0.4851080000000  0.5538750000000 1.0
C      1  0.5481700000000  0.4851030000000  0.4461300000000 1.0
C      1  0.5481700000000  0.5149110000000  0.5538650000000 1.0
C      1  0.4461220000000  0.5481590000000  0.4850990000000 1.0
C      1  0.5538640000000  0.5481810000000  0.5148830000000 1.0
C      1  0.5538770000000  0.4518350000000  0.4851120000000 1.0
C      1  0.4851110000000  0.4461190000000  0.4518410000000 1.0
C      1  0.5481650000000  0.5148920000000  0.4461250000000 1.0
C      1  0.5538780000000  0.4518410000000  0.5149010000000 1.0
C      1  0.4851000000000  0.5538770000000  0.5481610000000 1.0
C      1  0.5148840000000  0.5538640000000  0.4518200000000 1.0
C      1  0.5149050000000  0.4461410000000  0.5481790000000 1.0
C      1  0.5481750000000  0.4851230000000  0.5538710000000 1.0
C      1  0.4518300000000  0.4850890000000  0.4461350000000 1.0
C      1  0.4518300000000  0.5148970000000  0.5538700000000 1.0
C      1  0.5538620000000  0.5481750000000  0.4850940000000 1.0
C      1  0.4461230000000  0.5481650000000  0.5148880000000 1.0
C      1  0.4461360000000  0.4518190000000  0.4851170000000 1.0
C      1  0.5722690000000  0.5000080000000  0.4851200000000 1.0
C      1  0.4851130000000  0.5722670000000  0.4999870000000 1.0
C      1  0.5000060000000  0.4851370000000  0.5722720000000 1.0
C      1  0.5722700000000  0.5000130000000  0.5148730000000 1.0
C      1  0.4277300000000  0.4999870000000  0.4851270000000 1.0
C      1  0.4277310000000  0.4999920000000  0.5148800000000 1.0
C      1  0.4851340000000  0.4277280000000  0.5000140000000 1.0
C      1  0.5148870000000  0.4277330000000  0.5000130000000 1.0
C      1  0.5148660000000  0.5722720000000  0.4999860000000 1.0
C      1  0.4999940000000  0.5148630000000  0.4277280000000 1.0
C      1  0.5000010000000  0.5148900000000  0.5722670000000 1.0
C      1  0.4999990000000  0.4851100000000  0.4277330000000 1.0
END
