TITL C-9265-7156-198 -4.9978863065718e-06 125000 -349.419372969285 0 0 60 (C1) n - 1
REM
REM in /home/bkarasulu/CARBON/AIRSS/Generating-Clusters/EDIP-Nigel-Params/Higher-Symm/Box-15A/Only-C60/SD-CG/HFTN-CG
REM
REM
REM
REM
REM
REM ./C.cell (414f73aa93bd7a1190c7fd0f31ff2f98)
REM
REM compiler GCC version 9.2.1 20190827 (Red Hat 9.2.1-1)
REM options -cpp -mtune=generic -march=x86-64 -g -O0 -fpre-include=/usr/include/finclude/math-vector-fortran.h
REM seed -1575913486 894381655 1050188588 -1889909349 -900572873 -679269283 1046401824 -1094320488 -1982168728 -1456486817 -1108514185 1260427948 1046454596 410377842 424378603 1229294464 -1537485052 -1167267064 -1046878132 998151223 824136773 -792697270 -89034339 1949704277 -169484826 1849954453 1541647191 567400819 169310346 708620953 -566534498 1868167796 -220332442
REM
CELL 1.54180   50.00000   50.00000   50.00000   90.00000   90.00000   90.00000
LATT -1
SFAC C  
C      1  0.5771990000000  0.4352710000000  0.4934670000000 1.0
C      1  0.4873610000000  0.4362330000000  0.5293230000000 1.0
C      1  0.4401120000000  0.4408070000000  0.4524940000000 1.0
C      1  0.4331000000000  0.5188980000000  0.4767940000000 1.0
C      1  0.5554110000000  0.5054720000000  0.4580560000000 1.0
C      1  0.5118720000000  0.5133020000000  0.5704840000000 1.0
C      1  0.4808870000000  0.5661200000000  0.5305940000000 1.0
C      1  0.4930960000000  0.5616110000000  0.4759040000000 1.0
C      1  0.5305090000000  0.5622640000000  0.5002390000000 1.0
C      1  0.4652130000000  0.5554090000000  0.4797380000000 1.0
C      1  0.5439670000000  0.5475130000000  0.4796450000000 1.0
C      1  0.4992380000000  0.5551520000000  0.5497350000000 1.0
C      1  0.5533490000000  0.4396780000000  0.5046770000000 1.0
C      1  0.4613130000000  0.4295090000000  0.5234500000000 1.0
C      1  0.4621230000000  0.4441260000000  0.4671400000000 1.0
C      1  0.4894720000000  0.4706390000000  0.5804280000000 1.0
C      1  0.4212650000000  0.4904850000000  0.4366780000000 1.0
C      1  0.5970210000000  0.4816270000000  0.4723100000000 1.0
C      1  0.5517260000000  0.5096580000000  0.5216430000000 1.0
C      1  0.4507740000000  0.5045850000000  0.5378010000000 1.0
C      1  0.4903660000000  0.5050170000000  0.4510850000000 1.0
C      1  0.5519460000000  0.4908730000000  0.4362570000000 1.0
C      1  0.5339860000000  0.5017450000000  0.5795200000000 1.0
C      1  0.4110150000000  0.5117350000000  0.4895470000000 1.0
C      1  0.4405850000000  0.5038550000000  0.4532540000000 1.0
C      1  0.5723710000000  0.4950410000000  0.4793430000000 1.0
C      1  0.4883330000000  0.4965930000000  0.5687970000000 1.0
C      1  0.5326030000000  0.5217190000000  0.4682890000000 1.0
C      1  0.5135580000000  0.5293660000000  0.5453870000000 1.0
C      1  0.4561230000000  0.5299220000000  0.4927660000000 1.0
C      1  0.4670760000000  0.4831540000000  0.4962470000000 1.0
C      1  0.5204840000000  0.4735590000000  0.4880770000000 1.0
C      1  0.5118620000000  0.4816950000000  0.5251250000000 1.0
C      1  0.5993980000000  0.4445500000000  0.4802300000000 1.0
C      1  0.4957890000000  0.4610210000000  0.5429510000000 1.0
C      1  0.4206190000000  0.4523120000000  0.4370470000000 1.0
C      1  0.5111220000000  0.5253190000000  0.4480700000000 1.0
C      1  0.5423710000000  0.5326620000000  0.5371790000000 1.0
C      1  0.4485700000000  0.5302990000000  0.5221260000000 1.0
C      1  0.5148760000000  0.5042220000000  0.4878770000000 1.0
C      1  0.4996330000000  0.5108300000000  0.5228170000000 1.0
C      1  0.4800470000000  0.5094590000000  0.4935940000000 1.0
C      1  0.4532020000000  0.4536330000000  0.5341580000000 1.0
C      1  0.4786720000000  0.4638390000000  0.4775770000000 1.0
C      1  0.5465320000000  0.4665150000000  0.5015140000000 1.0
C      1  0.4030880000000  0.4717960000000  0.4461660000000 1.0
C      1  0.5980020000000  0.4588220000000  0.4564550000000 1.0
C      1  0.5078750000000  0.4537760000000  0.5687860000000 1.0
C      1  0.4672980000000  0.5406220000000  0.5639670000000 1.0
C      1  0.4670770000000  0.5444340000000  0.4448070000000 1.0
C      1  0.5693230000000  0.5422980000000  0.4941910000000 1.0
C      1  0.5422230000000  0.4823320000000  0.5258520000000 1.0
C      1  0.4600570000000  0.4795280000000  0.5241890000000 1.0
C      1  0.4956800000000  0.4774660000000  0.4584280000000 1.0
C      1  0.4962740000000  0.5512950000000  0.4490560000000 1.0
C      1  0.5484530000000  0.5569560000000  0.5221380000000 1.0
C      1  0.4570120000000  0.5528030000000  0.5391340000000 1.0
C      1  0.4631380000000  0.5113960000000  0.5641130000000 1.0
C      1  0.4647790000000  0.5150240000000  0.4407830000000 1.0
C      1  0.5735700000000  0.5141610000000  0.5024990000000 1.0
END
