TITL C-9269-7444-161 -5.68372511448046e-07 125000 -358.026956127438 0 0 60 (C1) n - 1
REM
REM in /home/bkarasulu/CARBON/AIRSS/Generating-Clusters/EDIP-Nigel-Params/Higher-Symm/Box-15A/Only-C60/SD-CG/HFTN-CG
REM
REM
REM
REM
REM
REM ./C.cell (414f73aa93bd7a1190c7fd0f31ff2f98)
REM
REM compiler GCC version 9.2.1 20190827 (Red Hat 9.2.1-1)
REM options -cpp -mtune=generic -march=x86-64 -g -O0 -fpre-include=/usr/include/finclude/math-vector-fortran.h
REM seed -793519990 -1084127355 -98990827 1342810186 1019103994 1513044369 1637058051 -1886841762 2081738611 -1891745408 -1328854669 -553742543 -1293836353 142303639 981010409 1330154095 1661680622 -284050953 882924239 2053367025 -553996832 263410132 356809152 710276539 1441436220 37076975 1014693354 -1967720570 1922115530 -1046234072 281953554 1201649387 -1336958518
REM
CELL 1.54180   50.00000   50.00000   50.00000   90.00000   90.00000   90.00000
LATT -1
SFAC C  
C      1  0.4672260000000  0.5550270000000  0.5444570000000 1.0
C      1  0.5169470000000  0.4752790000000  0.4929320000000 1.0
C      1  0.5219220000000  0.4692260000000  0.4458560000000 1.0
C      1  0.4662970000000  0.5677490000000  0.4864500000000 1.0
C      1  0.5539320000000  0.5216870000000  0.4753690000000 1.0
C      1  0.5048080000000  0.4836950000000  0.4677340000000 1.0
C      1  0.5236850000000  0.4625030000000  0.5403680000000 1.0
C      1  0.4781170000000  0.5354520000000  0.5613530000000 1.0
C      1  0.5226880000000  0.4329170000000  0.4830730000000 1.0
C      1  0.5530980000000  0.4643310000000  0.5377430000000 1.0
C      1  0.5072170000000  0.4384610000000  0.5328630000000 1.0
C      1  0.5490500000000  0.5121530000000  0.5023880000000 1.0
C      1  0.4878820000000  0.4756470000000  0.5726920000000 1.0
C      1  0.5089050000000  0.5592840000000  0.4626140000000 1.0
C      1  0.4390150000000  0.5226520000000  0.5128640000000 1.0
C      1  0.5137970000000  0.4799570000000  0.5623480000000 1.0
C      1  0.5008190000000  0.4314380000000  0.5043680000000 1.0
C      1  0.5437650000000  0.4627710000000  0.4865240000000 1.0
C      1  0.4702940000000  0.5318910000000  0.4531370000000 1.0
C      1  0.4819180000000  0.5221820000000  0.4887170000000 1.0
C      1  0.5714950000000  0.4955470000000  0.5128430000000 1.0
C      1  0.5160620000000  0.5670580000000  0.5386980000000 1.0
C      1  0.5645750000000  0.4663690000000  0.5090990000000 1.0
C      1  0.5448590000000  0.5204210000000  0.5481290000000 1.0
C      1  0.4533110000000  0.5493370000000  0.5181570000000 1.0
C      1  0.4325340000000  0.5168500000000  0.4864970000000 1.0
C      1  0.4547470000000  0.4597610000000  0.4993850000000 1.0
C      1  0.4808480000000  0.4426970000000  0.5424760000000 1.0
C      1  0.5155010000000  0.4956340000000  0.5122670000000 1.0
C      1  0.5148530000000  0.4393510000000  0.4546330000000 1.0
C      1  0.5407850000000  0.5213520000000  0.4388750000000 1.0
C      1  0.4526000000000  0.4719770000000  0.4737030000000 1.0
C      1  0.4880770000000  0.5045300000000  0.5134150000000 1.0
C      1  0.5504360000000  0.4742560000000  0.4573600000000 1.0
C      1  0.4724850000000  0.4684700000000  0.5504920000000 1.0
C      1  0.4932170000000  0.5007370000000  0.4200200000000 1.0
C      1  0.4287060000000  0.5032810000000  0.5320490000000 1.0
C      1  0.4295710000000  0.4775710000000  0.5432560000000 1.0
C      1  0.5039100000000  0.4750600000000  0.4209380000000 1.0
C      1  0.5646480000000  0.4952330000000  0.5427210000000 1.0
C      1  0.4883080000000  0.5725410000000  0.5381440000000 1.0
C      1  0.5049340000000  0.5297510000000  0.5683750000000 1.0
C      1  0.4706070000000  0.4883530000000  0.5296440000000 1.0
C      1  0.4373210000000  0.4949670000000  0.4718120000000 1.0
C      1  0.4330540000000  0.4674760000000  0.5174920000000 1.0
C      1  0.4727210000000  0.4375090000000  0.5007650000000 1.0
C      1  0.5060330000000  0.5132960000000  0.4726890000000 1.0
C      1  0.4781980000000  0.5592570000000  0.4610400000000 1.0
C      1  0.5245000000000  0.5535190000000  0.5148090000000 1.0
C      1  0.4856120000000  0.4411090000000  0.4489890000000 1.0
C      1  0.4830940000000  0.4547930000000  0.4229710000000 1.0
C      1  0.5452990000000  0.5343840000000  0.5209350000000 1.0
C      1  0.5242770000000  0.5508990000000  0.5615680000000 1.0
C      1  0.4910690000000  0.5253760000000  0.4327300000000 1.0
C      1  0.4823850000000  0.5499550000000  0.5033760000000 1.0
C      1  0.5188680000000  0.5641620000000  0.4891220000000 1.0
C      1  0.4772960000000  0.4708320000000  0.4575450000000 1.0
C      1  0.5146860000000  0.5311070000000  0.4506180000000 1.0
C      1  0.5589960000000  0.5031750000000  0.4535990000000 1.0
C      1  0.5181400000000  0.5077460000000  0.5549110000000 1.0
END
