TITL C-9269-7444-32 -4.46036832697431e-07 125000 -367.309691987133 0 0 60 (D2d) n - 1
REM
REM in /home/bkarasulu/CARBON/AIRSS/Generating-Clusters/EDIP-Nigel-Params/Higher-Symm/Box-15A/Only-C60/SD-CG/HFTN-CG
REM
REM
REM
REM
REM
REM ./C.cell (414f73aa93bd7a1190c7fd0f31ff2f98)
REM
REM compiler GCC version 9.2.1 20190827 (Red Hat 9.2.1-1)
REM options -cpp -mtune=generic -march=x86-64 -g -O0 -fpre-include=/usr/include/finclude/math-vector-fortran.h
REM seed 210604967 -512619477 -742853524 1618985827 -1308927796 955286071 -1314341325 1672006242 -1372745742 -1140518815 476204573 385313929 1640777196 2127136250 943361282 -182861984 -338244741 -1660773299 1380906115 -2144408427 -613331168 -442548202 -1699710735 1611229394 -1026777448 177017674 -1595375969 -1558591264 240797852 -1317468994 498452433 -911376005 228020402
REM
CELL 1.54180   50.00000   50.00000   50.00000   90.00000   90.00000   90.00000
LATT -1
SFAC C  
C      1  0.5240270000000  0.4357380000000  0.4861080000000 1.0
C      1  0.5244800000000  0.5638930000000  0.5147750000000 1.0
C      1  0.4764560000000  0.5647290000000  0.4875210000000 1.0
C      1  0.4750370000000  0.4356400000000  0.5115970000000 1.0
C      1  0.5253360000000  0.4877670000000  0.4359040000000 1.0
C      1  0.5231710000000  0.5118640000000  0.5649790000000 1.0
C      1  0.4744720000000  0.4858580000000  0.5636260000000 1.0
C      1  0.4770210000000  0.5145110000000  0.4354920000000 1.0
C      1  0.4986820000000  0.5284510000000  0.4514050000000 1.0
C      1  0.4964830000000  0.4715860000000  0.5485070000000 1.0
C      1  0.5031160000000  0.4732870000000  0.4505090000000 1.0
C      1  0.5017190000000  0.5266770000000  0.5495790000000 1.0
C      1  0.4967200000000  0.4504800000000  0.5266410000000 1.0
C      1  0.4984440000000  0.5495570000000  0.4732710000000 1.0
C      1  0.5025660000000  0.4514200000000  0.4716090000000 1.0
C      1  0.5022690000000  0.5485430000000  0.5284790000000 1.0
C      1  0.5511700000000  0.4761660000000  0.4405480000000 1.0
C      1  0.5493300000000  0.5230710000000  0.5612810000000 1.0
C      1  0.4510270000000  0.5259570000000  0.4395940000000 1.0
C      1  0.4484730000000  0.4748060000000  0.5585770000000 1.0
C      1  0.5502640000000  0.4401150000000  0.4753340000000 1.0
C      1  0.5502370000000  0.5591210000000  0.5264950000000 1.0
C      1  0.4488640000000  0.4400100000000  0.5225270000000 1.0
C      1  0.4506350000000  0.5607530000000  0.4756450000000 1.0
C      1  0.4592150000000  0.5666680000000  0.5406880000000 1.0
C      1  0.4597140000000  0.4339480000000  0.4578370000000 1.0
C      1  0.5393100000000  0.4319070000000  0.5397690000000 1.0
C      1  0.5417610000000  0.5674770000000  0.4617060000000 1.0
C      1  0.4585280000000  0.5393540000000  0.5670440000000 1.0
C      1  0.4604010000000  0.4612620000000  0.4314810000000 1.0
C      1  0.5420580000000  0.5411140000000  0.4343920000000 1.0
C      1  0.5390140000000  0.4582700000000  0.5670830000000 1.0
C      1  0.5397850000000  0.4694900000000  0.5102520000000 1.0
C      1  0.5405900000000  0.5298990000000  0.4912110000000 1.0
C      1  0.4598470000000  0.5301530000000  0.5098610000000 1.0
C      1  0.4597780000000  0.4704570000000  0.4886760000000 1.0
C      1  0.5408110000000  0.5102840000000  0.4708890000000 1.0
C      1  0.5395640000000  0.4891050000000  0.5305740000000 1.0
C      1  0.4593350000000  0.5098320000000  0.5294700000000 1.0
C      1  0.4602900000000  0.4907790000000  0.4690670000000 1.0
C      1  0.4441200000000  0.5147170000000  0.4649380000000 1.0
C      1  0.4426640000000  0.4861430000000  0.5330020000000 1.0
C      1  0.5571370000000  0.4864970000000  0.4665100000000 1.0
C      1  0.5560790000000  0.5126420000000  0.5355500000000 1.0
C      1  0.4428920000000  0.4659070000000  0.5120360000000 1.0
C      1  0.4438920000000  0.5349540000000  0.4859040000000 1.0
C      1  0.5566090000000  0.4655310000000  0.4867400000000 1.0
C      1  0.5566060000000  0.5336080000000  0.5153200000000 1.0
C      1  0.5241660000000  0.4817410000000  0.5549970000000 1.0
C      1  0.5264250000000  0.5178750000000  0.4459240000000 1.0
C      1  0.4738230000000  0.5163160000000  0.5546860000000 1.0
C      1  0.4755850000000  0.4840680000000  0.4443930000000 1.0
C      1  0.5260080000000  0.5549600000000  0.4843460000000 1.0
C      1  0.5245830000000  0.4446560000000  0.5165750000000 1.0
C      1  0.4747900000000  0.5547390000000  0.5176120000000 1.0
C      1  0.4746180000000  0.4456460000000  0.4814680000000 1.0
C      1  0.4387380000000  0.5543410000000  0.5547190000000 1.0
C      1  0.5592510000000  0.4437160000000  0.5549690000000 1.0
C      1  0.5620600000000  0.5553620000000  0.4472390000000 1.0
C      1  0.4399510000000  0.4465810000000  0.4430740000000 1.0
END
