TITL C-9261-551-243 -4.18194082159208e-05 125000 -356.429063652636 0 0 60 (C1) n - 1
REM
REM in /home/bkarasulu/CARBON/AIRSS/Generating-Clusters/EDIP-Nigel-Params/Higher-Symm/Box-15A/Only-C60/SD-CG/HFTN-CG
REM
REM
REM
REM
REM
REM ./C.cell (414f73aa93bd7a1190c7fd0f31ff2f98)
REM
REM compiler GCC version 9.2.1 20190827 (Red Hat 9.2.1-1)
REM options -cpp -mtune=generic -march=x86-64 -g -O0 -fpre-include=/usr/include/finclude/math-vector-fortran.h
REM seed -1109106576 -1574867995 1979393922 -490163604 1653299985 -863784179 -1479235331 -1398218061 1366516701 -1565374330 -188758383 -482227854 771722240 -176879442 -1295682881 151666387 1054942369 1176645106 661053420 1592714057 -1504561190 351836947 1862276460 -1694692063 -289673627 975952136 -1572613887 2114914912 -934579563 1818205233 -356979357 1994339674 -642601858
REM
CELL 1.54180   50.00000   50.00000   50.00000   90.00000   90.00000   90.00000
LATT -1
SFAC C  
C      1  0.5344590000000  0.5379620000000  0.4275730000000 1.0
C      1  0.4665300000000  0.5392110000000  0.4288800000000 1.0
C      1  0.5296650000000  0.5110090000000  0.4277470000000 1.0
C      1  0.4715110000000  0.5122850000000  0.4284260000000 1.0
C      1  0.4259470000000  0.5236430000000  0.5047590000000 1.0
C      1  0.5746660000000  0.5232480000000  0.5055850000000 1.0
C      1  0.5364550000000  0.5682000000000  0.5692510000000 1.0
C      1  0.4623380000000  0.5675010000000  0.5694580000000 1.0
C      1  0.5663250000000  0.4975980000000  0.4995750000000 1.0
C      1  0.4347030000000  0.4979220000000  0.4996810000000 1.0
C      1  0.4287270000000  0.5429140000000  0.5239510000000 1.0
C      1  0.5712940000000  0.5428710000000  0.5242740000000 1.0
C      1  0.4389030000000  0.5618590000000  0.5566490000000 1.0
C      1  0.5596590000000  0.5628800000000  0.5559640000000 1.0
C      1  0.5140420000000  0.5026100000000  0.5744540000000 1.0
C      1  0.4853880000000  0.5035620000000  0.5750780000000 1.0
C      1  0.4831760000000  0.4606050000000  0.4815240000000 1.0
C      1  0.5172020000000  0.4608560000000  0.4815300000000 1.0
C      1  0.5149260000000  0.4340080000000  0.5250540000000 1.0
C      1  0.4866460000000  0.4360850000000  0.5263560000000 1.0
C      1  0.5309250000000  0.4541500000000  0.4548460000000 1.0
C      1  0.4692710000000  0.4529830000000  0.4549420000000 1.0
C      1  0.4465160000000  0.4549880000000  0.5142280000000 1.0
C      1  0.5548090000000  0.4538080000000  0.5127950000000 1.0
C      1  0.5314640000000  0.5233210000000  0.5488580000000 1.0
C      1  0.4685510000000  0.5242570000000  0.5491720000000 1.0
C      1  0.4838650000000  0.4568470000000  0.5580350000000 1.0
C      1  0.5124350000000  0.4563360000000  0.5556380000000 1.0
C      1  0.5500230000000  0.4897950000000  0.5453760000000 1.0
C      1  0.4482190000000  0.4915580000000  0.5463960000000 1.0
C      1  0.5132020000000  0.5548420000000  0.5708040000000 1.0
C      1  0.4862290000000  0.5554610000000  0.5718450000000 1.0
C      1  0.5610880000000  0.4794390000000  0.5210100000000 1.0
C      1  0.4386430000000  0.4803510000000  0.5218040000000 1.0
C      1  0.5148260000000  0.5083270000000  0.4981140000000 1.0
C      1  0.4850810000000  0.5080250000000  0.4979400000000 1.0
C      1  0.4720580000000  0.4904050000000  0.4773010000000 1.0
C      1  0.5286060000000  0.4909600000000  0.4779330000000 1.0
C      1  0.4457200000000  0.5061410000000  0.4214560000000 1.0
C      1  0.5553380000000  0.5045990000000  0.4206830000000 1.0
C      1  0.5269160000000  0.4810160000000  0.5600280000000 1.0
C      1  0.4705520000000  0.4822200000000  0.5620550000000 1.0
C      1  0.5631940000000  0.4786010000000  0.4259540000000 1.0
C      1  0.4381980000000  0.4800990000000  0.4273520000000 1.0
C      1  0.4854140000000  0.4664910000000  0.4341110000000 1.0
C      1  0.5135760000000  0.4592140000000  0.4324730000000 1.0
C      1  0.5667960000000  0.4873210000000  0.4729010000000 1.0
C      1  0.4337890000000  0.4865490000000  0.4735460000000 1.0
C      1  0.4401790000000  0.5352220000000  0.5483590000000 1.0
C      1  0.5591290000000  0.5360670000000  0.5484930000000 1.0
C      1  0.5301530000000  0.4453420000000  0.5039060000000 1.0
C      1  0.4708570000000  0.4460970000000  0.5049170000000 1.0
C      1  0.4873700000000  0.5566890000000  0.4271560000000 1.0
C      1  0.5140480000000  0.5559510000000  0.4264780000000 1.0
C      1  0.5161670000000  0.4943990000000  0.4484230000000 1.0
C      1  0.4850230000000  0.4940940000000  0.4477400000000 1.0
C      1  0.5155240000000  0.5271810000000  0.5233130000000 1.0
C      1  0.4840840000000  0.5271150000000  0.5233630000000 1.0
C      1  0.4423520000000  0.4677830000000  0.4525870000000 1.0
C      1  0.5572480000000  0.4691230000000  0.4519000000000 1.0
END
