TITL C-9256-7861-169 -5.96240088373799e-07 125000 -368.657357244893 0 0 60 (C2) n - 1
REM
REM in /home/bkarasulu/CARBON/AIRSS/Generating-Clusters/EDIP-Nigel-Params/Higher-Symm/Box-15A/Only-C60/SD-CG/HFTN-CG
REM
REM
REM
REM
REM
REM ./C.cell (414f73aa93bd7a1190c7fd0f31ff2f98)
REM
REM compiler GCC version 9.2.1 20190827 (Red Hat 9.2.1-1)
REM options -cpp -mtune=generic -march=x86-64 -g -O0 -fpre-include=/usr/include/finclude/math-vector-fortran.h
REM seed 491422666 -438162302 294408576 -437478841 -159804185 -1504314945 1989214693 1306257221 514392645 -400548060 -1064313079 517465654 -101518392 322338884 1336146872 712486514 -467315921 -795803539 -605901381 738694343 -1268346808 1172902447 -1684116637 -1204380818 1560776515 88107667 -1506294755 1960035598 -11510212 600343697 -1782106674 -1953061617 -402309218
REM
CELL 1.54180   50.00000   50.00000   50.00000   90.00000   90.00000   90.00000
LATT -1
SFAC C  
C      1  0.4611640000000  0.5551140000000  0.5309880000000 1.0
C      1  0.4625330000000  0.5198870000000  0.5717180000000 1.0
C      1  0.4634550000000  0.4777400000000  0.5755560000000 1.0
C      1  0.4623100000000  0.4351280000000  0.5398850000000 1.0
C      1  0.4511620000000  0.4343560000000  0.4948170000000 1.0
C      1  0.4621830000000  0.4445430000000  0.4683700000000 1.0
C      1  0.4639190000000  0.4797840000000  0.4276660000000 1.0
C      1  0.4645280000000  0.5219380000000  0.4238410000000 1.0
C      1  0.4624040000000  0.5645350000000  0.4594850000000 1.0
C      1  0.4504960000000  0.5652040000000  0.5043590000000 1.0
C      1  0.5070850000000  0.5569110000000  0.4556350000000 1.0
C      1  0.4981490000000  0.5585730000000  0.4848380000000 1.0
C      1  0.5115730000000  0.5504830000000  0.5421280000000 1.0
C      1  0.5112310000000  0.5275320000000  0.5590970000000 1.0
C      1  0.5100560000000  0.4703730000000  0.5563550000000 1.0
C      1  0.5068500000000  0.4431510000000  0.5444820000000 1.0
C      1  0.4984200000000  0.4414120000000  0.5151330000000 1.0
C      1  0.5127280000000  0.4496260000000  0.4580760000000 1.0
C      1  0.5124650000000  0.4725740000000  0.4411010000000 1.0
C      1  0.5107330000000  0.5297200000000  0.4438190000000 1.0
C      1  0.4552510000000  0.5261240000000  0.5239460000000 1.0
C      1  0.4496490000000  0.5107140000000  0.5482340000000 1.0
C      1  0.4493860000000  0.4818320000000  0.5514370000000 1.0
C      1  0.4550310000000  0.4625800000000  0.5305010000000 1.0
C      1  0.4435630000000  0.4641810000000  0.5032510000000 1.0
C      1  0.4558940000000  0.4734790000000  0.4753100000000 1.0
C      1  0.4505620000000  0.4888390000000  0.4509300000000 1.0
C      1  0.4500940000000  0.5177180000000  0.4477210000000 1.0
C      1  0.4552150000000  0.5370190000000  0.4687470000000 1.0
C      1  0.4433070000000  0.5353130000000  0.4958020000000 1.0
C      1  0.5727420000000  0.5412470000000  0.5021330000000 1.0
C      1  0.5564570000000  0.5401540000000  0.5246370000000 1.0
C      1  0.5588030000000  0.5190380000000  0.5438020000000 1.0
C      1  0.5579890000000  0.4806840000000  0.5395620000000 1.0
C      1  0.5628870000000  0.4564890000000  0.5250810000000 1.0
C      1  0.5731340000000  0.4594060000000  0.4990890000000 1.0
C      1  0.5572190000000  0.4603540000000  0.4763150000000 1.0
C      1  0.5596970000000  0.4814920000000  0.4571910000000 1.0
C      1  0.5584680000000  0.5198380000000  0.4614140000000 1.0
C      1  0.5629060000000  0.5440740000000  0.4759730000000 1.0
C      1  0.5239120000000  0.4349250000000  0.5038260000000 1.0
C      1  0.5307390000000  0.4503730000000  0.4801820000000 1.0
C      1  0.5375460000000  0.4877420000000  0.4390280000000 1.0
C      1  0.5368050000000  0.5167240000000  0.4424820000000 1.0
C      1  0.5411710000000  0.5627770000000  0.4740140000000 1.0
C      1  0.5233890000000  0.5652870000000  0.4965710000000 1.0
C      1  0.5299570000000  0.5498990000000  0.5203270000000 1.0
C      1  0.5364080000000  0.5125890000000  0.5615920000000 1.0
C      1  0.5359840000000  0.4836020000000  0.5581280000000 1.0
C      1  0.5412910000000  0.4375920000000  0.5266770000000 1.0
C      1  0.4729100000000  0.4253590000000  0.5137790000000 1.0
C      1  0.4883840000000  0.4372660000000  0.4624110000000 1.0
C      1  0.4907290000000  0.4759550000000  0.4239420000000 1.0
C      1  0.4918080000000  0.5239240000000  0.4241720000000 1.0
C      1  0.4839880000000  0.5682940000000  0.4411610000000 1.0
C      1  0.4724770000000  0.5743970000000  0.4857640000000 1.0
C      1  0.4871950000000  0.5626250000000  0.5373840000000 1.0
C      1  0.4892410000000  0.5239560000000  0.5758900000000 1.0
C      1  0.4907530000000  0.4759980000000  0.5756820000000 1.0
C      1  0.4836160000000  0.4315610000000  0.5585680000000 1.0
END
