TITL C-9263-351-280 -9.41046662281766e-08 125000 -360.550894837651 0 0 60 (C1) n - 1
REM
REM in /home/bkarasulu/CARBON/AIRSS/Generating-Clusters/EDIP-Nigel-Params/Higher-Symm/Box-15A/Only-C60/SD-CG/HFTN-CG
REM
REM
REM
REM
REM
REM ./C.cell (414f73aa93bd7a1190c7fd0f31ff2f98)
REM
REM compiler GCC version 9.2.1 20190827 (Red Hat 9.2.1-1)
REM options -cpp -mtune=generic -march=x86-64 -g -O0 -fpre-include=/usr/include/finclude/math-vector-fortran.h
REM seed 1271508209 -652208427 -2141093204 1570199478 2051909968 -1677068877 -1320215842 -1669650002 539345560 509840177 581533286 1121952284 1930526116 1523665586 980980663 504286651 833297711 626425895 -359637404 1794698270 1233771331 1977688134 -490271389 -81853882 -1608230041 -568239746 1954221467 1668490863 1322094318 -486938869 1171847851 -351696716 -107920351
REM
CELL 1.54180   50.00000   50.00000   50.00000   90.00000   90.00000   90.00000
LATT -1
SFAC C  
C      1  0.5423010000000  0.5142580000000  0.5396580000000 1.0
C      1  0.5003230000000  0.5451130000000  0.5400640000000 1.0
C      1  0.4575790000000  0.5141850000000  0.5397370000000 1.0
C      1  0.4742630000000  0.4643710000000  0.5400180000000 1.0
C      1  0.5262990000000  0.4647370000000  0.5397460000000 1.0
C      1  0.5253070000000  0.4704270000000  0.4911960000000 1.0
C      1  0.5362770000000  0.5155020000000  0.4911570000000 1.0
C      1  0.4966400000000  0.5413680000000  0.4907110000000 1.0
C      1  0.4613310000000  0.5097450000000  0.4917490000000 1.0
C      1  0.4794420000000  0.4668580000000  0.4915900000000 1.0
C      1  0.5104910000000  0.4331550000000  0.4646560000000 1.0
C      1  0.5672650000000  0.4890400000000  0.4645660000000 1.0
C      1  0.5326920000000  0.5608030000000  0.4658370000000 1.0
C      1  0.4472570000000  0.5454120000000  0.4626780000000 1.0
C      1  0.4394950000000  0.4686270000000  0.4649590000000 1.0
C      1  0.5130600000000  0.4775600000000  0.4645940000000 1.0
C      1  0.5261630000000  0.5059960000000  0.4645340000000 1.0
C      1  0.5033110000000  0.5274980000000  0.4637950000000 1.0
C      1  0.4756570000000  0.5113350000000  0.4654090000000 1.0
C      1  0.4821890000000  0.4809720000000  0.4650780000000 1.0
C      1  0.4290950000000  0.5396060000000  0.4863970000000 1.0
C      1  0.4396270000000  0.4478680000000  0.4873130000000 1.0
C      1  0.5301140000000  0.4265500000000  0.4870050000000 1.0
C      1  0.5793780000000  0.5053050000000  0.4871600000000 1.0
C      1  0.5216670000000  0.5774290000000  0.4891400000000 1.0
C      1  0.5191830000000  0.4545390000000  0.4476290000000 1.0
C      1  0.5499920000000  0.5044420000000  0.4476510000000 1.0
C      1  0.5129890000000  0.5501350000000  0.4481570000000 1.0
C      1  0.4561560000000  0.5232320000000  0.4473150000000 1.0
C      1  0.4625880000000  0.4675990000000  0.4479640000000 1.0
C      1  0.5200310000000  0.4377010000000  0.5354670000000 1.0
C      1  0.5657040000000  0.4993100000000  0.5354160000000 1.0
C      1  0.5225440000000  0.5618000000000  0.5362910000000 1.0
C      1  0.4465140000000  0.5395320000000  0.5347840000000 1.0
C      1  0.4466950000000  0.4613770000000  0.5358950000000 1.0
C      1  0.5250580000000  0.5084150000000  0.5637880000000 1.0
C      1  0.5002460000000  0.5266150000000  0.5637760000000 1.0
C      1  0.4751000000000  0.5088730000000  0.5637810000000 1.0
C      1  0.4845280000000  0.4794470000000  0.5639980000000 1.0
C      1  0.5153750000000  0.4792160000000  0.5639090000000 1.0
C      1  0.5483830000000  0.5422180000000  0.4891410000000 1.0
C      1  0.4692330000000  0.5583250000000  0.4875810000000 1.0
C      1  0.4370870000000  0.4921130000000  0.4892090000000 1.0
C      1  0.4873590000000  0.4381210000000  0.4888550000000 1.0
C      1  0.5549490000000  0.4683860000000  0.4885780000000 1.0
C      1  0.5114940000000  0.4261180000000  0.5112890000000 1.0
C      1  0.5738700000000  0.4874610000000  0.5112570000000 1.0
C      1  0.5371100000000  0.5657310000000  0.5126220000000 1.0
C      1  0.4452960000000  0.5524640000000  0.5096250000000 1.0
C      1  0.4333470000000  0.4656650000000  0.5115040000000 1.0
C      1  0.5157540000000  0.4808830000000  0.5169670000000 1.0
C      1  0.5235830000000  0.5096400000000  0.5168260000000 1.0
C      1  0.4987450000000  0.5263670000000  0.5169330000000 1.0
C      1  0.4756090000000  0.5074290000000  0.5171350000000 1.0
C      1  0.4861100000000  0.4794870000000  0.5172110000000 1.0
C      1  0.5563890000000  0.4392910000000  0.4868630000000 1.0
C      1  0.5762430000000  0.5342480000000  0.4871030000000 1.0
C      1  0.4919570000000  0.5797170000000  0.4917490000000 1.0
C      1  0.4172330000000  0.5131250000000  0.4878290000000 1.0
C      1  0.4603240000000  0.4272570000000  0.4871550000000 1.0
END
