TITL C-9256-7861-123 -1.5083573218899e-06 125000 -366.45552143137 0 0 60 (C4) n - 1
REM
REM in /home/bkarasulu/CARBON/AIRSS/Generating-Clusters/EDIP-Nigel-Params/Higher-Symm/Box-15A/Only-C60/SD-CG/HFTN-CG
REM
REM
REM
REM
REM
REM ./C.cell (414f73aa93bd7a1190c7fd0f31ff2f98)
REM
REM compiler GCC version 9.2.1 20190827 (Red Hat 9.2.1-1)
REM options -cpp -mtune=generic -march=x86-64 -g -O0 -fpre-include=/usr/include/finclude/math-vector-fortran.h
REM seed -1550767176 211859474 -1118972231 -1939792232 -458431668 -256843277 186142874 1482720764 -508783557 1693571091 2857115 1117357149 271982455 2008104051 2014937320 880700789 633450860 -1031355693 1170184548 -1089839879 1517746077 43053349 -689233406 1707100616 1593942191 -153651272 -1307701472 243565826 -2062717117 1187293054 1450807044 -631860625 -15610131
REM
CELL 1.54180   50.00000   50.00000   50.00000   90.00000   90.00000   90.00000
LATT -1
SFAC C  
C      1  0.5162330000000  0.4851910000000  0.5418550000000 1.0
C      1  0.5148100000000  0.5162330000000  0.5418540000000 1.0
C      1  0.4837680000000  0.5148100000000  0.5418550000000 1.0
C      1  0.4851910000000  0.4837680000000  0.5418550000000 1.0
C      1  0.4833990000000  0.4855920000000  0.4617410000000 1.0
C      1  0.4855920000000  0.5166000000000  0.4617410000000 1.0
C      1  0.5166000000000  0.5144070000000  0.4617410000000 1.0
C      1  0.5144070000000  0.4833990000000  0.4617410000000 1.0
C      1  0.4708210000000  0.4585480000000  0.5468120000000 1.0
C      1  0.5414530000000  0.4708210000000  0.5468110000000 1.0
C      1  0.5291810000000  0.5414530000000  0.5468100000000 1.0
C      1  0.4585480000000  0.5291800000000  0.5468110000000 1.0
C      1  0.5289020000000  0.4586700000000  0.4548850000000 1.0
C      1  0.4586700000000  0.4710970000000  0.4548860000000 1.0
C      1  0.4710970000000  0.5413290000000  0.4548850000000 1.0
C      1  0.5413290000000  0.5289020000000  0.4548840000000 1.0
C      1  0.5650100000000  0.4863500000000  0.5366650000000 1.0
C      1  0.5136510000000  0.5650100000000  0.5366650000000 1.0
C      1  0.4349910000000  0.5136510000000  0.5366660000000 1.0
C      1  0.4863500000000  0.4349910000000  0.5366660000000 1.0
C      1  0.4344960000000  0.4861660000000  0.4640480000000 1.0
C      1  0.4861660000000  0.5655030000000  0.4640470000000 1.0
C      1  0.5655030000000  0.5138330000000  0.4640460000000 1.0
C      1  0.5138330000000  0.4344960000000  0.4640480000000 1.0
C      1  0.5672960000000  0.4871670000000  0.4554700000000 1.0
C      1  0.5128320000000  0.5672960000000  0.4554700000000 1.0
C      1  0.4327030000000  0.5128320000000  0.4554710000000 1.0
C      1  0.4871670000000  0.4327030000000  0.4554720000000 1.0
C      1  0.4326730000000  0.4871420000000  0.5454790000000 1.0
C      1  0.4871420000000  0.5673280000000  0.5454780000000 1.0
C      1  0.5673280000000  0.5128590000000  0.5454770000000 1.0
C      1  0.5128590000000  0.4326730000000  0.5454790000000 1.0
C      1  0.5410790000000  0.4400090000000  0.5068690000000 1.0
C      1  0.5599910000000  0.5410790000000  0.5068680000000 1.0
C      1  0.4589210000000  0.5599910000000  0.5068690000000 1.0
C      1  0.4400090000000  0.4589210000000  0.5068700000000 1.0
C      1  0.4593860000000  0.4399960000000  0.4940450000000 1.0
C      1  0.4399960000000  0.5406140000000  0.4940440000000 1.0
C      1  0.5406140000000  0.5600040000000  0.4940420000000 1.0
C      1  0.5600040000000  0.4593860000000  0.4940430000000 1.0
C      1  0.5380840000000  0.4424850000000  0.5370490000000 1.0
C      1  0.5575160000000  0.5380840000000  0.5370480000000 1.0
C      1  0.4619170000000  0.5575160000000  0.5370490000000 1.0
C      1  0.4424850000000  0.4619170000000  0.5370500000000 1.0
C      1  0.4619010000000  0.4424420000000  0.4639110000000 1.0
C      1  0.4424420000000  0.5380980000000  0.4639100000000 1.0
C      1  0.5380980000000  0.5575570000000  0.4639080000000 1.0
C      1  0.5575570000000  0.4619010000000  0.4639090000000 1.0
C      1  0.5587210000000  0.5144050000000  0.4929600000000 1.0
C      1  0.4855950000000  0.5587210000000  0.4929600000000 1.0
C      1  0.4412780000000  0.4855950000000  0.4929620000000 1.0
C      1  0.5144050000000  0.4412780000000  0.4929610000000 1.0
C      1  0.4435520000000  0.5139290000000  0.5079630000000 1.0
C      1  0.5139290000000  0.5564490000000  0.5079620000000 1.0
C      1  0.5564490000000  0.4860710000000  0.5079620000000 1.0
C      1  0.4860710000000  0.4435520000000  0.5079630000000 1.0
C      1  0.4995800000000  0.4761780000000  0.5017140000000 1.0
C      1  0.5238220000000  0.4995800000000  0.5017130000000 1.0
C      1  0.4761780000000  0.5004200000000  0.5017140000000 1.0
C      1  0.5004200000000  0.5238220000000  0.5017130000000 1.0
END
