TITL C-9263-351-118 0.00068682862637264 125000 -350.998564065765 0 0 60 (Ci) n - 1
REM
REM in /home/bkarasulu/CARBON/AIRSS/Generating-Clusters/EDIP-Nigel-Params/Higher-Symm/Box-15A/Only-C60/SD-CG/HFTN-CG
REM
REM
REM
REM
REM
REM ./C.cell (414f73aa93bd7a1190c7fd0f31ff2f98)
REM
REM compiler GCC version 9.2.1 20190827 (Red Hat 9.2.1-1)
REM options -cpp -mtune=generic -march=x86-64 -g -O0 -fpre-include=/usr/include/finclude/math-vector-fortran.h
REM seed 1762295986 -232987593 -1983319737 -1544519531 -1507564819 -1475258394 501150225 1654780920 -1364433791 -1381533264 2141310802 1720745138 428555381 65794680 1698911654 -1726295837 -237997110 543089818 166482051 -1205261995 1494634545 -1059124556 1404767562 -1649724491 -772498280 -1352863723 1372448846 -581307431 751234162 880252751 -1270498395 368465740 1012806912
REM
CELL 1.54180   50.00000   50.00000   50.00000   90.00000   90.00000   90.00000
LATT -1
SFAC C  
C      1  0.4685160000000  0.5709420000000  0.4901430000000 1.0
C      1  0.5314840000000  0.4290580000000  0.5098570000000 1.0
C      1  0.5257250000000  0.5589880000000  0.4314780000000 1.0
C      1  0.4742750000000  0.4410120000000  0.5685220000000 1.0
C      1  0.5477350000000  0.5311560000000  0.5422050000000 1.0
C      1  0.4522650000000  0.4688440000000  0.4577950000000 1.0
C      1  0.5160940000000  0.4335040000000  0.4281190000000 1.0
C      1  0.4839060000000  0.5664960000000  0.5718810000000 1.0
C      1  0.4923640000000  0.5742320000000  0.5052920000000 1.0
C      1  0.5076360000000  0.4257680000000  0.4947080000000 1.0
C      1  0.4278140000000  0.5115540000000  0.4700280000000 1.0
C      1  0.5721860000000  0.4884460000000  0.5299720000000 1.0
C      1  0.5653490000000  0.4740430000000  0.5530560000000 1.0
C      1  0.4346510000000  0.5259570000000  0.4469440000000 1.0
C      1  0.5365960000000  0.4495550000000  0.5294360000000 1.0
C      1  0.4634040000000  0.5504450000000  0.4705640000000 1.0
C      1  0.5406640000000  0.4316560000000  0.4140790000000 1.0
C      1  0.4593360000000  0.5683440000000  0.5859210000000 1.0
C      1  0.4727780000000  0.4885290000000  0.4532130000000 1.0
C      1  0.5272220000000  0.5114710000000  0.5467870000000 1.0
C      1  0.5390040000000  0.5408430000000  0.4151870000000 1.0
C      1  0.4609960000000  0.4591570000000  0.5848130000000 1.0
C      1  0.5414790000000  0.5562930000000  0.4833380000000 1.0
C      1  0.4585210000000  0.4437070000000  0.5166620000000 1.0
C      1  0.5541300000000  0.4493850000000  0.5512630000000 1.0
C      1  0.4458700000000  0.5506150000000  0.4487370000000 1.0
C      1  0.4853510000000  0.4722980000000  0.5869510000000 1.0
C      1  0.5146490000000  0.5277020000000  0.4130490000000 1.0
C      1  0.5485830000000  0.5285270000000  0.4907560000000 1.0
C      1  0.4514170000000  0.4714730000000  0.5092440000000 1.0
C      1  0.5008280000000  0.5269470000000  0.5059740000000 1.0
C      1  0.4991720000000  0.4730530000000  0.4940260000000 1.0
C      1  0.4704570000000  0.4403680000000  0.5414510000000 1.0
C      1  0.5295430000000  0.5596320000000  0.4585490000000 1.0
C      1  0.5010380000000  0.5515050000000  0.5218650000000 1.0
C      1  0.4989620000000  0.4484950000000  0.4781350000000 1.0
C      1  0.5455040000000  0.4646850000000  0.5041830000000 1.0
C      1  0.4544960000000  0.5353150000000  0.4958170000000 1.0
C      1  0.5307750000000  0.5710910000000  0.5066120000000 1.0
C      1  0.4692250000000  0.4289090000000  0.4933880000000 1.0
C      1  0.5704950000000  0.5179050000000  0.5276820000000 1.0
C      1  0.4295050000000  0.4820950000000  0.4723180000000 1.0
C      1  0.4731880000000  0.4871540000000  0.4915970000000 1.0
C      1  0.5268120000000  0.5128460000000  0.5084030000000 1.0
C      1  0.5732880000000  0.4740430000000  0.5059460000000 1.0
C      1  0.4267120000000  0.5259570000000  0.4940540000000 1.0
C      1  0.5051220000000  0.5168360000000  0.5638910000000 1.0
C      1  0.4948780000000  0.4831640000000  0.4361090000000 1.0
C      1  0.5371650000000  0.5574080000000  0.5327230000000 1.0
C      1  0.4628350000000  0.4425920000000  0.4672770000000 1.0
C      1  0.4751950000000  0.5148010000000  0.5025100000000 1.0
C      1  0.5248050000000  0.4851990000000  0.4974900000000 1.0
C      1  0.5064810000000  0.4580090000000  0.4365900000000 1.0
C      1  0.4935190000000  0.5419910000000  0.5634100000000 1.0
C      1  0.5396510000000  0.4224480000000  0.4393920000000 1.0
C      1  0.4603490000000  0.5775520000000  0.5606080000000 1.0
C      1  0.5748110000000  0.5277340000000  0.5016180000000 1.0
C      1  0.4251890000000  0.4722660000000  0.4983820000000 1.0
C      1  0.5091430000000  0.5044170000000  0.4262620000000 1.0
C      1  0.4908570000000  0.4955830000000  0.5737380000000 1.0
END
