TITL C-9258-7861-251 1.05966044957965e-06 125000 -367.321310271222 0 0 60 (C2) n - 1
REM
REM in /home/bkarasulu/CARBON/AIRSS/Generating-Clusters/EDIP-Nigel-Params/Higher-Symm/Box-15A/Only-C60/SD-CG/HFTN-CG
REM
REM
REM
REM
REM
REM ./C.cell (414f73aa93bd7a1190c7fd0f31ff2f98)
REM
REM compiler GCC version 9.2.1 20190827 (Red Hat 9.2.1-1)
REM options -cpp -mtune=generic -march=x86-64 -g -O0 -fpre-include=/usr/include/finclude/math-vector-fortran.h
REM seed 2126814738 -1950821313 16264026 1826430597 -304637933 366244077 -212718508 -2026702130 516795761 88897572 -1922046543 1938084542 1713854719 -454560857 945982862 -1713200281 1132915754 38416177 -841544547 -514684497 -1207781185 -1023569294 -1772684246 1677062117 -1128094306 -1964765364 770079707 -543219386 -852449979 1188171064 -1098419736 -823519755 843337522
REM
CELL 1.54180   50.00000   50.00000   50.00000   90.00000   90.00000   90.00000
LATT -1
SFAC C  
C      1  0.4382140000000  0.4859340000000  0.4953550000000 1.0
C      1  0.4382150000000  0.5140700000000  0.5046460000000 1.0
C      1  0.5308580000000  0.5174380000000  0.4994770000000 1.0
C      1  0.5308570000000  0.4825600000000  0.5005220000000 1.0
C      1  0.5501470000000  0.4564180000000  0.4625120000000 1.0
C      1  0.5501500000000  0.5435800000000  0.5374870000000 1.0
C      1  0.4621570000000  0.5266790000000  0.4445260000000 1.0
C      1  0.4621570000000  0.4733230000000  0.5554750000000 1.0
C      1  0.4898950000000  0.5384600000000  0.4426800000000 1.0
C      1  0.4898940000000  0.4615400000000  0.5573200000000 1.0
C      1  0.5713030000000  0.5075080000000  0.4636190000000 1.0
C      1  0.5713030000000  0.4924890000000  0.5363790000000 1.0
C      1  0.5086200000000  0.4778580000000  0.5716900000000 1.0
C      1  0.5086200000000  0.5221420000000  0.4283100000000 1.0
C      1  0.4684350000000  0.5022490000000  0.5478850000000 1.0
C      1  0.4684340000000  0.4977520000000  0.4521160000000 1.0
C      1  0.5292360000000  0.4376240000000  0.4637930000000 1.0
C      1  0.5292400000000  0.5623750000000  0.5362070000000 1.0
C      1  0.5523870000000  0.4734330000000  0.4399970000000 1.0
C      1  0.5523900000000  0.5265640000000  0.5600020000000 1.0
C      1  0.4857650000000  0.5403170000000  0.5754930000000 1.0
C      1  0.4857610000000  0.4596840000000  0.4245070000000 1.0
C      1  0.4342840000000  0.4664200000000  0.5149210000000 1.0
C      1  0.4342850000000  0.5335840000000  0.4850810000000 1.0
C      1  0.4582020000000  0.4498740000000  0.4648640000000 1.0
C      1  0.4582050000000  0.5501280000000  0.5351370000000 1.0
C      1  0.5258510000000  0.4701960000000  0.5277360000000 1.0
C      1  0.5258520000000  0.5298030000000  0.4722640000000 1.0
C      1  0.5757940000000  0.4922090000000  0.4870440000000 1.0
C      1  0.5757950000000  0.5077870000000  0.5129540000000 1.0
C      1  0.5528910000000  0.4986870000000  0.5567150000000 1.0
C      1  0.5528900000000  0.5013110000000  0.4432840000000 1.0
C      1  0.5270710000000  0.5140240000000  0.4482230000000 1.0
C      1  0.5270720000000  0.4859750000000  0.5517770000000 1.0
C      1  0.4810700000000  0.5176480000000  0.4973240000000 1.0
C      1  0.4810690000000  0.4823530000000  0.5026770000000 1.0
C      1  0.5029030000000  0.5536110000000  0.5285190000000 1.0
C      1  0.5029000000000  0.4463890000000  0.4714810000000 1.0
C      1  0.4879040000000  0.5703170000000  0.5087210000000 1.0
C      1  0.4879000000000  0.4296840000000  0.4912790000000 1.0
C      1  0.5556510000000  0.4701240000000  0.4885570000000 1.0
C      1  0.5556530000000  0.5298740000000  0.5114420000000 1.0
C      1  0.4829970000000  0.4458180000000  0.4486960000000 1.0
C      1  0.4830000000000  0.5541830000000  0.5513040000000 1.0
C      1  0.4967600000000  0.4313670000000  0.5173430000000 1.0
C      1  0.4967630000000  0.5686340000000  0.4826570000000 1.0
C      1  0.4516730000000  0.5214220000000  0.5302200000000 1.0
C      1  0.4516710000000  0.4785810000000  0.4697810000000 1.0
C      1  0.4766860000000  0.5154790000000  0.5717830000000 1.0
C      1  0.4766840000000  0.4845220000000  0.4282180000000 1.0
C      1  0.5056630000000  0.4750620000000  0.4838510000000 1.0
C      1  0.5056650000000  0.5249370000000  0.5161490000000 1.0
C      1  0.4600490000000  0.4325310000000  0.4873210000000 1.0
C      1  0.4600530000000  0.5674710000000  0.5126800000000 1.0
C      1  0.5012150000000  0.5446880000000  0.4692070000000 1.0
C      1  0.5012130000000  0.4553120000000  0.5307930000000 1.0
C      1  0.4919810000000  0.4982090000000  0.5289920000000 1.0
C      1  0.4919800000000  0.5017910000000  0.4710080000000 1.0
C      1  0.4443360000000  0.5400030000000  0.4611640000000 1.0
C      1  0.4443350000000  0.4600000000000  0.5388370000000 1.0
END
