TITL C-9268-6400-349 -2.19007547542683e-06 125000 -359.006188108621 0 0 60 (C2) n - 1
REM
REM in /home/bkarasulu/CARBON/AIRSS/Generating-Clusters/EDIP-Nigel-Params/Higher-Symm/Box-15A/Only-C60/SD-CG/HFTN-CG
REM
REM
REM
REM
REM
REM ./C.cell (414f73aa93bd7a1190c7fd0f31ff2f98)
REM
REM compiler GCC version 9.2.1 20190827 (Red Hat 9.2.1-1)
REM options -cpp -mtune=generic -march=x86-64 -g -O0 -fpre-include=/usr/include/finclude/math-vector-fortran.h
REM seed 1535321159 -558342960 -1457725824 294925965 -530688497 -1864147033 -98297475 1416328629 -550812902 -1990480259 1362802597 1662351745 1092428652 -294928753 1043033039 1276144497 -2120318761 901794021 810510610 24575056 703543509 779881091 357010893 1882540698 -345438808 -800557074 -1365256599 1112939619 698468314 -554861578 -1739840331 -2006374878 1504450454
REM
CELL 1.54180   50.00000   50.00000   50.00000   90.00000   90.00000   90.00000
LATT -1
SFAC C  
C      1  0.5174960000000  0.5171930000000  0.4866200000000 1.0
C      1  0.5145260000000  0.4848910000000  0.5168080000000 1.0
C      1  0.4825430000000  0.5175230000000  0.5129970000000 1.0
C      1  0.4854410000000  0.4845560000000  0.4835290000000 1.0
C      1  0.5299060000000  0.4603990000000  0.5272280000000 1.0
C      1  0.5310520000000  0.5405950000000  0.4732360000000 1.0
C      1  0.4700060000000  0.4598730000000  0.4736520000000 1.0
C      1  0.4690380000000  0.5412430000000  0.5258610000000 1.0
C      1  0.5599510000000  0.5313040000000  0.4756380000000 1.0
C      1  0.5589330000000  0.4678510000000  0.5229040000000 1.0
C      1  0.4401180000000  0.5319660000000  0.5236640000000 1.0
C      1  0.4409950000000  0.4674840000000  0.4778100000000 1.0
C      1  0.5237130000000  0.4923190000000  0.4369500000000 1.0
C      1  0.5257420000000  0.5064640000000  0.5618240000000 1.0
C      1  0.4762720000000  0.4937640000000  0.5632030000000 1.0
C      1  0.4742700000000  0.5051550000000  0.4380480000000 1.0
C      1  0.4806750000000  0.5647170000000  0.5096130000000 1.0
C      1  0.4807690000000  0.4366960000000  0.4900590000000 1.0
C      1  0.5194670000000  0.5644460000000  0.4889620000000 1.0
C      1  0.5190910000000  0.4368880000000  0.5113360000000 1.0
C      1  0.4862650000000  0.4236130000000  0.5451130000000 1.0
C      1  0.4869790000000  0.5771140000000  0.4543140000000 1.0
C      1  0.5135660000000  0.4226070000000  0.4565840000000 1.0
C      1  0.5131920000000  0.5780740000000  0.5439730000000 1.0
C      1  0.4499740000000  0.4907830000000  0.5504540000000 1.0
C      1  0.4481020000000  0.5074220000000  0.4512460000000 1.0
C      1  0.5500050000000  0.4895620000000  0.4497630000000 1.0
C      1  0.5519150000000  0.5083810000000  0.5485790000000 1.0
C      1  0.5497210000000  0.5247020000000  0.5239720000000 1.0
C      1  0.5465560000000  0.4742130000000  0.4749890000000 1.0
C      1  0.4503330000000  0.5242760000000  0.4754870000000 1.0
C      1  0.4533870000000  0.4748740000000  0.5255730000000 1.0
C      1  0.4898430000000  0.5189180000000  0.5654430000000 1.0
C      1  0.4877170000000  0.4803400000000  0.4327240000000 1.0
C      1  0.5101970000000  0.5174470000000  0.4341560000000 1.0
C      1  0.5122410000000  0.4818020000000  0.5676940000000 1.0
C      1  0.4335140000000  0.5180780000000  0.4985850000000 1.0
C      1  0.4353320000000  0.4807280000000  0.5033720000000 1.0
C      1  0.5665260000000  0.5179580000000  0.5010170000000 1.0
C      1  0.5646250000000  0.4805160000000  0.4970560000000 1.0
C      1  0.4895290000000  0.4364660000000  0.5200740000000 1.0
C      1  0.4900030000000  0.5649480000000  0.4797420000000 1.0
C      1  0.5103310000000  0.4360160000000  0.4813330000000 1.0
C      1  0.5101410000000  0.5653570000000  0.5188200000000 1.0
C      1  0.5052330000000  0.4349710000000  0.5612500000000 1.0
C      1  0.5055640000000  0.5647100000000  0.4385060000000 1.0
C      1  0.4946220000000  0.4336470000000  0.4402000000000 1.0
C      1  0.4945800000000  0.5660630000000  0.5600520000000 1.0
C      1  0.5215100000000  0.4572130000000  0.5561250000000 1.0
C      1  0.5208140000000  0.5419930000000  0.4446530000000 1.0
C      1  0.4783950000000  0.4560330000000  0.4448320000000 1.0
C      1  0.4792790000000  0.5432490000000  0.5544060000000 1.0
C      1  0.5179730000000  0.4851230000000  0.4801500000000 1.0
C      1  0.5212180000000  0.5179290000000  0.5178060000000 1.0
C      1  0.4819950000000  0.4856040000000  0.5201730000000 1.0
C      1  0.4788210000000  0.5175780000000  0.4818020000000 1.0
C      1  0.4335280000000  0.4835520000000  0.4561280000000 1.0
C      1  0.4356890000000  0.5147910000000  0.5454170000000 1.0
C      1  0.5664370000000  0.4843780000000  0.5442260000000 1.0
C      1  0.5643420000000  0.5136430000000  0.4542690000000 1.0
END
