TITL C-9268-6400-137 -3.54974143539618e-05 125000 -371.898256234543 0 0 60 (C1) n - 1
REM
REM in /home/bkarasulu/CARBON/AIRSS/Generating-Clusters/EDIP-Nigel-Params/Higher-Symm/Box-15A/Only-C60/SD-CG/HFTN-CG
REM
REM
REM
REM
REM
REM ./C.cell (414f73aa93bd7a1190c7fd0f31ff2f98)
REM
REM compiler GCC version 9.2.1 20190827 (Red Hat 9.2.1-1)
REM options -cpp -mtune=generic -march=x86-64 -g -O0 -fpre-include=/usr/include/finclude/math-vector-fortran.h
REM seed -298044560 -68795703 1033417603 764906456 -168788861 1402161787 -690281054 -598890013 866458207 442874604 -1991678435 -1815153886 264347334 1774918209 1144304616 -456648764 1165201204 -1714485326 -366953678 2133819415 1327416523 -211228625 -49216640 -627829932 295374100 -841933126 2035979893 -1580787102 -1147043280 1413823927 873142742 -112771441 1736032662
REM
CELL 1.54180   50.00000   50.00000   50.00000   90.00000   90.00000   90.00000
LATT -1
SFAC C  
C      1  0.4619720000000  0.4910820000000  0.4466420000000 1.0
C      1  0.5424430000000  0.5106670000000  0.5516950000000 1.0
C      1  0.5016790000000  0.5150810000000  0.4750470000000 1.0
C      1  0.5060320000000  0.4877020000000  0.5205340000000 1.0
C      1  0.5167600000000  0.5520660000000  0.5503150000000 1.0
C      1  0.4867150000000  0.4480130000000  0.4504120000000 1.0
C      1  0.5551990000000  0.4967460000000  0.4787180000000 1.0
C      1  0.4366780000000  0.5070020000000  0.5528270000000 1.0
C      1  0.4704090000000  0.4326500000000  0.4948950000000 1.0
C      1  0.5284820000000  0.5701240000000  0.5067670000000 1.0
C      1  0.4931730000000  0.5098660000000  0.5605310000000 1.0
C      1  0.5078920000000  0.4906210000000  0.4256730000000 1.0
C      1  0.4375420000000  0.5496950000000  0.4853420000000 1.0
C      1  0.5625140000000  0.4495890000000  0.5144700000000 1.0
C      1  0.4904130000000  0.5304000000000  0.4520230000000 1.0
C      1  0.5123450000000  0.4705580000000  0.5445850000000 1.0
C      1  0.5007250000000  0.4420950000000  0.5348080000000 1.0
C      1  0.4991220000000  0.5586580000000  0.4664920000000 1.0
C      1  0.4820860000000  0.5720980000000  0.4891820000000 1.0
C      1  0.5168430000000  0.4270090000000  0.5132690000000 1.0
C      1  0.5421270000000  0.4797800000000  0.5489480000000 1.0
C      1  0.4608550000000  0.5209880000000  0.4501570000000 1.0
C      1  0.4468100000000  0.5309530000000  0.5430100000000 1.0
C      1  0.5344190000000  0.4780180000000  0.4648320000000 1.0
C      1  0.4412960000000  0.4785900000000  0.5530550000000 1.0
C      1  0.5583340000000  0.5201150000000  0.4610590000000 1.0
C      1  0.4782890000000  0.4532240000000  0.5157100000000 1.0
C      1  0.5240810000000  0.5520760000000  0.4836800000000 1.0
C      1  0.5486850000000  0.5125830000000  0.4339250000000 1.0
C      1  0.4488090000000  0.4650840000000  0.5766130000000 1.0
C      1  0.5489580000000  0.5240360000000  0.5256690000000 1.0
C      1  0.4520260000000  0.4773840000000  0.4710160000000 1.0
C      1  0.4647910000000  0.5480390000000  0.5286280000000 1.0
C      1  0.5349920000000  0.4482140000000  0.4721170000000 1.0
C      1  0.5050070000000  0.4861440000000  0.4723680000000 1.0
C      1  0.4878540000000  0.5105000000000  0.5236950000000 1.0
C      1  0.4968990000000  0.4820170000000  0.5677590000000 1.0
C      1  0.5057600000000  0.5208220000000  0.4267200000000 1.0
C      1  0.5391710000000  0.5536020000000  0.5299570000000 1.0
C      1  0.4627770000000  0.4473870000000  0.4693850000000 1.0
C      1  0.5583700000000  0.4756870000000  0.5244250000000 1.0
C      1  0.4450560000000  0.5245660000000  0.4750170000000 1.0
C      1  0.4574920000000  0.4999340000000  0.5181420000000 1.0
C      1  0.5358410000000  0.4853390000000  0.4350950000000 1.0
C      1  0.5386420000000  0.4435250000000  0.5011080000000 1.0
C      1  0.4591500000000  0.5573080000000  0.5013430000000 1.0
C      1  0.4995760000000  0.5268930000000  0.5009820000000 1.0
C      1  0.4953520000000  0.4732170000000  0.4984560000000 1.0
C      1  0.5314000000000  0.5319710000000  0.4221300000000 1.0
C      1  0.4754940000000  0.4683690000000  0.5791740000000 1.0
C      1  0.5093900000000  0.4330260000000  0.4646260000000 1.0
C      1  0.4906150000000  0.5615730000000  0.5368670000000 1.0
C      1  0.5482050000000  0.5444990000000  0.4702450000000 1.0
C      1  0.4557100000000  0.4713260000000  0.5281360000000 1.0
C      1  0.4449420000000  0.4995370000000  0.4902580000000 1.0
C      1  0.5580840000000  0.5005950000000  0.5082660000000 1.0
C      1  0.4978300000000  0.4200200000000  0.4899650000000 1.0
C      1  0.5001470000000  0.5780830000000  0.5132870000000 1.0
C      1  0.4898520000000  0.4784180000000  0.4468760000000 1.0
C      1  0.5178890000000  0.5248350000000  0.5630710000000 1.0
END
