TITL C-9263-351-10 -1.5565028651228e-06 125000 -374.351981380816 0 0 60 (C1) n - 1
REM
REM in /home/bkarasulu/CARBON/AIRSS/Generating-Clusters/EDIP-Nigel-Params/Higher-Symm/Box-15A/Only-C60/SD-CG/HFTN-CG
REM
REM
REM
REM
REM
REM ./C.cell (414f73aa93bd7a1190c7fd0f31ff2f98)
REM
REM compiler GCC version 9.2.1 20190827 (Red Hat 9.2.1-1)
REM options -cpp -mtune=generic -march=x86-64 -g -O0 -fpre-include=/usr/include/finclude/math-vector-fortran.h
REM seed 1941586312 -2138755084 -1286755498 -1721462290 1457129676 1237534869 -139266202 2046186188 -222480018 -813540319 43208330 -990133450 1948407296 1586656887 -496158207 -669183933 -804781615 1423244410 -244821378 -654105662 -502065201 -583417245 1408710663 -227306381 669668611 -1179668847 613423737 -1981427948 1920020623 -540398752 955077211 -720252352 -925344398
REM
CELL 1.54180   50.00000   50.00000   50.00000   90.00000   90.00000   90.00000
LATT -1
SFAC C  
C      1  0.5179430000000  0.4888370000000  0.5042920000000 1.0
C      1  0.4809120000000  0.5124490000000  0.4945500000000 1.0
C      1  0.4606770000000  0.5548230000000  0.4642280000000 1.0
C      1  0.5339810000000  0.4435460000000  0.5343330000000 1.0
C      1  0.4931010000000  0.4987400000000  0.5205900000000 1.0
C      1  0.5068690000000  0.5034980000000  0.4790120000000 1.0
C      1  0.5517600000000  0.5569170000000  0.4910640000000 1.0
C      1  0.4560760000000  0.4467430000000  0.5086420000000 1.0
C      1  0.5568120000000  0.4850710000000  0.4692570000000 1.0
C      1  0.4429090000000  0.5170170000000  0.5312720000000 1.0
C      1  0.5091690000000  0.4930350000000  0.4510360000000 1.0
C      1  0.4906420000000  0.5082670000000  0.5493110000000 1.0
C      1  0.5048870000000  0.5575740000000  0.4816500000000 1.0
C      1  0.4984090000000  0.4282180000000  0.5241760000000 1.0
C      1  0.4798310000000  0.5556130000000  0.4407450000000 1.0
C      1  0.5174760000000  0.4435450000000  0.5608570000000 1.0
C      1  0.5249320000000  0.5403780000000  0.4369070000000 1.0
C      1  0.4748910000000  0.4617580000000  0.5562070000000 1.0
C      1  0.5395020000000  0.4849540000000  0.5558350000000 1.0
C      1  0.4604420000000  0.5138210000000  0.4466280000000 1.0
C      1  0.4619000000000  0.5571920000000  0.5128670000000 1.0
C      1  0.5381330000000  0.4447180000000  0.4853340000000 1.0
C      1  0.5053690000000  0.5519660000000  0.5408440000000 1.0
C      1  0.4969380000000  0.4464300000000  0.4558980000000 1.0
C      1  0.5193260000000  0.4553500000000  0.5065380000000 1.0
C      1  0.4772840000000  0.5461450000000  0.4891470000000 1.0
C      1  0.5627520000000  0.4621550000000  0.4875810000000 1.0
C      1  0.4367420000000  0.5396840000000  0.5125460000000 1.0
C      1  0.4503020000000  0.4948360000000  0.5116010000000 1.0
C      1  0.5494570000000  0.5070910000000  0.4890140000000 1.0
C      1  0.5141980000000  0.5267030000000  0.5530040000000 1.0
C      1  0.4862150000000  0.4734290000000  0.4498630000000 1.0
C      1  0.4902260000000  0.4367530000000  0.5520050000000 1.0
C      1  0.5073990000000  0.5602520000000  0.4516920000000 1.0
C      1  0.5492110000000  0.5349990000000  0.4496350000000 1.0
C      1  0.4473030000000  0.4646120000000  0.5511860000000 1.0
C      1  0.4803590000000  0.4354350000000  0.5024440000000 1.0
C      1  0.5268130000000  0.5663820000000  0.4988520000000 1.0
C      1  0.5075320000000  0.5165360000000  0.4306610000000 1.0
C      1  0.4905880000000  0.4837140000000  0.5675640000000 1.0
C      1  0.5214450000000  0.5690250000000  0.5259580000000 1.0
C      1  0.4859020000000  0.4303570000000  0.4758300000000 1.0
C      1  0.4312000000000  0.4949960000000  0.4887200000000 1.0
C      1  0.5676760000000  0.5052660000000  0.5125580000000 1.0
C      1  0.4587200000000  0.4850180000000  0.4489280000000 1.0
C      1  0.5407520000000  0.5136750000000  0.5514820000000 1.0
C      1  0.5541670000000  0.4652400000000  0.5394810000000 1.0
C      1  0.4418910000000  0.5328790000000  0.4594990000000 1.0
C      1  0.5681380000000  0.4755800000000  0.5151700000000 1.0
C      1  0.4291230000000  0.5244310000000  0.4853370000000 1.0
C      1  0.4653020000000  0.5258080000000  0.5496880000000 1.0
C      1  0.5350600000000  0.4766930000000  0.4498110000000 1.0
C      1  0.4375850000000  0.4788930000000  0.4662360000000 1.0
C      1  0.5621350000000  0.5213250000000  0.5351930000000 1.0
C      1  0.5177300000000  0.4719400000000  0.5707710000000 1.0
C      1  0.4798980000000  0.5275160000000  0.4298370000000 1.0
C      1  0.5558090000000  0.5335130000000  0.4763590000000 1.0
C      1  0.4458140000000  0.4676740000000  0.5234100000000 1.0
C      1  0.5268670000000  0.4488070000000  0.4575540000000 1.0
C      1  0.4755170000000  0.5521810000000  0.5393100000000 1.0
END
