TITL C-9266-5713-132 8.98345402628369e-07 125000 -358.256870704145 0 0 60 (D2) n - 1
REM
REM in /home/bkarasulu/CARBON/AIRSS/Generating-Clusters/EDIP-Nigel-Params/Higher-Symm/Box-15A/Only-C60/SD-CG/HFTN-CG
REM
REM
REM
REM
REM
REM ./C.cell (414f73aa93bd7a1190c7fd0f31ff2f98)
REM
REM compiler GCC version 9.2.1 20190827 (Red Hat 9.2.1-1)
REM options -cpp -mtune=generic -march=x86-64 -g -O0 -fpre-include=/usr/include/finclude/math-vector-fortran.h
REM seed -424064896 1486995222 741621820 156190084 754907010 -1740939940 -1331126739 -1835896857 -1372467664 1792101718 -1639235674 1018850092 -563312888 448344955 -1121804475 1939148876 1767756200 628341625 -269791462 -2052286649 1301777385 773559886 487724906 -1315703664 -1993999397 45655482 -579723369 1397114567 886356847 -276676156 -1971198356 945468591 -1982353454
REM
CELL 1.54180   50.00000   50.00000   50.00000   90.00000   90.00000   90.00000
LATT -1
SFAC C  
C      1  0.5214300000000  0.4671650000000  0.5579400000000 1.0
C      1  0.5216400000000  0.5328880000000  0.4421690000000 1.0
C      1  0.4782790000000  0.5343580000000  0.5569390000000 1.0
C      1  0.4786510000000  0.4655890000000  0.4429520000000 1.0
C      1  0.4886540000000  0.5095590000000  0.4751540000000 1.0
C      1  0.4885530000000  0.4904130000000  0.5247890000000 1.0
C      1  0.5114710000000  0.4897870000000  0.4754740000000 1.0
C      1  0.5113220000000  0.5102420000000  0.5245840000000 1.0
C      1  0.4641700000000  0.5114070000000  0.4248170000000 1.0
C      1  0.4638190000000  0.4885040000000  0.5750010000000 1.0
C      1  0.5362110000000  0.4866060000000  0.4253290000000 1.0
C      1  0.5358000000000  0.5134830000000  0.5748530000000 1.0
C      1  0.4821660000000  0.5042580000000  0.5565700000000 1.0
C      1  0.4824620000000  0.4956990000000  0.4433410000000 1.0
C      1  0.5175460000000  0.4972450000000  0.5567530000000 1.0
C      1  0.5178250000000  0.5027990000000  0.4433360000000 1.0
C      1  0.4360760000000  0.5014490000000  0.4634320000000 1.0
C      1  0.4358960000000  0.4983920000000  0.5362450000000 1.0
C      1  0.5641090000000  0.4975860000000  0.4638080000000 1.0
C      1  0.5639190000000  0.5025720000000  0.5365150000000 1.0
C      1  0.5433290000000  0.4679550000000  0.5100440000000 1.0
C      1  0.5432990000000  0.5321520000000  0.4901740000000 1.0
C      1  0.4566230000000  0.5322970000000  0.5089710000000 1.0
C      1  0.4567490000000  0.4675960000000  0.4908110000000 1.0
C      1  0.4590750000000  0.4494350000000  0.5140440000000 1.0
C      1  0.4590220000000  0.5504640000000  0.4857500000000 1.0
C      1  0.5408570000000  0.5509220000000  0.5129060000000 1.0
C      1  0.5410470000000  0.4491790000000  0.4873010000000 1.0
C      1  0.5363570000000  0.4579220000000  0.4586490000000 1.0
C      1  0.5360440000000  0.5421680000000  0.5415330000000 1.0
C      1  0.4638560000000  0.5409650000000  0.4573640000000 1.0
C      1  0.4637430000000  0.4589460000000  0.5424530000000 1.0
C      1  0.5215960000000  0.5375570000000  0.5798330000000 1.0
C      1  0.5220910000000  0.4624970000000  0.4202770000000 1.0
C      1  0.4779970000000  0.4645720000000  0.5806900000000 1.0
C      1  0.4783170000000  0.5353740000000  0.4192000000000 1.0
C      1  0.5624890000000  0.4903860000000  0.5114310000000 1.0
C      1  0.5625220000000  0.5097690000000  0.4888840000000 1.0
C      1  0.4374540000000  0.5099100000000  0.5108550000000 1.0
C      1  0.4375340000000  0.4899360000000  0.4888300000000 1.0
C      1  0.4991160000000  0.5380300000000  0.5186270000000 1.0
C      1  0.4993040000000  0.4619680000000  0.4813690000000 1.0
C      1  0.5007870000000  0.4624770000000  0.5196330000000 1.0
C      1  0.5007930000000  0.5375250000000  0.4803710000000 1.0
C      1  0.5147320000000  0.5646460000000  0.5112430000000 1.0
C      1  0.5149480000000  0.4353910000000  0.4888320000000 1.0
C      1  0.4852070000000  0.4356740000000  0.5128780000000 1.0
C      1  0.4851130000000  0.5642900000000  0.4870480000000 1.0
C      1  0.5547910000000  0.4778640000000  0.4465680000000 1.0
C      1  0.5544660000000  0.5222710000000  0.5537080000000 1.0
C      1  0.4454820000000  0.5207070000000  0.4457220000000 1.0
C      1  0.4452610000000  0.4791570000000  0.5540020000000 1.0
C      1  0.5039150000000  0.4519090000000  0.4389020000000 1.0
C      1  0.5034880000000  0.5481000000000  0.5611170000000 1.0
C      1  0.4963980000000  0.5464540000000  0.4376300000000 1.0
C      1  0.4961990000000  0.4535370000000  0.5623520000000 1.0
C      1  0.4641070000000  0.5447340000000  0.5338960000000 1.0
C      1  0.4643890000000  0.4551770000000  0.4659240000000 1.0
C      1  0.5357180000000  0.4561830000000  0.5352520000000 1.0
C      1  0.5357870000000  0.5439060000000  0.4649280000000 1.0
END
