TITL C-9270-2362-201 4.57998849031086e-06 125000 -361.68006726073 0 0 60 (C1) n - 1
REM
REM in /home/bkarasulu/CARBON/AIRSS/Generating-Clusters/EDIP-Nigel-Params/Higher-Symm/Box-15A/Only-C60/SD-CG/HFTN-CG
REM
REM
REM
REM
REM
REM ./C.cell (414f73aa93bd7a1190c7fd0f31ff2f98)
REM
REM compiler GCC version 9.2.1 20190827 (Red Hat 9.2.1-1)
REM options -cpp -mtune=generic -march=x86-64 -g -O0 -fpre-include=/usr/include/finclude/math-vector-fortran.h
REM seed -734056011 1774074435 -1268186084 740214129 1406898476 1731410589 537811237 44371836 851822653 -201154284 -1800879695 -362700660 1427338476 1107914753 -1447811841 -1081654764 -2071312126 2023400805 -2139723833 -1853416560 -1674193443 -795631682 814557001 -287340278 418948216 1507561915 2074027743 -766974187 618018558 -404624707 -958661466 1785701117 815194333
REM
CELL 1.54180   50.00000   50.00000   50.00000   90.00000   90.00000   90.00000
LATT -1
SFAC C  
C      1  0.4560840000000  0.5140830000000  0.5144010000000 1.0
C      1  0.4985850000000  0.5114570000000  0.5461430000000 1.0
C      1  0.5612070000000  0.5069200000000  0.5095980000000 1.0
C      1  0.5293190000000  0.5071640000000  0.4543990000000 1.0
C      1  0.4557650000000  0.5079570000000  0.4565950000000 1.0
C      1  0.4831430000000  0.4903900000000  0.4779190000000 1.0
C      1  0.4735600000000  0.4878950000000  0.5091070000000 1.0
C      1  0.5001920000000  0.4868450000000  0.5276640000000 1.0
C      1  0.5270310000000  0.4893620000000  0.5078860000000 1.0
C      1  0.5162350000000  0.4866130000000  0.4767160000000 1.0
C      1  0.5578060000000  0.5145270000000  0.4609860000000 1.0
C      1  0.4792180000000  0.5147550000000  0.4369810000000 1.0
C      1  0.4335520000000  0.5161320000000  0.4940390000000 1.0
C      1  0.4718960000000  0.5126910000000  0.5609270000000 1.0
C      1  0.5557120000000  0.5146730000000  0.5390220000000 1.0
C      1  0.4383040000000  0.4669030000000  0.4925840000000 1.0
C      1  0.4730400000000  0.4642670000000  0.5589080000000 1.0
C      1  0.5449050000000  0.4675840000000  0.5421730000000 1.0
C      1  0.5549260000000  0.4659200000000  0.4708970000000 1.0
C      1  0.4884850000000  0.4674680000000  0.4402680000000 1.0
C      1  0.4753720000000  0.5344780000000  0.5055780000000 1.0
C      1  0.4975860000000  0.5334300000000  0.5254520000000 1.0
C      1  0.5231740000000  0.5280950000000  0.5113730000000 1.0
C      1  0.5162660000000  0.5299800000000  0.4828070000000 1.0
C      1  0.4869430000000  0.5282540000000  0.4788320000000 1.0
C      1  0.4584520000000  0.4538470000000  0.4768490000000 1.0
C      1  0.4637220000000  0.4530540000000  0.5337240000000 1.0
C      1  0.5203490000000  0.4524040000000  0.5453070000000 1.0
C      1  0.5477890000000  0.4526210000000  0.4952600000000 1.0
C      1  0.5097670000000  0.4512320000000  0.4520370000000 1.0
C      1  0.5582780000000  0.4640460000000  0.5181910000000 1.0
C      1  0.5350740000000  0.4642330000000  0.4506380000000 1.0
C      1  0.4631670000000  0.4650060000000  0.4517120000000 1.0
C      1  0.4427710000000  0.4674000000000  0.5206860000000 1.0
C      1  0.5011080000000  0.4662430000000  0.5606220000000 1.0
C      1  0.4655040000000  0.5580600000000  0.5438250000000 1.0
C      1  0.5261610000000  0.5628320000000  0.5428100000000 1.0
C      1  0.5451330000000  0.5638060000000  0.4925410000000 1.0
C      1  0.5059780000000  0.5638150000000  0.4540370000000 1.0
C      1  0.4546270000000  0.5608440000000  0.4763900000000 1.0
C      1  0.5249720000000  0.4342440000000  0.4974970000000 1.0
C      1  0.5044730000000  0.4339470000000  0.4758020000000 1.0
C      1  0.4776720000000  0.4352070000000  0.4885870000000 1.0
C      1  0.4813580000000  0.4352220000000  0.5179950000000 1.0
C      1  0.5106120000000  0.4343360000000  0.5236870000000 1.0
C      1  0.4403680000000  0.5333160000000  0.4705630000000 1.0
C      1  0.4545270000000  0.5301540000000  0.5449520000000 1.0
C      1  0.5305170000000  0.5267160000000  0.5544370000000 1.0
C      1  0.5605550000000  0.5288120000000  0.4872640000000 1.0
C      1  0.5089640000000  0.5278550000000  0.4395590000000 1.0
C      1  0.4958210000000  0.4927910000000  0.4289060000000 1.0
C      1  0.4295750000000  0.4912040000000  0.4801630000000 1.0
C      1  0.4604270000000  0.4878190000000  0.5672160000000 1.0
C      1  0.5483000000000  0.4925250000000  0.5561690000000 1.0
C      1  0.5699300000000  0.4912120000000  0.4748610000000 1.0
C      1  0.5408280000000  0.5513870000000  0.5193950000000 1.0
C      1  0.5279020000000  0.5536810000000  0.4705820000000 1.0
C      1  0.4793790000000  0.5520310000000  0.4604990000000 1.0
C      1  0.4613680000000  0.5608470000000  0.5055340000000 1.0
C      1  0.4962660000000  0.5594070000000  0.5404470000000 1.0
END
