TITL C-9263-351-60 -1.17700026486701e-07 125000 -366.986444236575 0 0 60 (C2) n - 1
REM
REM in /home/bkarasulu/CARBON/AIRSS/Generating-Clusters/EDIP-Nigel-Params/Higher-Symm/Box-15A/Only-C60/SD-CG/HFTN-CG
REM
REM
REM
REM
REM
REM ./C.cell (414f73aa93bd7a1190c7fd0f31ff2f98)
REM
REM compiler GCC version 9.2.1 20190827 (Red Hat 9.2.1-1)
REM options -cpp -mtune=generic -march=x86-64 -g -O0 -fpre-include=/usr/include/finclude/math-vector-fortran.h
REM seed -1775199239 1743852265 -1216560372 2071123473 -1348177687 1977868568 -991275503 -694725195 -1649827033 -7686279 25373048 729679470 407020483 -2025869752 682834035 -1291133050 238136065 -1979068855 -1718891034 -414944684 -1708677257 2104602720 -929047115 1427453211 -1044484206 -576393745 215370621 534377511 -1171685474 1840381054 -899536800 1097790102 -1958316077
REM
CELL 1.54180   50.00000   50.00000   50.00000   90.00000   90.00000   90.00000
LATT -1
SFAC C  
C      1  0.4824530000000  0.5550570000000  0.5605480000000 1.0
C      1  0.4824520000000  0.4449420000000  0.4394530000000 1.0
C      1  0.4823960000000  0.5540640000000  0.4398920000000 1.0
C      1  0.4823980000000  0.4459360000000  0.5601090000000 1.0
C      1  0.5316830000000  0.5659850000000  0.4652490000000 1.0
C      1  0.5316850000000  0.4340150000000  0.5347500000000 1.0
C      1  0.5318740000000  0.5661380000000  0.5347740000000 1.0
C      1  0.5318730000000  0.4338620000000  0.4652260000000 1.0
C      1  0.4828090000000  0.4353900000000  0.5339660000000 1.0
C      1  0.4828080000000  0.5646100000000  0.4660350000000 1.0
C      1  0.4829420000000  0.4350060000000  0.4657980000000 1.0
C      1  0.4829430000000  0.5649940000000  0.5342020000000 1.0
C      1  0.4362770000000  0.5137170000000  0.5268230000000 1.0
C      1  0.4362760000000  0.4862830000000  0.4731790000000 1.0
C      1  0.4366710000000  0.5131260000000  0.4739530000000 1.0
C      1  0.4366720000000  0.4868740000000  0.5260490000000 1.0
C      1  0.5241180000000  0.4613740000000  0.5723160000000 1.0
C      1  0.5241150000000  0.5386270000000  0.4276830000000 1.0
C      1  0.5242570000000  0.4595380000000  0.4265450000000 1.0
C      1  0.5242590000000  0.5404620000000  0.5734550000000 1.0
C      1  0.5085020000000  0.4415040000000  0.5191970000000 1.0
C      1  0.5085010000000  0.5584960000000  0.4808030000000 1.0
C      1  0.5085680000000  0.4416140000000  0.4803900000000 1.0
C      1  0.5085680000000  0.5583860000000  0.5196090000000 1.0
C      1  0.4598750000000  0.4436250000000  0.4811460000000 1.0
C      1  0.4598750000000  0.5563750000000  0.5188550000000 1.0
C      1  0.4597420000000  0.4437720000000  0.5184660000000 1.0
C      1  0.4597410000000  0.5562280000000  0.4815350000000 1.0
C      1  0.5611870000000  0.4861840000000  0.4829230000000 1.0
C      1  0.5611870000000  0.5138160000000  0.5170760000000 1.0
C      1  0.5615150000000  0.4824730000000  0.5133980000000 1.0
C      1  0.5615140000000  0.5175280000000  0.4866000000000 1.0
C      1  0.5103100000000  0.4722230000000  0.4840660000000 1.0
C      1  0.5103100000000  0.5277770000000  0.5159340000000 1.0
C      1  0.5103320000000  0.4720860000000  0.5145920000000 1.0
C      1  0.5103310000000  0.5279140000000  0.4854080000000 1.0
C      1  0.4869920000000  0.5139510000000  0.5846520000000 1.0
C      1  0.4869900000000  0.4860480000000  0.4153480000000 1.0
C      1  0.4867010000000  0.5127970000000  0.4157790000000 1.0
C      1  0.4867030000000  0.4872030000000  0.5842220000000 1.0
C      1  0.4852740000000  0.4856290000000  0.4745830000000 1.0
C      1  0.4852750000000  0.5143710000000  0.5254180000000 1.0
C      1  0.4853980000000  0.4855030000000  0.5246540000000 1.0
C      1  0.4853970000000  0.5144970000000  0.4753470000000 1.0
C      1  0.4968960000000  0.4624260000000  0.5772460000000 1.0
C      1  0.4968940000000  0.5375740000000  0.4227540000000 1.0
C      1  0.4969550000000  0.4610940000000  0.4220360000000 1.0
C      1  0.4969570000000  0.5389060000000  0.5779640000000 1.0
C      1  0.5355950000000  0.4804750000000  0.5297640000000 1.0
C      1  0.5355940000000  0.5195260000000  0.4702350000000 1.0
C      1  0.5351520000000  0.4808190000000  0.4678730000000 1.0
C      1  0.5351530000000  0.5191820000000  0.5321260000000 1.0
C      1  0.5382330000000  0.4568470000000  0.4503800000000 1.0
C      1  0.5382340000000  0.5431530000000  0.5496190000000 1.0
C      1  0.5380950000000  0.4575700000000  0.5486640000000 1.0
C      1  0.5380930000000  0.5424300000000  0.4513350000000 1.0
C      1  0.4596260000000  0.5263590000000  0.4850120000000 1.0
C      1  0.4596270000000  0.4736410000000  0.5149890000000 1.0
C      1  0.4595760000000  0.5264480000000  0.5157160000000 1.0
C      1  0.4595750000000  0.4735510000000  0.4842850000000 1.0
END
