TITL C-9257-5531-190 3.10361646151922e-05 125000 -357.524211261261 0 0 60 (C1) n - 1
REM
REM in /home/bkarasulu/CARBON/AIRSS/Generating-Clusters/EDIP-Nigel-Params/Higher-Symm/Box-15A/Only-C60/SD-CG/HFTN-CG
REM
REM
REM
REM
REM
REM ./C.cell (414f73aa93bd7a1190c7fd0f31ff2f98)
REM
REM compiler GCC version 9.2.1 20190827 (Red Hat 9.2.1-1)
REM options -cpp -mtune=generic -march=x86-64 -g -O0 -fpre-include=/usr/include/finclude/math-vector-fortran.h
REM seed -231569272 677182306 91320800 -2107938267 -1724056919 -845291899 -1640095426 -323268308 -642103481 -1578882092 750505264 379443823 912168103 -62269578 1339310069 -1692087445 -548414962 668969209 130961870 1150831143 -1484148273 83021087 -378404564 -503363645 -1048171592 -1373161909 1991725747 615297992 -1476402086 680626175 -1735488748 -540880720 -1060142455
REM
CELL 1.54180   50.00000   50.00000   50.00000   90.00000   90.00000   90.00000
LATT -1
SFAC C  
C      1  0.4375240000000  0.5092460000000  0.5336500000000 1.0
C      1  0.4422970000000  0.5159270000000  0.4689260000000 1.0
C      1  0.4931130000000  0.5081380000000  0.4277540000000 1.0
C      1  0.5510520000000  0.5087950000000  0.4461430000000 1.0
C      1  0.5674410000000  0.5140630000000  0.4941950000000 1.0
C      1  0.5417450000000  0.5180190000000  0.5554810000000 1.0
C      1  0.4858220000000  0.5077050000000  0.5735300000000 1.0
C      1  0.5144460000000  0.4469320000000  0.4707290000000 1.0
C      1  0.5222590000000  0.4563550000000  0.4971320000000 1.0
C      1  0.5057970000000  0.4585460000000  0.5219480000000 1.0
C      1  0.4788170000000  0.4482440000000  0.5247150000000 1.0
C      1  0.4653220000000  0.4347230000000  0.5047900000000 1.0
C      1  0.4659520000000  0.4358880000000  0.4777690000000 1.0
C      1  0.4905240000000  0.4336720000000  0.4664920000000 1.0
C      1  0.4819360000000  0.5021370000000  0.4553350000000 1.0
C      1  0.5246000000000  0.4995400000000  0.4574060000000 1.0
C      1  0.5389110000000  0.5015340000000  0.4884400000000 1.0
C      1  0.5381310000000  0.5084790000000  0.5265870000000 1.0
C      1  0.5013550000000  0.5030620000000  0.5469950000000 1.0
C      1  0.4656750000000  0.4975560000000  0.5360580000000 1.0
C      1  0.4550810000000  0.5047400000000  0.4938780000000 1.0
C      1  0.4965290000000  0.4645830000000  0.4328610000000 1.0
C      1  0.5543380000000  0.4667090000000  0.4593870000000 1.0
C      1  0.5690060000000  0.4726510000000  0.5096560000000 1.0
C      1  0.5340730000000  0.4693050000000  0.5636150000000 1.0
C      1  0.4832050000000  0.4643760000000  0.5657770000000 1.0
C      1  0.4367830000000  0.4671250000000  0.5212870000000 1.0
C      1  0.4411150000000  0.4722960000000  0.4611280000000 1.0
C      1  0.4978350000000  0.4846190000000  0.4131990000000 1.0
C      1  0.5690960000000  0.4872680000000  0.4470610000000 1.0
C      1  0.5857840000000  0.4944630000000  0.5036500000000 1.0
C      1  0.5465270000000  0.4939210000000  0.5706650000000 1.0
C      1  0.4779870000000  0.4834950000000  0.5855630000000 1.0
C      1  0.4195000000000  0.4881910000000  0.5285530000000 1.0
C      1  0.4293250000000  0.4964370000000  0.4534060000000 1.0
C      1  0.5352710000000  0.5420860000000  0.4710530000000 1.0
C      1  0.5353410000000  0.5441060000000  0.5000560000000 1.0
C      1  0.5041180000000  0.5469160000000  0.5422940000000 1.0
C      1  0.4748080000000  0.5464340000000  0.5460230000000 1.0
C      1  0.4625280000000  0.5482410000000  0.5187170000000 1.0
C      1  0.4841370000000  0.5437110000000  0.4702680000000 1.0
C      1  0.5103350000000  0.5413240000000  0.4567950000000 1.0
C      1  0.4602170000000  0.5343620000000  0.4563580000000 1.0
C      1  0.5130520000000  0.5271220000000  0.4322630000000 1.0
C      1  0.5582480000000  0.5344110000000  0.4560190000000 1.0
C      1  0.5603350000000  0.5358590000000  0.5118410000000 1.0
C      1  0.5196150000000  0.5339630000000  0.5626920000000 1.0
C      1  0.4656020000000  0.5249990000000  0.5634670000000 1.0
C      1  0.4389570000000  0.5315540000000  0.5159460000000 1.0
C      1  0.4724430000000  0.4718010000000  0.4528390000000 1.0
C      1  0.5231160000000  0.4658380000000  0.4492370000000 1.0
C      1  0.5469080000000  0.4721370000000  0.4891080000000 1.0
C      1  0.5532750000000  0.4819300000000  0.5330050000000 1.0
C      1  0.5081290000000  0.4726310000000  0.5493950000000 1.0
C      1  0.4617920000000  0.4658940000000  0.5416580000000 1.0
C      1  0.4474400000000  0.4736800000000  0.4923710000000 1.0
C      1  0.4849720000000  0.5461780000000  0.4994500000000 1.0
C      1  0.4856310000000  0.5031050000000  0.4880440000000 1.0
C      1  0.5099640000000  0.5470620000000  0.5137640000000 1.0
C      1  0.4818410000000  0.4708970000000  0.4873170000000 1.0
END
