TITL C-9260-5597-74 -1.05274588876808e-07 125000 -378.778637453914 0 0 60 (C5) n - 1
REM
REM in /home/bkarasulu/CARBON/AIRSS/Generating-Clusters/EDIP-Nigel-Params/Higher-Symm/Box-15A/Only-C60/SD-CG/HFTN-CG
REM
REM
REM
REM
REM
REM ./C.cell (414f73aa93bd7a1190c7fd0f31ff2f98)
REM
REM compiler GCC version 9.2.1 20190827 (Red Hat 9.2.1-1)
REM options -cpp -mtune=generic -march=x86-64 -g -O0 -fpre-include=/usr/include/finclude/math-vector-fortran.h
REM seed -723079508 822022755 -2091955026 1753982809 1475166336 1678793247 -570547874 1316842948 -289334102 436549757 1225956039 1447528859 -1257952672 -598960647 73717942 489570062 -1980927932 632291363 -659840545 -1092645475 502812114 -1063859367 -1050056672 952162493 489186918 428427316 1381438717 1513339450 872585252 -1958433375 1979362519 800654866 -1267399321
REM
CELL 1.54180   50.00000   50.00000   50.00000   90.00000   90.00000   90.00000
LATT -1
SFAC C  
C      1  0.5024330000000  0.4617080000000  0.4342630000000 1.0
C      1  0.5623840000000  0.4602070000000  0.4821590000000 1.0
C      1  0.5353480000000  0.4596320000000  0.5539860000000 1.0
C      1  0.4586880000000  0.4607770000000  0.5504820000000 1.0
C      1  0.4383450000000  0.4620600000000  0.4764890000000 1.0
C      1  0.4727800000000  0.5446660000000  0.4452540000000 1.0
C      1  0.5446450000000  0.5434790000000  0.4569950000000 1.0
C      1  0.5556730000000  0.5423570000000  0.5289730000000 1.0
C      1  0.4906250000000  0.5428500000000  0.5617170000000 1.0
C      1  0.4393940000000  0.5442770000000  0.5099760000000 1.0
C      1  0.5423140000000  0.5035330000000  0.5554130000000 1.0
C      1  0.4604790000000  0.5046790000000  0.5573550000000 1.0
C      1  0.4333570000000  0.5061020000000  0.4801250000000 1.0
C      1  0.4984310000000  0.5058360000000  0.4304520000000 1.0
C      1  0.5657690000000  0.5042470000000  0.4769820000000 1.0
C      1  0.5377370000000  0.4537480000000  0.5251610000000 1.0
C      1  0.4866980000000  0.4542290000000  0.5438680000000 1.0
C      1  0.4531440000000  0.4552820000000  0.5011120000000 1.0
C      1  0.4834450000000  0.4554530000000  0.4559790000000 1.0
C      1  0.5357260000000  0.4545050000000  0.4708420000000 1.0
C      1  0.5288140000000  0.4690340000000  0.4458230000000 1.0
C      1  0.5597160000000  0.4677200000000  0.5107890000000 1.0
C      1  0.5074730000000  0.4678060000000  0.5602660000000 1.0
C      1  0.4442840000000  0.4691720000000  0.5258790000000 1.0
C      1  0.4574730000000  0.4699310000000  0.4551490000000 1.0
C      1  0.5094620000000  0.5017270000000  0.4780240000000 1.0
C      1  0.5238580000000  0.5011970000000  0.5021970000000 1.0
C      1  0.5053140000000  0.5011790000000  0.5233630000000 1.0
C      1  0.4794580000000  0.5016980000000  0.5122710000000 1.0
C      1  0.4820210000000  0.5020370000000  0.4842500000000 1.0
C      1  0.5772630000000  0.4799030000000  0.4681990000000 1.0
C      1  0.5536670000000  0.4789610000000  0.5637350000000 1.0
C      1  0.4555200000000  0.4802720000000  0.5708320000000 1.0
C      1  0.4184590000000  0.4820250000000  0.4796830000000 1.0
C      1  0.4937010000000  0.4817970000000  0.4162520000000 1.0
C      1  0.4896420000000  0.4336740000000  0.4754130000000 1.0
C      1  0.5186720000000  0.4331580000000  0.4828380000000 1.0
C      1  0.5205760000000  0.4327300000000  0.5127440000000 1.0
C      1  0.4927220000000  0.4329810000000  0.5238010000000 1.0
C      1  0.4736040000000  0.4335640000000  0.5007290000000 1.0
C      1  0.4538200000000  0.4993250000000  0.5264760000000 1.0
C      1  0.4605360000000  0.5000630000000  0.4642700000000 1.0
C      1  0.5217700000000  0.4993580000000  0.4514230000000 1.0
C      1  0.5529000000000  0.4981840000000  0.5056900000000 1.0
C      1  0.5109040000000  0.4981650000000  0.5520750000000 1.0
C      1  0.5413260000000  0.5646770000000  0.5216680000000 1.0
C      1  0.4936400000000  0.5650370000000  0.5457180000000 1.0
C      1  0.4560400000000  0.5660840000000  0.5078010000000 1.0
C      1  0.4804890000000  0.5663700000000  0.4603170000000 1.0
C      1  0.5331990000000  0.5655000000000  0.4688870000000 1.0
C      1  0.4721570000000  0.5171670000000  0.4408830000000 1.0
C      1  0.5479860000000  0.5158890000000  0.4551700000000 1.0
C      1  0.5578160000000  0.5147230000000  0.5317070000000 1.0
C      1  0.4880630000000  0.5152800000000  0.5647210000000 1.0
C      1  0.4351220000000  0.5167900000000  0.5085890000000 1.0
C      1  0.4654300000000  0.5721950000000  0.4826350000000 1.0
C      1  0.5074560000000  0.5718770000000  0.4614400000000 1.0
C      1  0.5405930000000  0.5709540000000  0.4948560000000 1.0
C      1  0.5190460000000  0.5707020000000  0.5367040000000 1.0
C      1  0.4725930000000  0.5714690000000  0.5291510000000 1.0
END
