TITL C-9260-5597-8 -1.20108979401734e-06 125000 -362.012328252033 0 0 60 (C1) n - 1
REM
REM in /home/bkarasulu/CARBON/AIRSS/Generating-Clusters/EDIP-Nigel-Params/Higher-Symm/Box-15A/Only-C60/SD-CG/HFTN-CG
REM
REM
REM
REM
REM
REM ./C.cell (414f73aa93bd7a1190c7fd0f31ff2f98)
REM
REM compiler GCC version 9.2.1 20190827 (Red Hat 9.2.1-1)
REM options -cpp -mtune=generic -march=x86-64 -g -O0 -fpre-include=/usr/include/finclude/math-vector-fortran.h
REM seed -652751356 -681067181 -909247398 1163061988 -1634250743 -618373289 -142086381 -326105624 -990527954 1231437251 1456365808 -1629357403 1724204962 913244743 959376281 -827375786 -1637605844 -851121685 1210407357 2022843534 -40504421 -607969572 -875319122 -1026006259 -676216170 515047584 -2053423375 -1023978406 765598237 23237048 963171457 1179219931 1893878048
REM
CELL 1.54180   50.00000   50.00000   50.00000   90.00000   90.00000   90.00000
LATT -1
SFAC C  
C      1  0.5292970000000  0.4693370000000  0.4487100000000 1.0
C      1  0.5294300000000  0.4723410000000  0.5517030000000 1.0
C      1  0.5296000000000  0.5592210000000  0.4998320000000 1.0
C      1  0.5282760000000  0.5295830000000  0.4495980000000 1.0
C      1  0.5301920000000  0.5290140000000  0.5512690000000 1.0
C      1  0.5279600000000  0.4409920000000  0.4996720000000 1.0
C      1  0.4849470000000  0.5249140000000  0.4989250000000 1.0
C      1  0.4919120000000  0.4842560000000  0.4747910000000 1.0
C      1  0.4857340000000  0.4849740000000  0.5238160000000 1.0
C      1  0.4775190000000  0.4751320000000  0.4986400000000 1.0
C      1  0.4945870000000  0.5134190000000  0.4734980000000 1.0
C      1  0.4950410000000  0.5130760000000  0.5236030000000 1.0
C      1  0.5358540000000  0.4843130000000  0.4739400000000 1.0
C      1  0.5400030000000  0.4867840000000  0.5279300000000 1.0
C      1  0.5401020000000  0.5312180000000  0.5012690000000 1.0
C      1  0.5386500000000  0.5158410000000  0.4740370000000 1.0
C      1  0.5268570000000  0.5149150000000  0.5251910000000 1.0
C      1  0.5399730000000  0.4685430000000  0.4998390000000 1.0
C      1  0.5701320000000  0.5301250000000  0.5021010000000 1.0
C      1  0.5737290000000  0.4894830000000  0.4751640000000 1.0
C      1  0.5708610000000  0.4880850000000  0.5254750000000 1.0
C      1  0.5704700000000  0.4721750000000  0.4989840000000 1.0
C      1  0.5768470000000  0.5178990000000  0.4766720000000 1.0
C      1  0.5807170000000  0.5140790000000  0.5224120000000 1.0
C      1  0.5284670000000  0.5567970000000  0.5485660000000 1.0
C      1  0.5259030000000  0.5129520000000  0.4271850000000 1.0
C      1  0.5247020000000  0.4304400000000  0.5251320000000 1.0
C      1  0.5261360000000  0.4450950000000  0.5475260000000 1.0
C      1  0.5268140000000  0.4860540000000  0.4263880000000 1.0
C      1  0.5269370000000  0.5702570000000  0.5252880000000 1.0
C      1  0.4846900000000  0.4536960000000  0.4374780000000 1.0
C      1  0.4838330000000  0.4715860000000  0.5700570000000 1.0
C      1  0.4839390000000  0.5749390000000  0.4899840000000 1.0
C      1  0.4841940000000  0.5470400000000  0.4391160000000 1.0
C      1  0.4862840000000  0.5312780000000  0.5704260000000 1.0
C      1  0.4821050000000  0.4257320000000  0.4892920000000 1.0
C      1  0.4759000000000  0.5529200000000  0.5078960000000 1.0
C      1  0.4773280000000  0.4803000000000  0.4479870000000 1.0
C      1  0.4751500000000  0.4637050000000  0.5429820000000 1.0
C      1  0.4720640000000  0.4463000000000  0.5077990000000 1.0
C      1  0.4782360000000  0.5192380000000  0.4473820000000 1.0
C      1  0.4789220000000  0.5340460000000  0.5423570000000 1.0
C      1  0.5081670000000  0.5642120000000  0.4802780000000 1.0
C      1  0.5081290000000  0.4492680000000  0.4530670000000 1.0
C      1  0.5068270000000  0.4868600000000  0.5630110000000 1.0
C      1  0.5060670000000  0.4376380000000  0.4804900000000 1.0
C      1  0.5083310000000  0.5506420000000  0.4538450000000 1.0
C      1  0.5098070000000  0.5158920000000  0.5682110000000 1.0
C      1  0.4306200000000  0.5401260000000  0.4929510000000 1.0
C      1  0.4311740000000  0.4717470000000  0.4707590000000 1.0
C      1  0.4309230000000  0.4848720000000  0.5392630000000 1.0
C      1  0.4274450000000  0.4582010000000  0.4936070000000 1.0
C      1  0.4327100000000  0.5272410000000  0.4697010000000 1.0
C      1  0.4336930000000  0.5114180000000  0.5384870000000 1.0
C      1  0.4466860000000  0.4842260000000  0.4511320000000 1.0
C      1  0.4444900000000  0.4604180000000  0.5394230000000 1.0
C      1  0.4458830000000  0.5513920000000  0.5133490000000 1.0
C      1  0.4481050000000  0.5135770000000  0.4510350000000 1.0
C      1  0.4485380000000  0.5350110000000  0.5378830000000 1.0
C      1  0.4421150000000  0.4451590000000  0.5135970000000 1.0
END
