TITL C-9270-2362-260 -3.83699698435131e-07 125000 -372.748359381018 0 0 60 (C2) n - 1
REM
REM in /home/bkarasulu/CARBON/AIRSS/Generating-Clusters/EDIP-Nigel-Params/Higher-Symm/Box-15A/Only-C60/SD-CG/HFTN-CG
REM
REM
REM
REM
REM
REM ./C.cell (414f73aa93bd7a1190c7fd0f31ff2f98)
REM
REM compiler GCC version 9.2.1 20190827 (Red Hat 9.2.1-1)
REM options -cpp -mtune=generic -march=x86-64 -g -O0 -fpre-include=/usr/include/finclude/math-vector-fortran.h
REM seed 1490924507 1355434295 -1963061655 -1439363887 1921495232 415809220 -1963912282 -760406672 -122983504 -365741913 -15436833 200265869 870232973 1143646247 1872709521 -1745044937 -1743332392 1117695321 1115998124 283895180 -1209172179 -1303645725 -1294358107 -1786091567 1565293479 -2120110998 1377902256 1601171103 1339875659 1100485318 162929513 989054399 1365208575
REM
CELL 1.54180   50.00000   50.00000   50.00000   90.00000   90.00000   90.00000
LATT -1
SFAC C  
C      1  0.5618390000000  0.4578200000000  0.4847680000000 1.0
C      1  0.5331650000000  0.4598830000000  0.5540010000000 1.0
C      1  0.4587520000000  0.4639050000000  0.5485320000000 1.0
C      1  0.4408670000000  0.4660830000000  0.4758680000000 1.0
C      1  0.5043180000000  0.4620610000000  0.4358310000000 1.0
C      1  0.4381440000000  0.5423010000000  0.4851810000000 1.0
C      1  0.4668980000000  0.5396790000000  0.5543620000000 1.0
C      1  0.5413040000000  0.5357020000000  0.5487740000000 1.0
C      1  0.5591050000000  0.5341110000000  0.4760740000000 1.0
C      1  0.4956070000000  0.5384560000000  0.4361450000000 1.0
C      1  0.4903300000000  0.4328780000000  0.5236470000000 1.0
C      1  0.4727130000000  0.4342680000000  0.4996630000000 1.0
C      1  0.4899290000000  0.4330260000000  0.4753670000000 1.0
C      1  0.5184490000000  0.4302140000000  0.4845120000000 1.0
C      1  0.5185830000000  0.4310660000000  0.5144730000000 1.0
C      1  0.5096980000000  0.5669290000000  0.5241770000000 1.0
C      1  0.5272870000000  0.5657330000000  0.5001620000000 1.0
C      1  0.5100420000000  0.5671700000000  0.4758970000000 1.0
C      1  0.4815330000000  0.5699090000000  0.4850970000000 1.0
C      1  0.4814340000000  0.5688150000000  0.5150510000000 1.0
C      1  0.4272870000000  0.5176190000000  0.4780420000000 1.0
C      1  0.4981510000000  0.5135950000000  0.4239380000000 1.0
C      1  0.5716610000000  0.5093240000000  0.4759990000000 1.0
C      1  0.5445350000000  0.5111180000000  0.5612380000000 1.0
C      1  0.4563790000000  0.5151490000000  0.5619790000000 1.0
C      1  0.5726870000000  0.4825590000000  0.4778160000000 1.0
C      1  0.5017600000000  0.4870200000000  0.4238280000000 1.0
C      1  0.4283110000000  0.4908700000000  0.4760070000000 1.0
C      1  0.4555360000000  0.4883880000000  0.5611980000000 1.0
C      1  0.5436930000000  0.4843510000000  0.5618040000000 1.0
C      1  0.4417390000000  0.4601840000000  0.5264430000000 1.0
C      1  0.4564930000000  0.4607320000000  0.4531130000000 1.0
C      1  0.5304180000000  0.4550010000000  0.4440710000000 1.0
C      1  0.5622980000000  0.4525090000000  0.5125190000000 1.0
C      1  0.5069690000000  0.4553490000000  0.5632590000000 1.0
C      1  0.5582920000000  0.5396010000000  0.5266960000000 1.0
C      1  0.5434520000000  0.5396460000000  0.4533810000000 1.0
C      1  0.4695170000000  0.5454490000000  0.4444720000000 1.0
C      1  0.4377170000000  0.5473880000000  0.5129750000000 1.0
C      1  0.4931050000000  0.5441390000000  0.5636260000000 1.0
C      1  0.5439740000000  0.5402580000000  0.5014660000000 1.0
C      1  0.5125700000000  0.5425500000000  0.5421330000000 1.0
C      1  0.4642550000000  0.5451260000000  0.5246930000000 1.0
C      1  0.4659170000000  0.5463910000000  0.4734640000000 1.0
C      1  0.5150380000000  0.5420010000000  0.4589150000000 1.0
C      1  0.4560280000000  0.4597320000000  0.5011920000000 1.0
C      1  0.4874790000000  0.4571110000000  0.5418020000000 1.0
C      1  0.5357740000000  0.4546760000000  0.5242860000000 1.0
C      1  0.5340510000000  0.4538250000000  0.4730510000000 1.0
C      1  0.4849140000000  0.4583320000000  0.4585950000000 1.0
C      1  0.5240260000000  0.5175400000000  0.5016110000000 1.0
C      1  0.5051680000000  0.5188360000000  0.5248880000000 1.0
C      1  0.4769180000000  0.5196680000000  0.5134920000000 1.0
C      1  0.4792960000000  0.5227500000000  0.4843010000000 1.0
C      1  0.5072020000000  0.5182540000000  0.4763100000000 1.0
C      1  0.4759760000000  0.4824480000000  0.5014980000000 1.0
C      1  0.4948610000000  0.4809630000000  0.5247410000000 1.0
C      1  0.5230980000000  0.4802240000000  0.5133060000000 1.0
C      1  0.5206850000000  0.4773770000000  0.4840940000000 1.0
C      1  0.4927700000000  0.4819380000000  0.4761710000000 1.0
END
