TITL C-9260-5597-195 -9.92015804972356e-08 125000 -357.873290535285 0 0 60 (C1) n - 1
REM
REM in /home/bkarasulu/CARBON/AIRSS/Generating-Clusters/EDIP-Nigel-Params/Higher-Symm/Box-15A/Only-C60/SD-CG/HFTN-CG
REM
REM
REM
REM
REM
REM ./C.cell (414f73aa93bd7a1190c7fd0f31ff2f98)
REM
REM compiler GCC version 9.2.1 20190827 (Red Hat 9.2.1-1)
REM options -cpp -mtune=generic -march=x86-64 -g -O0 -fpre-include=/usr/include/finclude/math-vector-fortran.h
REM seed 1238357885 -709921014 -1307699475 -2080703806 -1905017594 -1802291469 1087972323 -1367614579 -1649284914 1231138955 -829246972 2116537498 1720114825 -687001622 -2111744640 -640242270 415834076 -1966241488 -1620747595 699041794 -190963686 524094975 1200591904 1156545763 -549707349 1064486792 -526764102 1196854838 1469924861 72390726 -1302259166 1306033295 1826396908
REM
CELL 1.54180   50.00000   50.00000   50.00000   90.00000   90.00000   90.00000
LATT -1
SFAC C  
C      1  0.4369730000000  0.4856710000000  0.5052460000000 1.0
C      1  0.4984570000000  0.4382070000000  0.5054770000000 1.0
C      1  0.5607710000000  0.4809350000000  0.5068440000000 1.0
C      1  0.5293350000000  0.5505630000000  0.5030010000000 1.0
C      1  0.4610540000000  0.5490520000000  0.5117160000000 1.0
C      1  0.5419690000000  0.4860160000000  0.5465150000000 1.0
C      1  0.5252690000000  0.5296820000000  0.5412630000000 1.0
C      1  0.4746990000000  0.5308850000000  0.5497140000000 1.0
C      1  0.4616290000000  0.4833480000000  0.5651180000000 1.0
C      1  0.5079560000000  0.4538620000000  0.5599100000000 1.0
C      1  0.5509150000000  0.4373300000000  0.4885360000000 1.0
C      1  0.5630080000000  0.5341980000000  0.4794710000000 1.0
C      1  0.4876720000000  0.5751840000000  0.4852800000000 1.0
C      1  0.4134270000000  0.5263340000000  0.4912030000000 1.0
C      1  0.4548840000000  0.4395850000000  0.4829280000000 1.0
C      1  0.5419380000000  0.5008470000000  0.4435450000000 1.0
C      1  0.5173400000000  0.5393450000000  0.4310380000000 1.0
C      1  0.4746610000000  0.5296730000000  0.4423810000000 1.0
C      1  0.4915480000000  0.4845610000000  0.4304770000000 1.0
C      1  0.5300550000000  0.4561070000000  0.4497860000000 1.0
C      1  0.4259700000000  0.5135760000000  0.5135610000000 1.0
C      1  0.4700200000000  0.4475010000000  0.5050540000000 1.0
C      1  0.5477310000000  0.4529630000000  0.5115700000000 1.0
C      1  0.5531140000000  0.5337450000000  0.5066600000000 1.0
C      1  0.4840970000000  0.5685750000000  0.5125460000000 1.0
C      1  0.4607000000000  0.5401030000000  0.4831820000000 1.0
C      1  0.4409060000000  0.4811050000000  0.4760460000000 1.0
C      1  0.5050410000000  0.4324100000000  0.4783310000000 1.0
C      1  0.5674590000000  0.4842660000000  0.4785510000000 1.0
C      1  0.5308210000000  0.5554470000000  0.4748730000000 1.0
C      1  0.4729260000000  0.5012380000000  0.4437130000000 1.0
C      1  0.5005910000000  0.4628810000000  0.4465080000000 1.0
C      1  0.5407880000000  0.4809960000000  0.4644350000000 1.0
C      1  0.5226350000000  0.5193300000000  0.4509050000000 1.0
C      1  0.4936640000000  0.5510600000000  0.4408650000000 1.0
C      1  0.4832250000000  0.4929420000000  0.5805800000000 1.0
C      1  0.5084360000000  0.4760770000000  0.5793330000000 1.0
C      1  0.5311140000000  0.4946720000000  0.5726520000000 1.0
C      1  0.5196450000000  0.5224710000000  0.5690360000000 1.0
C      1  0.4896280000000  0.5215240000000  0.5737450000000 1.0
C      1  0.5319680000000  0.4331810000000  0.4681940000000 1.0
C      1  0.5766570000000  0.5105700000000  0.4736450000000 1.0
C      1  0.5046340000000  0.5647070000000  0.4653760000000 1.0
C      1  0.4339670000000  0.5350330000000  0.4756760000000 1.0
C      1  0.4375720000000  0.4541630000000  0.4681940000000 1.0
C      1  0.4800840000000  0.5121020000000  0.5269530000000 1.0
C      1  0.4730050000000  0.4842250000000  0.5382390000000 1.0
C      1  0.4984400000000  0.4691730000000  0.5365890000000 1.0
C      1  0.5204890000000  0.4854610000000  0.5240490000000 1.0
C      1  0.5102120000000  0.5139050000000  0.5197760000000 1.0
C      1  0.5105340000000  0.5175160000000  0.4812000000000 1.0
C      1  0.4787580000000  0.5156240000000  0.4888050000000 1.0
C      1  0.4699780000000  0.4911900000000  0.4715400000000 1.0
C      1  0.4939510000000  0.4695060000000  0.4755510000000 1.0
C      1  0.5180590000000  0.4872460000000  0.4857390000000 1.0
C      1  0.4572520000000  0.4697200000000  0.5194930000000 1.0
C      1  0.5220430000000  0.4416120000000  0.5258700000000 1.0
C      1  0.5582450000000  0.5081450000000  0.5210770000000 1.0
C      1  0.5098950000000  0.5594290000000  0.5230990000000 1.0
C      1  0.4421880000000  0.5332260000000  0.5293410000000 1.0
END
