TITL C-9268-6400-5 3.22010030633488e-07 125000 -374.532565536048 0 0 60 (C1) n - 1
REM
REM in /home/bkarasulu/CARBON/AIRSS/Generating-Clusters/EDIP-Nigel-Params/Higher-Symm/Box-15A/Only-C60/SD-CG/HFTN-CG
REM
REM
REM
REM
REM
REM ./C.cell (414f73aa93bd7a1190c7fd0f31ff2f98)
REM
REM compiler GCC version 9.2.1 20190827 (Red Hat 9.2.1-1)
REM options -cpp -mtune=generic -march=x86-64 -g -O0 -fpre-include=/usr/include/finclude/math-vector-fortran.h
REM seed -1190617667 1012114705 -56600206 -91392503 236339599 1501004658 -221050616 -1278660000 -228601712 -975051769 145183343 885377712 -133154928 1426381359 -831806541 -402896262 -357066371 -1316126088 1737560715 -1485685266 1525591033 -255923400 -562561196 1890603618 1553043826 1832196439 1889145554 -2087131938 -1832551258 -414664027 80772650 -720492095 -92736315
REM
CELL 1.54180   50.00000   50.00000   50.00000   90.00000   90.00000   90.00000
LATT -1
SFAC C  
C      1  0.5162340000000  0.4717030000000  0.6097590000000 1.0
C      1  0.5347810000000  0.4815740000000  0.5911240000000 1.0
C      1  0.5398390000000  0.5088060000000  0.5952540000000 1.0
C      1  0.5198360000000  0.5277450000000  0.5905640000000 1.0
C      1  0.4957240000000  0.5223890000000  0.6034660000000 1.0
C      1  0.4789590000000  0.5015690000000  0.5948390000000 1.0
C      1  0.4915010000000  0.4742180000000  0.5961960000000 1.0
C      1  0.4725440000000  0.4505770000000  0.4392170000000 1.0
C      1  0.5215100000000  0.4458090000000  0.4404880000000 1.0
C      1  0.5544830000000  0.4822550000000  0.4412750000000 1.0
C      1  0.5469970000000  0.5309700000000  0.4406710000000 1.0
C      1  0.5048240000000  0.5562980000000  0.4395690000000 1.0
C      1  0.4590440000000  0.5385360000000  0.4383520000000 1.0
C      1  0.4448680000000  0.4913350000000  0.4379630000000 1.0
C      1  0.4961750000000  0.4422010000000  0.4517060000000 1.0
C      1  0.5418770000000  0.4602420000000  0.4530520000000 1.0
C      1  0.5563450000000  0.5076120000000  0.4529090000000 1.0
C      1  0.5286790000000  0.5487900000000  0.4520200000000 1.0
C      1  0.4795400000000  0.5527410000000  0.4509730000000 1.0
C      1  0.4460690000000  0.5166410000000  0.4498820000000 1.0
C      1  0.4532180000000  0.4675980000000  0.4501640000000 1.0
C      1  0.4637590000000  0.5057770000000  0.5677920000000 1.0
C      1  0.4646080000000  0.4765380000000  0.5611270000000 1.0
C      1  0.4911430000000  0.4614750000000  0.5666680000000 1.0
C      1  0.5230300000000  0.4760570000000  0.5638730000000 1.0
C      1  0.5228210000000  0.5018800000000  0.5475230000000 1.0
C      1  0.5143330000000  0.5289510000000  0.5611740000000 1.0
C      1  0.4839740000000  0.5216070000000  0.5494950000000 1.0
C      1  0.4431320000000  0.5174790000000  0.4788510000000 1.0
C      1  0.4516620000000  0.4673790000000  0.4791440000000 1.0
C      1  0.4953250000000  0.4407310000000  0.4808010000000 1.0
C      1  0.5425420000000  0.4591190000000  0.4821560000000 1.0
C      1  0.5575500000000  0.5080650000000  0.4819720000000 1.0
C      1  0.5286100000000  0.5500660000000  0.4810350000000 1.0
C      1  0.4779560000000  0.5547460000000  0.4800260000000 1.0
C      1  0.4540940000000  0.5407000000000  0.5232990000000 1.0
C      1  0.4423630000000  0.4930240000000  0.5223070000000 1.0
C      1  0.4702710000000  0.4507830000000  0.5228290000000 1.0
C      1  0.5194700000000  0.4464730000000  0.5259350000000 1.0
C      1  0.5556630000000  0.4819790000000  0.5257920000000 1.0
C      1  0.5464300000000  0.5319710000000  0.5249940000000 1.0
C      1  0.5022190000000  0.5579470000000  0.5241950000000 1.0
C      1  0.4563680000000  0.5394170000000  0.4938440000000 1.0
C      1  0.4410390000000  0.4916490000000  0.4930040000000 1.0
C      1  0.4700050000000  0.4490320000000  0.4937190000000 1.0
C      1  0.5205850000000  0.4449760000000  0.4962320000000 1.0
C      1  0.5550440000000  0.4818840000000  0.4963020000000 1.0
C      1  0.5476140000000  0.5327250000000  0.4956650000000 1.0
C      1  0.5036380000000  0.5585210000000  0.4947230000000 1.0
C      1  0.5593030000000  0.5087310000000  0.5372880000000 1.0
C      1  0.5258700000000  0.5481290000000  0.5405170000000 1.0
C      1  0.4752190000000  0.5564250000000  0.5359240000000 1.0
C      1  0.4423350000000  0.5177620000000  0.5380210000000 1.0
C      1  0.4521830000000  0.4693900000000  0.5362040000000 1.0
C      1  0.4934220000000  0.4438350000000  0.5399300000000 1.0
C      1  0.5396860000000  0.4614320000000  0.5420180000000 1.0
C      1  0.5002630000000  0.4992650000000  0.4505480000000 1.0
C      1  0.4996850000000  0.4996300000000  0.4761730000000 1.0
C      1  0.4978350000000  0.5009270000000  0.5300760000000 1.0
C      1  0.4992820000000  0.5022840000000  0.5025910000000 1.0
END
