TITL C-9264-7143-74 -1.33761205636988e-06 125000 -364.919106698641 0 0 60 (C1) n - 1
REM
REM in /home/bkarasulu/CARBON/AIRSS/Generating-Clusters/EDIP-Nigel-Params/Higher-Symm/Box-15A/Only-C60/SD-CG/HFTN-CG
REM
REM
REM
REM
REM
REM ./C.cell (414f73aa93bd7a1190c7fd0f31ff2f98)
REM
REM compiler GCC version 9.2.1 20190827 (Red Hat 9.2.1-1)
REM options -cpp -mtune=generic -march=x86-64 -g -O0 -fpre-include=/usr/include/finclude/math-vector-fortran.h
REM seed -2089665471 -1998997509 1285029988 -2086236681 1080639517 -1782024289 140182313 -1758567870 -1510485087 -160066708 -1765169609 1558329686 -949011322 1038719695 -1413705307 -1838759895 1793508104 -27570000 -762089823 2018568517 765255147 850186710 1663904270 1708130565 977953916 -1714518860 -719609425 1832760059 -302974721 -66004055 -939043636 1519183062 1715068142
REM
CELL 1.54180   50.00000   50.00000   50.00000   90.00000   90.00000   90.00000
LATT -1
SFAC C  
C      1  0.4971130000000  0.5322850000000  0.4946030000000 1.0
C      1  0.4697430000000  0.4814690000000  0.4917090000000 1.0
C      1  0.5307620000000  0.4850120000000  0.4942230000000 1.0
C      1  0.5660360000000  0.5095420000000  0.5052420000000 1.0
C      1  0.4579750000000  0.5515320000000  0.5039310000000 1.0
C      1  0.4760140000000  0.4388620000000  0.5019840000000 1.0
C      1  0.5257310000000  0.5350580000000  0.5042490000000 1.0
C      1  0.4529680000000  0.5029170000000  0.5031500000000 1.0
C      1  0.5178260000000  0.4611770000000  0.5052370000000 1.0
C      1  0.5218460000000  0.4501690000000  0.4572830000000 1.0
C      1  0.5360270000000  0.5412270000000  0.4569980000000 1.0
C      1  0.4383800000000  0.5078970000000  0.4566610000000 1.0
C      1  0.5659280000000  0.4880370000000  0.5526810000000 1.0
C      1  0.4876270000000  0.5679910000000  0.5456190000000 1.0
C      1  0.4416220000000  0.4447410000000  0.5391980000000 1.0
C      1  0.5143620000000  0.4818930000000  0.5765140000000 1.0
C      1  0.5024730000000  0.5300380000000  0.5732530000000 1.0
C      1  0.4933530000000  0.5010270000000  0.5747200000000 1.0
C      1  0.5467790000000  0.5435110000000  0.4838820000000 1.0
C      1  0.4336760000000  0.5173370000000  0.4841100000000 1.0
C      1  0.5168900000000  0.4383810000000  0.4842670000000 1.0
C      1  0.4777030000000  0.5046050000000  0.4274790000000 1.0
C      1  0.5008370000000  0.4892400000000  0.4297330000000 1.0
C      1  0.5246160000000  0.5034000000000  0.4274900000000 1.0
C      1  0.4686910000000  0.5466440000000  0.4505450000000 1.0
C      1  0.4731200000000  0.4546860000000  0.4495530000000 1.0
C      1  0.5653720000000  0.5018900000000  0.4516170000000 1.0
C      1  0.4926430000000  0.4240150000000  0.4851240000000 1.0
C      1  0.5716160000000  0.5304520000000  0.4873930000000 1.0
C      1  0.4366020000000  0.5454940000000  0.4866890000000 1.0
C      1  0.4707300000000  0.5248400000000  0.5120440000000 1.0
C      1  0.4886770000000  0.4656010000000  0.5116090000000 1.0
C      1  0.5360030000000  0.5087350000000  0.5129950000000 1.0
C      1  0.4503440000000  0.4551870000000  0.4921300000000 1.0
C      1  0.5633960000000  0.4793220000000  0.4949190000000 1.0
C      1  0.4867150000000  0.5620250000000  0.4941450000000 1.0
C      1  0.5311310000000  0.4596590000000  0.5323250000000 1.0
C      1  0.5254310000000  0.5523170000000  0.5283260000000 1.0
C      1  0.4415500000000  0.4897860000000  0.5272760000000 1.0
C      1  0.5585520000000  0.4699600000000  0.5312430000000 1.0
C      1  0.5027140000000  0.5707220000000  0.5222590000000 1.0
C      1  0.4349680000000  0.4627030000000  0.5188140000000 1.0
C      1  0.5671930000000  0.4772150000000  0.4646770000000 1.0
C      1  0.4881460000000  0.5624280000000  0.4630830000000 1.0
C      1  0.4479590000000  0.4571080000000  0.4615940000000 1.0
C      1  0.4740730000000  0.5216150000000  0.5404420000000 1.0
C      1  0.4835460000000  0.4679110000000  0.5419840000000 1.0
C      1  0.5321860000000  0.5029680000000  0.5425510000000 1.0
C      1  0.4349110000000  0.4802580000000  0.4535870000000 1.0
C      1  0.5481230000000  0.4596990000000  0.4544780000000 1.0
C      1  0.5131620000000  0.5566470000000  0.4525220000000 1.0
C      1  0.4808980000000  0.5437460000000  0.5582750000000 1.0
C      1  0.4663530000000  0.4461930000000  0.5501880000000 1.0
C      1  0.5562050000000  0.5149440000000  0.5597940000000 1.0
C      1  0.5271860000000  0.5339350000000  0.5546010000000 1.0
C      1  0.4704590000000  0.4946660000000  0.5527150000000 1.0
C      1  0.5109110000000  0.4662160000000  0.5535060000000 1.0
C      1  0.4615770000000  0.5203830000000  0.4439180000000 1.0
C      1  0.4987460000000  0.4656140000000  0.4466970000000 1.0
C      1  0.5438280000000  0.5170660000000  0.4421650000000 1.0
END
