TITL C-9256-7861-313 -1.57051070144e-05 125000 -356.335591696018 0 0 60 (C1) n - 1
REM
REM in /home/bkarasulu/CARBON/AIRSS/Generating-Clusters/EDIP-Nigel-Params/Higher-Symm/Box-15A/Only-C60/SD-CG/HFTN-CG
REM
REM
REM
REM
REM
REM ./C.cell (414f73aa93bd7a1190c7fd0f31ff2f98)
REM
REM compiler GCC version 9.2.1 20190827 (Red Hat 9.2.1-1)
REM options -cpp -mtune=generic -march=x86-64 -g -O0 -fpre-include=/usr/include/finclude/math-vector-fortran.h
REM seed -945184295 2061157829 -798890121 -231416597 1743301503 215434991 -1441459036 -694261267 988172436 1255598005 -1499814597 -1476789228 -261373722 384907740 1723938316 -2066369799 109486147 1012215291 63808960 735390961 -1304997633 -1807407674 2043069551 -514779038 975868610 -1734108210 -1983746293 -1584045752 -844094964 -1099466321 1343164388 1522381301 -601616992
REM
CELL 1.54180   50.00000   50.00000   50.00000   90.00000   90.00000   90.00000
LATT -1
SFAC C  
C      1  0.4433650000000  0.4462960000000  0.5015350000000 1.0
C      1  0.4438050000000  0.5267750000000  0.5497470000000 1.0
C      1  0.4396470000000  0.5319490000000  0.4546130000000 1.0
C      1  0.4407790000000  0.5560830000000  0.5045830000000 1.0
C      1  0.4476790000000  0.4719940000000  0.5448450000000 1.0
C      1  0.4398790000000  0.4730750000000  0.4525990000000 1.0
C      1  0.5788120000000  0.4843670000000  0.4726730000000 1.0
C      1  0.5784920000000  0.4811110000000  0.5295500000000 1.0
C      1  0.5810160000000  0.5327870000000  0.5053530000000 1.0
C      1  0.5801940000000  0.5130630000000  0.4735210000000 1.0
C      1  0.5809900000000  0.5184000000000  0.5302920000000 1.0
C      1  0.5777140000000  0.4662000000000  0.5047970000000 1.0
C      1  0.5071820000000  0.5691220000000  0.5237360000000 1.0
C      1  0.5106960000000  0.4858570000000  0.4292730000000 1.0
C      1  0.5120360000000  0.4457020000000  0.5483100000000 1.0
C      1  0.5079490000000  0.4321530000000  0.5251230000000 1.0
C      1  0.5082590000000  0.5125850000000  0.4315370000000 1.0
C      1  0.5134950000000  0.5577060000000  0.5474730000000 1.0
C      1  0.4626610000000  0.5439330000000  0.4419980000000 1.0
C      1  0.4720010000000  0.4468290000000  0.5066960000000 1.0
C      1  0.4705460000000  0.5293380000000  0.5381030000000 1.0
C      1  0.4628580000000  0.4579180000000  0.4440200000000 1.0
C      1  0.4696550000000  0.5542580000000  0.5082320000000 1.0
C      1  0.4761380000000  0.4683990000000  0.5392640000000 1.0
C      1  0.5093670000000  0.5337100000000  0.4498960000000 1.0
C      1  0.5116190000000  0.4287430000000  0.4971300000000 1.0
C      1  0.5139730000000  0.5339170000000  0.5625830000000 1.0
C      1  0.5129080000000  0.4609170000000  0.4420760000000 1.0
C      1  0.5099780000000  0.5673880000000  0.4957170000000 1.0
C      1  0.5140740000000  0.4683150000000  0.5653700000000 1.0
C      1  0.4872920000000  0.5686980000000  0.4774400000000 1.0
C      1  0.4888540000000  0.4484140000000  0.4541960000000 1.0
C      1  0.4908580000000  0.4857510000000  0.5606280000000 1.0
C      1  0.4896140000000  0.4302160000000  0.4775870000000 1.0
C      1  0.4884400000000  0.5546430000000  0.4515290000000 1.0
C      1  0.4925920000000  0.5156570000000  0.5544750000000 1.0
C      1  0.4303800000000  0.5164430000000  0.4775680000000 1.0
C      1  0.4292710000000  0.4707800000000  0.5011300000000 1.0
C      1  0.4302620000000  0.5145670000000  0.5277900000000 1.0
C      1  0.4299940000000  0.4867050000000  0.4765150000000 1.0
C      1  0.4277240000000  0.5308450000000  0.5031420000000 1.0
C      1  0.4306050000000  0.4849290000000  0.5266180000000 1.0
C      1  0.5385530000000  0.4548490000000  0.4541280000000 1.0
C      1  0.5393530000000  0.4828910000000  0.5652500000000 1.0
C      1  0.5362590000000  0.5594640000000  0.4850690000000 1.0
C      1  0.5358160000000  0.5410660000000  0.4596560000000 1.0
C      1  0.5399640000000  0.5209720000000  0.5648220000000 1.0
C      1  0.5377210000000  0.4361560000000  0.4866860000000 1.0
C      1  0.5511600000000  0.4868860000000  0.5388970000000 1.0
C      1  0.5521610000000  0.5376060000000  0.5003810000000 1.0
C      1  0.5505030000000  0.4755610000000  0.4712070000000 1.0
C      1  0.5526640000000  0.5157780000000  0.5388630000000 1.0
C      1  0.5497830000000  0.4609650000000  0.4964910000000 1.0
C      1  0.5517220000000  0.5195970000000  0.4751130000000 1.0
C      1  0.4806420000000  0.5283480000000  0.4945940000000 1.0
C      1  0.4727460000000  0.4866040000000  0.4681540000000 1.0
C      1  0.4865250000000  0.4865090000000  0.5166520000000 1.0
C      1  0.4851320000000  0.4718310000000  0.4917350000000 1.0
C      1  0.4730500000000  0.5174130000000  0.4680500000000 1.0
C      1  0.4725860000000  0.5109630000000  0.5149900000000 1.0
END
