TITL C-9262-5533-378 -0.0438693853189884 125000 -363.203278096555 0 0 60 (C1) n - 1
REM
REM in /home/bkarasulu/CARBON/AIRSS/Generating-Clusters/EDIP-Nigel-Params/Higher-Symm/Box-15A/Only-C60/SD-CG/HFTN-CG
REM
REM
REM
REM
REM
REM ./C.cell (414f73aa93bd7a1190c7fd0f31ff2f98)
REM
REM compiler GCC version 9.2.1 20190827 (Red Hat 9.2.1-1)
REM options -cpp -mtune=generic -march=x86-64 -g -O0 -fpre-include=/usr/include/finclude/math-vector-fortran.h
REM seed -1124240581 1930304796 1140287917 390807285 -1655072641 -94279746 -1792622647 326087470 -199528766 2055425243 105841472 -813539662 -1988772512 117155899 1713318628 -1393501797 40802539 1574337063 114275488 1192463537 -37905103 579678708 -2136357550 -1454724836 364901552 -918091186 -852259556 -396306829 1183271302 1517823624 927577066 -1950450104 2083583806
REM
CELL 1.54180   50.00000   50.00000   50.00000   90.00000   90.00000   90.00000
LATT -1
SFAC C  
C      1  0.5221200000000  0.4917870000000  0.5645070000000 1.0
C      1  0.5204050000000  0.5592770000000  0.5341070000000 1.0
C      1  0.5189280000000  0.5665090000000  0.4880290000000 1.0
C      1  0.5109190000000  0.5372420000000  0.4483190000000 1.0
C      1  0.5178100000000  0.4722070000000  0.4375020000000 1.0
C      1  0.5260520000000  0.4429320000000  0.4764310000000 1.0
C      1  0.5316190000000  0.4481260000000  0.5407450000000 1.0
C      1  0.5208340000000  0.5091320000000  0.4490330000000 1.0
C      1  0.5381610000000  0.4607100000000  0.4555950000000 1.0
C      1  0.5404770000000  0.4460760000000  0.5030630000000 1.0
C      1  0.5420810000000  0.4721210000000  0.5533640000000 1.0
C      1  0.5312010000000  0.5195500000000  0.5574210000000 1.0
C      1  0.5365780000000  0.5629840000000  0.5114950000000 1.0
C      1  0.5312670000000  0.5525830000000  0.4644560000000 1.0
C      1  0.4923810000000  0.4836390000000  0.4445390000000 1.0
C      1  0.4981550000000  0.4470340000000  0.4777560000000 1.0
C      1  0.5086830000000  0.4487360000000  0.5245370000000 1.0
C      1  0.4945490000000  0.4869120000000  0.5608740000000 1.0
C      1  0.5096580000000  0.5353750000000  0.5444140000000 1.0
C      1  0.4928020000000  0.5575030000000  0.4948310000000 1.0
C      1  0.4841500000000  0.5383060000000  0.4575720000000 1.0
C      1  0.5845670000000  0.5122990000000  0.4457310000000 1.0
C      1  0.5832700000000  0.4882860000000  0.4605680000000 1.0
C      1  0.5885830000000  0.4734490000000  0.5058570000000 1.0
C      1  0.5880120000000  0.4855740000000  0.5325860000000 1.0
C      1  0.5841970000000  0.5232770000000  0.5376290000000 1.0
C      1  0.5832820000000  0.5388100000000  0.5129030000000 1.0
C      1  0.5803560000000  0.5322020000000  0.4653660000000 1.0
C      1  0.3641680000000  0.4495370000000  0.5299380000000 1.0
C      1  0.3847760000000  0.4766600000000  0.5468670000000 1.0
C      1  0.3925590000000  0.5218640000000  0.5311170000000 1.0
C      1  0.4088740000000  0.5452450000000  0.5060820000000 1.0
C      1  0.4435440000000  0.5180950000000  0.4747150000000 1.0
C      1  0.4142840000000  0.4783890000000  0.4558890000000 1.0
C      1  0.3786790000000  0.4494990000000  0.4794150000000 1.0
C      1  0.5518640000000  0.5328090000000  0.4758760000000 1.0
C      1  0.5393210000000  0.5064300000000  0.4713630000000 1.0
C      1  0.5552670000000  0.4815460000000  0.4704690000000 1.0
C      1  0.5587740000000  0.4704230000000  0.4985580000000 1.0
C      1  0.5579920000000  0.4877450000000  0.5339070000000 1.0
C      1  0.5540190000000  0.5164880000000  0.5372440000000 1.0
C      1  0.5538280000000  0.5392950000000  0.5055660000000 1.0
C      1  0.4733010000000  0.5193770000000  0.4768200000000 1.0
C      1  0.4866220000000  0.4923310000000  0.4713950000000 1.0
C      1  0.4858120000000  0.4695970000000  0.4889940000000 1.0
C      1  0.4944960000000  0.4719810000000  0.5159880000000 1.0
C      1  0.4838000000000  0.4925460000000  0.5346950000000 1.0
C      1  0.4935860000000  0.5194150000000  0.5256160000000 1.0
C      1  0.4819870000000  0.5326300000000  0.5024480000000 1.0
C      1  0.4019850000000  0.4950420000000  0.5335260000000 1.0
C      1  0.3835060000000  0.5341270000000  0.5078760000000 1.0
C      1  0.4279340000000  0.5356180000000  0.4889720000000 1.0
C      1  0.4313300000000  0.4981250000000  0.4603940000000 1.0
C      1  0.3954330000000  0.4611060000000  0.4625790000000 1.0
C      1  0.3675490000000  0.4456400000000  0.5031100000000 1.0
C      1  0.3577550000000  0.4742100000000  0.5409010000000 1.0
C      1  0.4289590000000  0.4920740000000  0.5376760000000 1.0
C      1  0.5965840000000  0.5275960000000  0.4894030000000 1.0
C      1  0.5994770000000  0.4903780000000  0.4848720000000 1.0
C      1  0.4553800000000  0.4918550000000  0.5353920000000 1.0
END
