TITL C-9270-2362-97 -3.86835672611311e-07 125000 -366.287011194224 0 0 60 (Ci) n - 1
REM
REM in /home/bkarasulu/CARBON/AIRSS/Generating-Clusters/EDIP-Nigel-Params/Higher-Symm/Box-15A/Only-C60/SD-CG/HFTN-CG
REM
REM
REM
REM
REM
REM ./C.cell (414f73aa93bd7a1190c7fd0f31ff2f98)
REM
REM compiler GCC version 9.2.1 20190827 (Red Hat 9.2.1-1)
REM options -cpp -mtune=generic -march=x86-64 -g -O0 -fpre-include=/usr/include/finclude/math-vector-fortran.h
REM seed -2096598029 1635402685 741052908 -1608403598 -589451372 -977334696 -1611740222 1689037415 -1110176764 2068288874 39539135 1569557547 1195049530 -520856601 -234547532 -262593136 -51262996 2069888054 -203717521 1972246075 2036089170 -797527826 -1756284006 -1308671111 -1027899143 128216972 -1138762985 -1495187365 1516239366 -1449585468 622324099 -614484153 -889249811
REM
CELL 1.54180   50.00000   50.00000   50.00000   90.00000   90.00000   90.00000
LATT -1
SFAC C  
C      1  0.5781470000000  0.5058840000000  0.4578770000000 1.0
C      1  0.4218530000000  0.4941160000000  0.5421230000000 1.0
C      1  0.5728940000000  0.5300760000000  0.4950860000000 1.0
C      1  0.4271060000000  0.4699240000000  0.5049140000000 1.0
C      1  0.4957580000000  0.4634540000000  0.5424910000000 1.0
C      1  0.5042420000000  0.5365460000000  0.4575090000000 1.0
C      1  0.5658440000000  0.5335670000000  0.4568030000000 1.0
C      1  0.4341560000000  0.4664330000000  0.5431970000000 1.0
C      1  0.4743000000000  0.4750970000000  0.4467890000000 1.0
C      1  0.5257000000000  0.5249030000000  0.5532110000000 1.0
C      1  0.5510390000000  0.4868610000000  0.4925670000000 1.0
C      1  0.4489610000000  0.5131390000000  0.5074330000000 1.0
C      1  0.5249600000000  0.4577420000000  0.4436430000000 1.0
C      1  0.4750400000000  0.5422580000000  0.5563570000000 1.0
C      1  0.4985310000000  0.5728790000000  0.4879620000000 1.0
C      1  0.5014690000000  0.4271210000000  0.5120380000000 1.0
C      1  0.4979410000000  0.5194630000000  0.4329380000000 1.0
C      1  0.5020590000000  0.4805370000000  0.5670620000000 1.0
C      1  0.4842670000000  0.5563130000000  0.4698440000000 1.0
C      1  0.5157330000000  0.4436870000000  0.5301560000000 1.0
C      1  0.5276170000000  0.5534110000000  0.4492920000000 1.0
C      1  0.4723830000000  0.4465890000000  0.5507080000000 1.0
C      1  0.5509070000000  0.4555750000000  0.4916720000000 1.0
C      1  0.4490930000000  0.5444250000000  0.5083280000000 1.0
C      1  0.5358950000000  0.4865170000000  0.4456470000000 1.0
C      1  0.4641050000000  0.5134830000000  0.5543530000000 1.0
C      1  0.5645710000000  0.4856900000000  0.4443050000000 1.0
C      1  0.4354290000000  0.5143100000000  0.5556950000000 1.0
C      1  0.5412090000000  0.4544000000000  0.5209950000000 1.0
C      1  0.4587910000000  0.5456000000000  0.4790050000000 1.0
C      1  0.5338820000000  0.4437880000000  0.4692290000000 1.0
C      1  0.4661180000000  0.5562120000000  0.5307710000000 1.0
C      1  0.4787000000000  0.4993760000000  0.4343650000000 1.0
C      1  0.5213000000000  0.5006240000000  0.5656350000000 1.0
C      1  0.4965050000000  0.4581930000000  0.4426290000000 1.0
C      1  0.5034950000000  0.5418070000000  0.5573710000000 1.0
C      1  0.4727930000000  0.5079410000000  0.5253430000000 1.0
C      1  0.5272070000000  0.4920590000000  0.4746570000000 1.0
C      1  0.5262530000000  0.5101540000000  0.4278060000000 1.0
C      1  0.4737470000000  0.4898460000000  0.5721940000000 1.0
C      1  0.4557330000000  0.4655970000000  0.5661150000000 1.0
C      1  0.5442670000000  0.5344030000000  0.4338850000000 1.0
C      1  0.4859140000000  0.4819280000000  0.5206270000000 1.0
C      1  0.5140860000000  0.5180720000000  0.4793730000000 1.0
C      1  0.4625220000000  0.4787790000000  0.4746790000000 1.0
C      1  0.5374780000000  0.5212210000000  0.5253210000000 1.0
C      1  0.4376910000000  0.4649160000000  0.4796720000000 1.0
C      1  0.5623090000000  0.5350840000000  0.5203280000000 1.0
C      1  0.5231510000000  0.5609000000000  0.4958950000000 1.0
C      1  0.4768490000000  0.4391000000000  0.5041050000000 1.0
C      1  0.5170410000000  0.5324700000000  0.5047860000000 1.0
C      1  0.4829590000000  0.4675300000000  0.4952140000000 1.0
C      1  0.5425140000000  0.4921290000000  0.5203800000000 1.0
C      1  0.4574860000000  0.5078710000000  0.4796200000000 1.0
C      1  0.4241670000000  0.4971790000000  0.5135220000000 1.0
C      1  0.5758330000000  0.5028210000000  0.4864780000000 1.0
C      1  0.4577840000000  0.4400910000000  0.5265100000000 1.0
C      1  0.5422160000000  0.5599090000000  0.4734900000000 1.0
C      1  0.4905790000000  0.5307760000000  0.5171280000000 1.0
C      1  0.5094210000000  0.4692240000000  0.4828720000000 1.0
END
