TITL C-9257-5531-278 -1.60932836904109e-07 125000 -358.634929715017 0 0 60 (C2) n - 1
REM
REM in /home/bkarasulu/CARBON/AIRSS/Generating-Clusters/EDIP-Nigel-Params/Higher-Symm/Box-15A/Only-C60/SD-CG/HFTN-CG
REM
REM
REM
REM
REM
REM ./C.cell (414f73aa93bd7a1190c7fd0f31ff2f98)
REM
REM compiler GCC version 9.2.1 20190827 (Red Hat 9.2.1-1)
REM options -cpp -mtune=generic -march=x86-64 -g -O0 -fpre-include=/usr/include/finclude/math-vector-fortran.h
REM seed 1983354484 1148784283 1105102489 -1336340477 430805647 -1243431920 -470230508 1950899173 600098985 1322732153 1385155407 -281071877 108301632 -932631241 -1978627565 -1494661581 2047176962 -1339241030 1560670708 279674761 1180084488 -195925179 -18216118 1813765726 -1068470104 -1248609726 5266952 1546120270 -43093426 -1244956828 2103200863 -298278846 221610421
REM
CELL 1.54180   50.00000   50.00000   50.00000   90.00000   90.00000   90.00000
LATT -1
SFAC C  
C      1  0.5154240000000  0.4835480000000  0.5200150000000 1.0
C      1  0.5300120000000  0.4890170000000  0.4961400000000 1.0
C      1  0.4845960000000  0.4835580000000  0.4799620000000 1.0
C      1  0.4700010000000  0.4889710000000  0.5038450000000 1.0
C      1  0.5064670000000  0.5104370000000  0.5269540000000 1.0
C      1  0.5206000000000  0.5136370000000  0.4839070000000 1.0
C      1  0.4935170000000  0.5104700000000  0.4730640000000 1.0
C      1  0.4793800000000  0.5135850000000  0.5161160000000 1.0
C      1  0.4607230000000  0.5212750000000  0.5372900000000 1.0
C      1  0.5353180000000  0.5296980000000  0.5441970000000 1.0
C      1  0.5392470000000  0.5213850000000  0.4627450000000 1.0
C      1  0.4646410000000  0.5297190000000  0.4558510000000 1.0
C      1  0.4506380000000  0.4733660000000  0.5454750000000 1.0
C      1  0.5314890000000  0.4729120000000  0.5424020000000 1.0
C      1  0.5493960000000  0.4735030000000  0.4544860000000 1.0
C      1  0.4685460000000  0.4729360000000  0.4575580000000 1.0
C      1  0.4406330000000  0.4892910000000  0.4988790000000 1.0
C      1  0.4916870000000  0.4686420000000  0.5730000000000 1.0
C      1  0.5593790000000  0.4893680000000  0.5011060000000 1.0
C      1  0.5083530000000  0.4687660000000  0.4269530000000 1.0
C      1  0.4315550000000  0.5173230000000  0.4920590000000 1.0
C      1  0.5051000000000  0.5102330000000  0.5585680000000 1.0
C      1  0.5684200000000  0.5174020000000  0.5079700000000 1.0
C      1  0.4948850000000  0.5103160000000  0.4414500000000 1.0
C      1  0.4680450000000  0.4425110000000  0.4602360000000 1.0
C      1  0.4571390000000  0.4471350000000  0.5340880000000 1.0
C      1  0.5320300000000  0.4424920000000  0.5396770000000 1.0
C      1  0.5429300000000  0.4472450000000  0.4658320000000 1.0
C      1  0.4677990000000  0.5576260000000  0.4636360000000 1.0
C      1  0.4583980000000  0.5513140000000  0.5361480000000 1.0
C      1  0.5321230000000  0.5576130000000  0.5364550000000 1.0
C      1  0.5415320000000  0.5514250000000  0.4639330000000 1.0
C      1  0.4925350000000  0.5683760000000  0.4577600000000 1.0
C      1  0.4487400000000  0.5614440000000  0.5122660000000 1.0
C      1  0.5073730000000  0.5683210000000  0.5423470000000 1.0
C      1  0.5511760000000  0.5615320000000  0.4878310000000 1.0
C      1  0.4942020000000  0.4301980000000  0.4588750000000 1.0
C      1  0.4493360000000  0.4396480000000  0.5073490000000 1.0
C      1  0.5058890000000  0.4301430000000  0.5410190000000 1.0
C      1  0.5507430000000  0.4397270000000  0.4925600000000 1.0
C      1  0.5162840000000  0.4398480000000  0.4738280000000 1.0
C      1  0.4662690000000  0.4305700000000  0.4864410000000 1.0
C      1  0.4837940000000  0.4397860000000  0.5260810000000 1.0
C      1  0.5338210000000  0.4305940000000  0.5134540000000 1.0
C      1  0.5188080000000  0.5644480000000  0.4548790000000 1.0
C      1  0.4546940000000  0.5656830000000  0.4865420000000 1.0
C      1  0.4811050000000  0.5643530000000  0.5452230000000 1.0
C      1  0.5452170000000  0.5657230000000  0.5135610000000 1.0
C      1  0.5603870000000  0.5153090000000  0.5362600000000 1.0
C      1  0.5254760000000  0.5114710000000  0.4372720000000 1.0
C      1  0.4395910000000  0.5152840000000  0.4637660000000 1.0
C      1  0.4745070000000  0.5113400000000  0.5627480000000 1.0
C      1  0.5583540000000  0.4861260000000  0.5395400000000 1.0
C      1  0.5321100000000  0.4831160000000  0.4330190000000 1.0
C      1  0.4416630000000  0.4861090000000  0.4604410000000 1.0
C      1  0.4679110000000  0.4829690000000  0.5669570000000 1.0
C      1  0.4359500000000  0.5036540000000  0.5283540000000 1.0
C      1  0.5150640000000  0.4828840000000  0.5662960000000 1.0
C      1  0.5640430000000  0.5037830000000  0.4716540000000 1.0
C      1  0.4849570000000  0.4829660000000  0.4336800000000 1.0
END
