TITL C-9270-2362-296 0.000150082633564697 125000 -356.563759365804 0 0 60 (C1) n - 1
REM
REM in /home/bkarasulu/CARBON/AIRSS/Generating-Clusters/EDIP-Nigel-Params/Higher-Symm/Box-15A/Only-C60/SD-CG/HFTN-CG
REM
REM
REM
REM
REM
REM ./C.cell (414f73aa93bd7a1190c7fd0f31ff2f98)
REM
REM compiler GCC version 9.2.1 20190827 (Red Hat 9.2.1-1)
REM options -cpp -mtune=generic -march=x86-64 -g -O0 -fpre-include=/usr/include/finclude/math-vector-fortran.h
REM seed -1268078214 -513007436 -74840894 -524035103 -1171831171 771176099 -2091210929 -540673137 1279427795 -2006461051 -1421661510 1901780790 -1713330120 915566821 1179666459 -1770461627 334089006 -528934483 -359597310 -593097603 -2145366474 -2064034647 1896206251 187534344 1841860629 306119837 -80243329 329019677 1571201380 -1575410708 -1642322424 -2035374660 2022239801
REM
CELL 1.54180   50.00000   50.00000   50.00000   90.00000   90.00000   90.00000
LATT -1
SFAC C  
C      1  0.5742160000000  0.5162540000000  0.5195020000000 1.0
C      1  0.5046070000000  0.5742010000000  0.5100710000000 1.0
C      1  0.5137930000000  0.5061080000000  0.5754430000000 1.0
C      1  0.4249900000000  0.5120290000000  0.4867440000000 1.0
C      1  0.5706660000000  0.4961270000000  0.4968450000000 1.0
C      1  0.4242440000000  0.4991660000000  0.5148130000000 1.0
C      1  0.4869810000000  0.5686510000000  0.4878990000000 1.0
C      1  0.5102800000000  0.4188980000000  0.4875310000000 1.0
C      1  0.4872550000000  0.4271180000000  0.5069600000000 1.0
C      1  0.4919770000000  0.5049470000000  0.4247560000000 1.0
C      1  0.5106510000000  0.4819310000000  0.4243490000000 1.0
C      1  0.4954570000000  0.4817830000000  0.5740130000000 1.0
C      1  0.5006690000000  0.4562530000000  0.4292780000000 1.0
C      1  0.4344880000000  0.4979470000000  0.4633500000000 1.0
C      1  0.4681360000000  0.4467280000000  0.4938120000000 1.0
C      1  0.5060650000000  0.4584360000000  0.5603500000000 1.0
C      1  0.5014530000000  0.5315900000000  0.5664290000000 1.0
C      1  0.5008380000000  0.5306620000000  0.4346770000000 1.0
C      1  0.5720650000000  0.5062500000000  0.5465760000000 1.0
C      1  0.4466720000000  0.5121950000000  0.5310840000000 1.0
C      1  0.5530410000000  0.5086190000000  0.4750890000000 1.0
C      1  0.5374420000000  0.4257440000000  0.4928110000000 1.0
C      1  0.4578250000000  0.5657210000000  0.4887030000000 1.0
C      1  0.5320820000000  0.5703470000000  0.5075940000000 1.0
C      1  0.5056350000000  0.5048920000000  0.4660530000000 1.0
C      1  0.4606170000000  0.5257510000000  0.5075860000000 1.0
C      1  0.5132090000000  0.4622150000000  0.4975010000000 1.0
C      1  0.4948280000000  0.5089120000000  0.5359690000000 1.0
C      1  0.5184620000000  0.4901000000000  0.5317820000000 1.0
C      1  0.4802890000000  0.4878400000000  0.4696880000000 1.0
C      1  0.5363130000000  0.5241260000000  0.4947180000000 1.0
C      1  0.4626950000000  0.4953410000000  0.4931630000000 1.0
C      1  0.5290070000000  0.4868620000000  0.5046840000000 1.0
C      1  0.4894510000000  0.4598960000000  0.4770640000000 1.0
C      1  0.5087270000000  0.5298640000000  0.4843920000000 1.0
C      1  0.4895680000000  0.5328260000000  0.5144120000000 1.0
C      1  0.5158100000000  0.4465400000000  0.5244840000000 1.0
C      1  0.5328400000000  0.4922040000000  0.4612220000000 1.0
C      1  0.4414340000000  0.5593400000000  0.5122580000000 1.0
C      1  0.4954980000000  0.4432550000000  0.4533720000000 1.0
C      1  0.5095020000000  0.5466090000000  0.4572650000000 1.0
C      1  0.4855660000000  0.5487990000000  0.5496770000000 1.0
C      1  0.4684590000000  0.4953630000000  0.5417440000000 1.0
C      1  0.5390800000000  0.4865060000000  0.5531800000000 1.0
C      1  0.4582330000000  0.4902570000000  0.4495040000000 1.0
C      1  0.5493180000000  0.5490310000000  0.5030530000000 1.0
C      1  0.4562790000000  0.4695940000000  0.5079170000000 1.0
C      1  0.5555320000000  0.4722680000000  0.5072770000000 1.0
C      1  0.4643470000000  0.4995320000000  0.4238530000000 1.0
C      1  0.4289160000000  0.4706750000000  0.5145130000000 1.0
C      1  0.5038880000000  0.4176270000000  0.4599890000000 1.0
C      1  0.5510060000000  0.5105050000000  0.5657260000000 1.0
C      1  0.4681650000000  0.4871120000000  0.5684840000000 1.0
C      1  0.5367430000000  0.4864850000000  0.4340020000000 1.0
C      1  0.5548030000000  0.4466330000000  0.4954470000000 1.0
C      1  0.4310970000000  0.5494930000000  0.4862920000000 1.0
C      1  0.5739830000000  0.5444530000000  0.5151270000000 1.0
C      1  0.4926130000000  0.4397730000000  0.5427350000000 1.0
C      1  0.4945080000000  0.5700020000000  0.5351520000000 1.0
C      1  0.4976880000000  0.5716170000000  0.4620350000000 1.0
END
