TITL C-9269-7444-62 -9.89150757301943e-06 125000 -353.929204760431 0 0 60 (C1) n - 1
REM
REM in /home/bkarasulu/CARBON/AIRSS/Generating-Clusters/EDIP-Nigel-Params/Higher-Symm/Box-15A/Only-C60/SD-CG/HFTN-CG
REM
REM
REM
REM
REM
REM ./C.cell (414f73aa93bd7a1190c7fd0f31ff2f98)
REM
REM compiler GCC version 9.2.1 20190827 (Red Hat 9.2.1-1)
REM options -cpp -mtune=generic -march=x86-64 -g -O0 -fpre-include=/usr/include/finclude/math-vector-fortran.h
REM seed 1350540587 1492716323 1774377776 -328195439 2087085331 661803043 -64929374 693660998 1084770224 -238011162 1814860683 -1614103770 805017304 -2006569929 239063277 -166757369 -269498507 1993277839 -101383790 -1179095554 1594430885 1164089815 -382115955 -1225722534 -1414458784 -1921832326 480001464 -597216585 -1944357284 1116473708 -1178873086 660384454 -2085002056
REM
CELL 1.54180   50.00000   50.00000   50.00000   90.00000   90.00000   90.00000
LATT -1
SFAC C  
C      1  0.4959990000000  0.5275270000000  0.4521290000000 1.0
C      1  0.5228590000000  0.4538500000000  0.4979320000000 1.0
C      1  0.4537840000000  0.4993500000000  0.5227670000000 1.0
C      1  0.4976170000000  0.4780240000000  0.5463750000000 1.0
C      1  0.5024490000000  0.5219570000000  0.5465870000000 1.0
C      1  0.5032490000000  0.4736900000000  0.4526580000000 1.0
C      1  0.5256750000000  0.5466730000000  0.5052850000000 1.0
C      1  0.4741760000000  0.4536550000000  0.5048800000000 1.0
C      1  0.4769870000000  0.5463810000000  0.4981940000000 1.0
C      1  0.4536650000000  0.5044420000000  0.4738010000000 1.0
C      1  0.5455630000000  0.4964200000000  0.4738010000000 1.0
C      1  0.5462660000000  0.5008810000000  0.5226970000000 1.0
C      1  0.4961000000000  0.4541120000000  0.5262770000000 1.0
C      1  0.5216630000000  0.4981210000000  0.4537120000000 1.0
C      1  0.4529950000000  0.5266430000000  0.4948360000000 1.0
C      1  0.4988370000000  0.5467830000000  0.4769000000000 1.0
C      1  0.5037010000000  0.5459850000000  0.5265790000000 1.0
C      1  0.5011060000000  0.4534980000000  0.4766780000000 1.0
C      1  0.5270170000000  0.5036870000000  0.5473860000000 1.0
C      1  0.4776620000000  0.5031460000000  0.4538700000000 1.0
C      1  0.4730750000000  0.4962770000000  0.5473730000000 1.0
C      1  0.4539560000000  0.4772850000000  0.5017700000000 1.0
C      1  0.5465610000000  0.4738530000000  0.4944950000000 1.0
C      1  0.5460000000000  0.5232290000000  0.5020410000000 1.0
C      1  0.4939170000000  0.5753950000000  0.5269400000000 1.0
C      1  0.5753270000000  0.5272460000000  0.4950950000000 1.0
C      1  0.5264560000000  0.4935050000000  0.5763110000000 1.0
C      1  0.4947160000000  0.4238800000000  0.4736180000000 1.0
C      1  0.5051210000000  0.5764310000000  0.4741090000000 1.0
C      1  0.5058400000000  0.4246910000000  0.5264760000000 1.0
C      1  0.5759590000000  0.4740500000000  0.5038830000000 1.0
C      1  0.4236920000000  0.5262160000000  0.5046800000000 1.0
C      1  0.4245390000000  0.4731270000000  0.4953110000000 1.0
C      1  0.5268250000000  0.5039180000000  0.4241740000000 1.0
C      1  0.4751750000000  0.4938890000000  0.4247810000000 1.0
C      1  0.4736150000000  0.5062010000000  0.5763810000000 1.0
C      1  0.4960990000000  0.5261740000000  0.5761180000000 1.0
C      1  0.5759500000000  0.4948460000000  0.5257970000000 1.0
C      1  0.5259450000000  0.5760720000000  0.4960040000000 1.0
C      1  0.4956510000000  0.4717920000000  0.4231620000000 1.0
C      1  0.5039690000000  0.4735390000000  0.5758660000000 1.0
C      1  0.5061170000000  0.5258170000000  0.4229970000000 1.0
C      1  0.5749400000000  0.5063320000000  0.4732110000000 1.0
C      1  0.4241410000000  0.5051780000000  0.5263590000000 1.0
C      1  0.4243620000000  0.4942700000000  0.4736640000000 1.0
C      1  0.5268100000000  0.4244400000000  0.5046660000000 1.0
C      1  0.4738360000000  0.4242310000000  0.4955040000000 1.0
C      1  0.4730020000000  0.5757160000000  0.5050990000000 1.0
C      1  0.5170950000000  0.4086690000000  0.4828740000000 1.0
C      1  0.4825460000000  0.4838280000000  0.5919260000000 1.0
C      1  0.4841550000000  0.5153050000000  0.4078680000000 1.0
C      1  0.5178430000000  0.4818580000000  0.4082010000000 1.0
C      1  0.4826990000000  0.5915770000000  0.4833750000000 1.0
C      1  0.5156940000000  0.5916670000000  0.5177820000000 1.0
C      1  0.5911010000000  0.5173850000000  0.5167980000000 1.0
C      1  0.5175290000000  0.5157320000000  0.5920690000000 1.0
C      1  0.4840250000000  0.4085290000000  0.5172290000000 1.0
C      1  0.5914130000000  0.4846190000000  0.4821600000000 1.0
C      1  0.4079120000000  0.5157870000000  0.4831220000000 1.0
C      1  0.4090260000000  0.4826190000000  0.5173650000000 1.0
END
