TITL C-9269-7444-269 2.47078111794115e-07 125000 -364.727752922491 0 0 60 (C1) n - 1
REM
REM in /home/bkarasulu/CARBON/AIRSS/Generating-Clusters/EDIP-Nigel-Params/Higher-Symm/Box-15A/Only-C60/SD-CG/HFTN-CG
REM
REM
REM
REM
REM
REM ./C.cell (414f73aa93bd7a1190c7fd0f31ff2f98)
REM
REM compiler GCC version 9.2.1 20190827 (Red Hat 9.2.1-1)
REM options -cpp -mtune=generic -march=x86-64 -g -O0 -fpre-include=/usr/include/finclude/math-vector-fortran.h
REM seed -1485187931 965816335 552481973 -78391665 2066837044 -1711576058 -1879908225 491125735 -883968796 497443950 -328566701 -1615965229 -1859589650 495016370 1260569529 321893223 237621255 1615021663 -830702420 967732396 -906577320 981220112 -1054278432 1513619179 712571937 -1875937133 1447990753 1941672414 -939656018 394614236 1249885751 -629683590 849790637
REM
CELL 1.54180   50.00000   50.00000   50.00000   90.00000   90.00000   90.00000
LATT -1
SFAC C  
C      1  0.4878170000000  0.4564010000000  0.4508990000000 1.0
C      1  0.5526440000000  0.4557390000000  0.5142750000000 1.0
C      1  0.4643390000000  0.4565210000000  0.5349330000000 1.0
C      1  0.4896390000000  0.4566770000000  0.5492630000000 1.0
C      1  0.5523810000000  0.4560710000000  0.4850700000000 1.0
C      1  0.4620970000000  0.4567960000000  0.4646250000000 1.0
C      1  0.4499220000000  0.5012430000000  0.4437540000000 1.0
C      1  0.5750100000000  0.5006770000000  0.4845920000000 1.0
C      1  0.4799240000000  0.5027730000000  0.5656950000000 1.0
C      1  0.4518130000000  0.5013630000000  0.5540870000000 1.0
C      1  0.5756110000000  0.5001740000000  0.5151790000000 1.0
C      1  0.4789920000000  0.5022980000000  0.4344620000000 1.0
C      1  0.4237590000000  0.5070040000000  0.4829750000000 1.0
C      1  0.5540430000000  0.5064810000000  0.4433250000000 1.0
C      1  0.5267320000000  0.5073190000000  0.5685160000000 1.0
C      1  0.4279480000000  0.5059890000000  0.5136280000000 1.0
C      1  0.5546340000000  0.5057770000000  0.5568540000000 1.0
C      1  0.5258420000000  0.5060870000000  0.4330510000000 1.0
C      1  0.5211020000000  0.5561940000000  0.4880730000000 1.0
C      1  0.4968310000000  0.5713960000000  0.5318410000000 1.0
C      1  0.4742890000000  0.5736580000000  0.4854970000000 1.0
C      1  0.5202530000000  0.5623310000000  0.5167520000000 1.0
C      1  0.4981470000000  0.5646050000000  0.4713480000000 1.0
C      1  0.4722440000000  0.5751630000000  0.5141640000000 1.0
C      1  0.5111910000000  0.4405660000000  0.5419790000000 1.0
C      1  0.4576050000000  0.4402790000000  0.4865010000000 1.0
C      1  0.5338780000000  0.4410760000000  0.4705490000000 1.0
C      1  0.5096000000000  0.4408450000000  0.4589480000000 1.0
C      1  0.4596150000000  0.4397780000000  0.5132640000000 1.0
C      1  0.5346600000000  0.4402790000000  0.5288900000000 1.0
C      1  0.4942380000000  0.5033980000000  0.5238630000000 1.0
C      1  0.4727320000000  0.5185610000000  0.4873870000000 1.0
C      1  0.5189950000000  0.5025190000000  0.4854650000000 1.0
C      1  0.4923960000000  0.5020650000000  0.4767750000000 1.0
C      1  0.4789620000000  0.5241940000000  0.5136800000000 1.0
C      1  0.5202420000000  0.5018200000000  0.5144710000000 1.0
C      1  0.5006790000000  0.5225290000000  0.4384170000000 1.0
C      1  0.5618920000000  0.5211930000000  0.5317850000000 1.0
C      1  0.4406410000000  0.5232130000000  0.5362850000000 1.0
C      1  0.5008180000000  0.5244670000000  0.5618480000000 1.0
C      1  0.5612030000000  0.5222470000000  0.4682900000000 1.0
C      1  0.4379920000000  0.5241160000000  0.4604920000000 1.0
C      1  0.5362030000000  0.5275100000000  0.5178760000000 1.0
C      1  0.4634370000000  0.5432020000000  0.5299040000000 1.0
C      1  0.4913830000000  0.5486780000000  0.4476940000000 1.0
C      1  0.5351330000000  0.5287470000000  0.4824160000000 1.0
C      1  0.4617810000000  0.5402740000000  0.4709550000000 1.0
C      1  0.4861720000000  0.5501000000000  0.5531850000000 1.0
C      1  0.5697510000000  0.4751270000000  0.4706800000000 1.0
C      1  0.4939330000000  0.4772840000000  0.5696960000000 1.0
C      1  0.4412330000000  0.4759620000000  0.4565080000000 1.0
C      1  0.5698960000000  0.4745850000000  0.5289620000000 1.0
C      1  0.4926240000000  0.4765740000000  0.4302590000000 1.0
C      1  0.4434650000000  0.4757130000000  0.5420810000000 1.0
C      1  0.5192980000000  0.4809030000000  0.4217990000000 1.0
C      1  0.5661200000000  0.4795430000000  0.5566700000000 1.0
C      1  0.4217520000000  0.4802790000000  0.5243900000000 1.0
C      1  0.5199010000000  0.4821120000000  0.5796830000000 1.0
C      1  0.5663080000000  0.4806000000000  0.4430630000000 1.0
C      1  0.4182600000000  0.4809240000000  0.4724310000000 1.0
END
