TITL C-9260-5597-114 4.24315255643054e-07 125000 -364.235356328316 0 0 60 (C1) n - 1
REM
REM in /home/bkarasulu/CARBON/AIRSS/Generating-Clusters/EDIP-Nigel-Params/Higher-Symm/Box-15A/Only-C60/SD-CG/HFTN-CG
REM
REM
REM
REM
REM
REM ./C.cell (414f73aa93bd7a1190c7fd0f31ff2f98)
REM
REM compiler GCC version 9.2.1 20190827 (Red Hat 9.2.1-1)
REM options -cpp -mtune=generic -march=x86-64 -g -O0 -fpre-include=/usr/include/finclude/math-vector-fortran.h
REM seed 1231257935 436774310 792105706 1401516605 -691666943 1657136602 -921566612 2092290201 1772105332 -2015094151 -278433998 -713687092 -717525230 -13469100 1732017451 775708636 -647596264 1488031357 -251692290 -975470486 47114753 125452754 -598854067 -716966907 769189675 1502353854 -2007518720 -1863873635 653420451 2059590068 -2025345135 596998065 -952655026
REM
CELL 1.54180   50.00000   50.00000   50.00000   90.00000   90.00000   90.00000
LATT -1
SFAC C  
C      1  0.4414900000000  0.4637880000000  0.4663100000000 1.0
C      1  0.4757670000000  0.4285500000000  0.4857850000000 1.0
C      1  0.5272790000000  0.5101120000000  0.5077570000000 1.0
C      1  0.5172610000000  0.4989140000000  0.4358850000000 1.0
C      1  0.5704250000000  0.5012770000000  0.5393760000000 1.0
C      1  0.5581900000000  0.5159090000000  0.4501150000000 1.0
C      1  0.5057880000000  0.5736450000000  0.5041180000000 1.0
C      1  0.5015780000000  0.5588550000000  0.5512970000000 1.0
C      1  0.5277210000000  0.5198970000000  0.5684370000000 1.0
C      1  0.4918690000000  0.5592260000000  0.5249720000000 1.0
C      1  0.4886200000000  0.5202340000000  0.4815740000000 1.0
C      1  0.5444230000000  0.5032910000000  0.4304510000000 1.0
C      1  0.5519980000000  0.5464390000000  0.4881410000000 1.0
C      1  0.4763720000000  0.5160120000000  0.5586000000000 1.0
C      1  0.4943370000000  0.5708740000000  0.4777630000000 1.0
C      1  0.4191820000000  0.5181530000000  0.4853780000000 1.0
C      1  0.4781570000000  0.4863980000000  0.5586990000000 1.0
C      1  0.5363950000000  0.4219590000000  0.5280250000000 1.0
C      1  0.4668660000000  0.5455770000000  0.5192160000000 1.0
C      1  0.5298840000000  0.4901570000000  0.5647310000000 1.0
C      1  0.5118480000000  0.4177710000000  0.5147920000000 1.0
C      1  0.4903700000000  0.4418990000000  0.4644890000000 1.0
C      1  0.5341670000000  0.4607660000000  0.4706370000000 1.0
C      1  0.5179530000000  0.4159580000000  0.4874110000000 1.0
C      1  0.5454890000000  0.5332940000000  0.5139160000000 1.0
C      1  0.4739710000000  0.5283500000000  0.4427760000000 1.0
C      1  0.4523800000000  0.4431930000000  0.4976390000000 1.0
C      1  0.4278300000000  0.4713820000000  0.4897870000000 1.0
C      1  0.5188280000000  0.4348030000000  0.4661470000000 1.0
C      1  0.5334700000000  0.4814970000000  0.5174220000000 1.0
C      1  0.5045920000000  0.4752550000000  0.5622150000000 1.0
C      1  0.4750380000000  0.5483090000000  0.4758790000000 1.0
C      1  0.5381130000000  0.5711760000000  0.4836010000000 1.0
C      1  0.4835350000000  0.4744620000000  0.4988900000000 1.0
C      1  0.4430560000000  0.4993660000000  0.5278310000000 1.0
C      1  0.4317160000000  0.4976160000000  0.5002150000000 1.0
C      1  0.5455820000000  0.4618100000000  0.4981080000000 1.0
C      1  0.4561140000000  0.5087760000000  0.4539170000000 1.0
C      1  0.4627260000000  0.4803290000000  0.4553060000000 1.0
C      1  0.5386660000000  0.5306050000000  0.4656270000000 1.0
C      1  0.5028630000000  0.5252600000000  0.4398050000000 1.0
C      1  0.5492510000000  0.4831350000000  0.5428080000000 1.0
C      1  0.5510990000000  0.5345660000000  0.5616070000000 1.0
C      1  0.5639530000000  0.5286590000000  0.5370090000000 1.0
C      1  0.4568880000000  0.5247720000000  0.5378060000000 1.0
C      1  0.4895140000000  0.4362370000000  0.5205350000000 1.0
C      1  0.4994730000000  0.5158110000000  0.5211090000000 1.0
C      1  0.4880930000000  0.4711480000000  0.4690480000000 1.0
C      1  0.5185340000000  0.5702130000000  0.4608160000000 1.0
C      1  0.4618710000000  0.4476900000000  0.5263500000000 1.0
C      1  0.5189540000000  0.5497510000000  0.4392280000000 1.0
C      1  0.5024190000000  0.5308030000000  0.5572410000000 1.0
C      1  0.4534620000000  0.5514540000000  0.4950840000000 1.0
C      1  0.5030910000000  0.4765030000000  0.5238560000000 1.0
C      1  0.4607640000000  0.4761850000000  0.5369550000000 1.0
C      1  0.5187550000000  0.5110940000000  0.4790850000000 1.0
C      1  0.5155560000000  0.4842750000000  0.4627320000000 1.0
C      1  0.5512070000000  0.4373520000000  0.5108140000000 1.0
C      1  0.4299530000000  0.5166100000000  0.4602780000000 1.0
C      1  0.4752530000000  0.5026010000000  0.5045980000000 1.0
END
