TITL C-9257-5531-206 -8.14790890559235e-06 125000 -359.015261232739 0 0 60 (C1) n - 1
REM
REM in /home/bkarasulu/CARBON/AIRSS/Generating-Clusters/EDIP-Nigel-Params/Higher-Symm/Box-15A/Only-C60/SD-CG/HFTN-CG
REM
REM
REM
REM
REM
REM ./C.cell (414f73aa93bd7a1190c7fd0f31ff2f98)
REM
REM compiler GCC version 9.2.1 20190827 (Red Hat 9.2.1-1)
REM options -cpp -mtune=generic -march=x86-64 -g -O0 -fpre-include=/usr/include/finclude/math-vector-fortran.h
REM seed -408514839 -90948081 -809969345 -1469042191 836255839 1312105099 482838367 -779690828 331498383 138472192 488062151 -1813191709 -1321865518 -1462498419 1954024896 -971960940 152679272 721041358 118592279 -114178867 424870348 -1771205763 -1809706206 2084901817 -868020761 711099026 715781342 -488960182 -1067135780 -1175359948 1022553260 1328037253 890377913
REM
CELL 1.54180   50.00000   50.00000   50.00000   90.00000   90.00000   90.00000
LATT -1
SFAC C  
C      1  0.5496050000000  0.5254820000000  0.4903150000000 1.0
C      1  0.4955370000000  0.4417050000000  0.4878510000000 1.0
C      1  0.4499780000000  0.5308580000000  0.4877270000000 1.0
C      1  0.5499640000000  0.4732150000000  0.5099780000000 1.0
C      1  0.4965770000000  0.5570040000000  0.5100540000000 1.0
C      1  0.4485710000000  0.4682850000000  0.5186030000000 1.0
C      1  0.4382960000000  0.5104320000000  0.4685580000000 1.0
C      1  0.5405920000000  0.5493810000000  0.4752560000000 1.0
C      1  0.5212790000000  0.4413440000000  0.4724410000000 1.0
C      1  0.4375410000000  0.4888660000000  0.5351980000000 1.0
C      1  0.5402050000000  0.4501300000000  0.5264160000000 1.0
C      1  0.5221350000000  0.5601000000000  0.5249820000000 1.0
C      1  0.4668400000000  0.4585850000000  0.5616520000000 1.0
C      1  0.4821150000000  0.5518280000000  0.5571400000000 1.0
C      1  0.5540220000000  0.4914200000000  0.5562510000000 1.0
C      1  0.4657860000000  0.5427660000000  0.4420440000000 1.0
C      1  0.4852650000000  0.4466210000000  0.4405170000000 1.0
C      1  0.5549630000000  0.5093620000000  0.4441820000000 1.0
C      1  0.5109540000000  0.5294880000000  0.4355460000000 1.0
C      1  0.5233900000000  0.4768560000000  0.4335650000000 1.0
C      1  0.4715450000000  0.4949040000000  0.4310380000000 1.0
C      1  0.5109960000000  0.4715320000000  0.5659160000000 1.0
C      1  0.5215390000000  0.5236080000000  0.5644950000000 1.0
C      1  0.4717950000000  0.5074050000000  0.5676210000000 1.0
C      1  0.4497200000000  0.4887550000000  0.4532920000000 1.0
C      1  0.5154910000000  0.5492860000000  0.4613150000000 1.0
C      1  0.5337260000000  0.4647320000000  0.4607730000000 1.0
C      1  0.4493710000000  0.5129420000000  0.5446600000000 1.0
C      1  0.5153370000000  0.4495100000000  0.5408090000000 1.0
C      1  0.5356670000000  0.5387160000000  0.5386800000000 1.0
C      1  0.5552680000000  0.5237790000000  0.5212060000000 1.0
C      1  0.4919270000000  0.4405690000000  0.5242010000000 1.0
C      1  0.4516760000000  0.5355350000000  0.5248150000000 1.0
C      1  0.5554280000000  0.4765730000000  0.4780290000000 1.0
C      1  0.4924160000000  0.5602060000000  0.4777480000000 1.0
C      1  0.4537920000000  0.4636680000000  0.4661990000000 1.0
C      1  0.5605550000000  0.4955370000000  0.5293170000000 1.0
C      1  0.4650740000000  0.4485340000000  0.5352090000000 1.0
C      1  0.4728030000000  0.5552250000000  0.5307070000000 1.0
C      1  0.5622020000000  0.5046790000000  0.4709540000000 1.0
C      1  0.4650380000000  0.5513820000000  0.4690100000000 1.0
C      1  0.4729880000000  0.4425290000000  0.4657830000000 1.0
C      1  0.4985570000000  0.5267160000000  0.5061430000000 1.0
C      1  0.5218750000000  0.4851860000000  0.5057590000000 1.0
C      1  0.4725540000000  0.4845450000000  0.5069410000000 1.0
C      1  0.4960770000000  0.4717830000000  0.4931060000000 1.0
C      1  0.5226190000000  0.5122930000000  0.4932930000000 1.0
C      1  0.4746500000000  0.5135310000000  0.4940330000000 1.0
C      1  0.5162770000000  0.5053450000000  0.4660940000000 1.0
C      1  0.4934970000000  0.4816000000000  0.4651900000000 1.0
C      1  0.4845790000000  0.5117120000000  0.4660970000000 1.0
C      1  0.5162770000000  0.4927620000000  0.5332470000000 1.0
C      1  0.4971830000000  0.5179650000000  0.5334790000000 1.0
C      1  0.4843680000000  0.4884510000000  0.5347020000000 1.0
C      1  0.4915820000000  0.5309990000000  0.5738250000000 1.0
C      1  0.5319950000000  0.4951330000000  0.5731790000000 1.0
C      1  0.4819410000000  0.4776210000000  0.5758420000000 1.0
C      1  0.4936290000000  0.4703430000000  0.4261340000000 1.0
C      1  0.5330340000000  0.5056000000000  0.4267490000000 1.0
C      1  0.4813380000000  0.5250790000000  0.4261330000000 1.0
END
