TITL C-9258-7861-286 1.5392098427256e-06 125000 -361.530495045191 0 0 60 (C5) n - 1
REM
REM in /home/bkarasulu/CARBON/AIRSS/Generating-Clusters/EDIP-Nigel-Params/Higher-Symm/Box-15A/Only-C60/SD-CG/HFTN-CG
REM
REM
REM
REM
REM
REM ./C.cell (414f73aa93bd7a1190c7fd0f31ff2f98)
REM
REM compiler GCC version 9.2.1 20190827 (Red Hat 9.2.1-1)
REM options -cpp -mtune=generic -march=x86-64 -g -O0 -fpre-include=/usr/include/finclude/math-vector-fortran.h
REM seed -232707660 632991223 -1755345030 1049985252 -1362700544 -1820768842 -1405916589 -677198091 -193348685 -758394959 381993766 32641917 1116567117 1827798682 1239097905 -1874743291 -1208585900 -1656841458 -826131690 -1332892326 719830265 -1403840649 161458027 -2085999604 730384554 2122207510 45114204 -1024812145 -1680586392 -479619252 -81114695 -312634156 -518955816
REM
CELL 1.54180   50.00000   50.00000   50.00000   90.00000   90.00000   90.00000
LATT -1
SFAC C  
C      1  0.4785850000000  0.5851570000000  0.5176820000000 1.0
C      1  0.4123950000000  0.5059400000000  0.5176940000000 1.0
C      1  0.4672810000000  0.4185100000000  0.5176600000000 1.0
C      1  0.5673930000000  0.4436920000000  0.5176270000000 1.0
C      1  0.5743790000000  0.5466860000000  0.5176400000000 1.0
C      1  0.5495670000000  0.5426920000000  0.4678190000000 1.0
C      1  0.4747110000000  0.5603490000000  0.4678500000000 1.0
C      1  0.4347870000000  0.4946130000000  0.4678540000000 1.0
C      1  0.4849680000000  0.4363290000000  0.4678260000000 1.0
C      1  0.5559060000000  0.4660430000000  0.4678050000000 1.0
C      1  0.5005450000000  0.4755410000000  0.5524450000000 1.0
C      1  0.5234350000000  0.4929360000000  0.5524390000000 1.0
C      1  0.5139660000000  0.5200810000000  0.5524470000000 1.0
C      1  0.4852230000000  0.5194630000000  0.5524580000000 1.0
C      1  0.4769280000000  0.4919360000000  0.5524560000000 1.0
C      1  0.4871440000000  0.4789090000000  0.4910430000000 1.0
C      1  0.5160850000000  0.4812600000000  0.4910330000000 1.0
C      1  0.5227920000000  0.5095110000000  0.4910350000000 1.0
C      1  0.4979970000000  0.5246200000000  0.4910470000000 1.0
C      1  0.4759650000000  0.5057070000000  0.4910520000000 1.0
C      1  0.4743050000000  0.4380560000000  0.5372580000000 1.0
C      1  0.5509760000000  0.4564030000000  0.5372330000000 1.0
C      1  0.5572200000000  0.5349920000000  0.5372430000000 1.0
C      1  0.4844070000000  0.5652150000000  0.5372750000000 1.0
C      1  0.4331620000000  0.5053050000000  0.5372850000000 1.0
C      1  0.5407030000000  0.4322120000000  0.4772840000000 1.0
C      1  0.5770450000000  0.5177740000000  0.4772840000000 1.0
C      1  0.5069020000000  0.5787780000000  0.4773200000000 1.0
C      1  0.4272090000000  0.5309180000000  0.4773420000000 1.0
C      1  0.4480990000000  0.4403360000000  0.4773200000000 1.0
C      1  0.4368670000000  0.4664080000000  0.4707160000000 1.0
C      1  0.5124350000000  0.4295900000000  0.4706820000000 1.0
C      1  0.5708040000000  0.4900820000000  0.4706700000000 1.0
C      1  0.5313090000000  0.5642870000000  0.4706970000000 1.0
C      1  0.4485310000000  0.5496560000000  0.4707250000000 1.0
C      1  0.5382480000000  0.5153630000000  0.4662140000000 1.0
C      1  0.4972040000000  0.5411390000000  0.4662330000000 1.0
C      1  0.4600070000000  0.5100690000000  0.4662420000000 1.0
C      1  0.4780610000000  0.4650920000000  0.4662290000000 1.0
C      1  0.5264170000000  0.4683630000000  0.4662110000000 1.0
C      1  0.5045500000000  0.5869750000000  0.5052050000000 1.0
C      1  0.4186880000000  0.5312020000000  0.5052280000000 1.0
C      1  0.4451990000000  0.4323070000000  0.5052020000000 1.0
C      1  0.5474460000000  0.4269610000000  0.5051630000000 1.0
C      1  0.5841270000000  0.5225510000000  0.5051650000000 1.0
C      1  0.5008370000000  0.4501860000000  0.5394900000000 1.0
C      1  0.5476390000000  0.4853840000000  0.5394780000000 1.0
C      1  0.5286260000000  0.5407730000000  0.5394940000000 1.0
C      1  0.4700730000000  0.5398060000000  0.5395160000000 1.0
C      1  0.4528990000000  0.4838200000000  0.5395130000000 1.0
C      1  0.4501490000000  0.4553240000000  0.5347240000000 1.0
C      1  0.5270880000000  0.4387670000000  0.5346930000000 1.0
C      1  0.5666110000000  0.5068240000000  0.5346890000000 1.0
C      1  0.5140970000000  0.5654430000000  0.5347180000000 1.0
C      1  0.4421200000000  0.5336140000000  0.5347400000000 1.0
C      1  0.4979980000000  0.5251810000000  0.4401270000000 1.0
C      1  0.4754260000000  0.5059050000000  0.4401320000000 1.0
C      1  0.4867840000000  0.4784810000000  0.4401230000000 1.0
C      1  0.5163750000000  0.4808090000000  0.4401130000000 1.0
C      1  0.5233060000000  0.5096710000000  0.4401150000000 1.0
END
