TITL C-9266-5713-216 -7.68356134259379e-06 125000 -358.069601360743 0 0 60 (C1) n - 1
REM
REM in /home/bkarasulu/CARBON/AIRSS/Generating-Clusters/EDIP-Nigel-Params/Higher-Symm/Box-15A/Only-C60/SD-CG/HFTN-CG
REM
REM
REM
REM
REM
REM ./C.cell (414f73aa93bd7a1190c7fd0f31ff2f98)
REM
REM compiler GCC version 9.2.1 20190827 (Red Hat 9.2.1-1)
REM options -cpp -mtune=generic -march=x86-64 -g -O0 -fpre-include=/usr/include/finclude/math-vector-fortran.h
REM seed 1619366699 -1513394729 128910201 -1080475127 1814399593 375460584 1231306325 2080600226 -1497037227 483451290 -883686010 -1195332977 275312918 -746736355 -1812437690 1872845533 -316280773 -74434412 939312844 798881041 151416147 -1036277852 -184727985 -779164641 -1044922997 1255181416 -1035276499 1604937638 1889938279 -1946781816 -1176649164 -2058231330 1839058787
REM
CELL 1.54180   50.00000   50.00000   50.00000   90.00000   90.00000   90.00000
LATT -1
SFAC C  
C      1  0.5495060000000  0.5124740000000  0.5636920000000 1.0
C      1  0.5095170000000  0.5474060000000  0.4509510000000 1.0
C      1  0.4351900000000  0.4804450000000  0.5136810000000 1.0
C      1  0.4724700000000  0.5510070000000  0.5442850000000 1.0
C      1  0.4447710000000  0.5390760000000  0.4893060000000 1.0
C      1  0.5367080000000  0.4545390000000  0.4521820000000 1.0
C      1  0.4380560000000  0.4735390000000  0.5408480000000 1.0
C      1  0.4827720000000  0.4360460000000  0.4978920000000 1.0
C      1  0.4955670000000  0.4289420000000  0.4734680000000 1.0
C      1  0.5564870000000  0.4674390000000  0.5173530000000 1.0
C      1  0.5444190000000  0.4814380000000  0.4425670000000 1.0
C      1  0.5662280000000  0.4953590000000  0.4572130000000 1.0
C      1  0.5576560000000  0.5322480000000  0.4656650000000 1.0
C      1  0.5334310000000  0.5500920000000  0.5375760000000 1.0
C      1  0.5674940000000  0.5162330000000  0.5135390000000 1.0
C      1  0.4784540000000  0.4982890000000  0.4770610000000 1.0
C      1  0.5364330000000  0.4827070000000  0.5298000000000 1.0
C      1  0.5078520000000  0.4944800000000  0.4774410000000 1.0
C      1  0.4722250000000  0.5515650000000  0.4918260000000 1.0
C      1  0.4520760000000  0.5158720000000  0.5619370000000 1.0
C      1  0.5516850000000  0.5133320000000  0.4877670000000 1.0
C      1  0.4717330000000  0.5226910000000  0.4585990000000 1.0
C      1  0.5760610000000  0.4776570000000  0.4791860000000 1.0
C      1  0.4899790000000  0.4860010000000  0.5225250000000 1.0
C      1  0.4355230000000  0.4585950000000  0.4937800000000 1.0
C      1  0.5357380000000  0.5507010000000  0.4680780000000 1.0
C      1  0.4551310000000  0.4391930000000  0.4986800000000 1.0
C      1  0.4812070000000  0.5165760000000  0.4217780000000 1.0
C      1  0.5108740000000  0.4463630000000  0.5366510000000 1.0
C      1  0.4788870000000  0.5302420000000  0.5659580000000 1.0
C      1  0.5155190000000  0.4676630000000  0.4872980000000 1.0
C      1  0.5252610000000  0.5016790000000  0.5746250000000 1.0
C      1  0.5030850000000  0.4606690000000  0.5601420000000 1.0
C      1  0.4842480000000  0.5580730000000  0.4653470000000 1.0
C      1  0.5151000000000  0.5570570000000  0.5151470000000 1.0
C      1  0.4645600000000  0.4928510000000  0.4267940000000 1.0
C      1  0.4399080000000  0.4992780000000  0.4442130000000 1.0
C      1  0.4390710000000  0.4684960000000  0.4670370000000 1.0
C      1  0.4856300000000  0.5563400000000  0.5182400000000 1.0
C      1  0.4798710000000  0.4702510000000  0.4393550000000 1.0
C      1  0.5261240000000  0.5596800000000  0.5614090000000 1.0
C      1  0.4561830000000  0.4863120000000  0.5580610000000 1.0
C      1  0.4681070000000  0.4997260000000  0.5057880000000 1.0
C      1  0.5527280000000  0.4591020000000  0.4872410000000 1.0
C      1  0.4997010000000  0.5092650000000  0.5607200000000 1.0
C      1  0.4420380000000  0.5185030000000  0.5112590000000 1.0
C      1  0.5785810000000  0.4869470000000  0.5097680000000 1.0
C      1  0.4410100000000  0.5264880000000  0.4599320000000 1.0
C      1  0.4986070000000  0.4574240000000  0.5121680000000 1.0
C      1  0.5153300000000  0.5411550000000  0.4892590000000 1.0
C      1  0.4679160000000  0.4725090000000  0.4658760000000 1.0
C      1  0.5162680000000  0.5005880000000  0.5206790000000 1.0
C      1  0.4417710000000  0.5308730000000  0.5383210000000 1.0
C      1  0.5236490000000  0.4992630000000  0.4365170000000 1.0
C      1  0.4856570000000  0.4842380000000  0.5521900000000 1.0
C      1  0.5237410000000  0.4732120000000  0.5750530000000 1.0
C      1  0.5494220000000  0.5245690000000  0.5375360000000 1.0
C      1  0.5070950000000  0.4527360000000  0.4614030000000 1.0
C      1  0.5074280000000  0.5219550000000  0.4329950000000 1.0
C      1  0.5222610000000  0.5125540000000  0.4943410000000 1.0
END
