TITL C-9257-5531-251 -8.32594311985837e-07 125000 -355.856575069199 0 0 60 (Cs) n - 1
REM
REM in /home/bkarasulu/CARBON/AIRSS/Generating-Clusters/EDIP-Nigel-Params/Higher-Symm/Box-15A/Only-C60/SD-CG/HFTN-CG
REM
REM
REM
REM
REM
REM ./C.cell (414f73aa93bd7a1190c7fd0f31ff2f98)
REM
REM compiler GCC version 9.2.1 20190827 (Red Hat 9.2.1-1)
REM options -cpp -mtune=generic -march=x86-64 -g -O0 -fpre-include=/usr/include/finclude/math-vector-fortran.h
REM seed -1910447077 1745063625 -731524716 195685940 1095100696 -542675295 -536698508 -1626497343 1921254613 274708941 1608498348 1419130749 1403497783 -1448180503 1322044817 -1996594594 2016355480 505816401 549028505 -1347548193 -1427942507 -1830090596 1916991110 -547919011 941115041 1943976576 -343389144 -864676729 -2051757811 -2063757542 -1188881006 1682884551 -2017240224
REM
CELL 1.54180   50.00000   50.00000   50.00000   90.00000   90.00000   90.00000
LATT -1
SFAC C  
C      1  0.4540260000000  0.4408920000000  0.5143620000000 1.0
C      1  0.5460340000000  0.5543860000000  0.5143600000000 1.0
C      1  0.4540250000000  0.4408920000000  0.4856380000000 1.0
C      1  0.5460340000000  0.5543860000000  0.4856400000000 1.0
C      1  0.4542240000000  0.5591330000000  0.5143620000000 1.0
C      1  0.5458020000000  0.4455590000000  0.5143590000000 1.0
C      1  0.4542240000000  0.5591330000000  0.4856390000000 1.0
C      1  0.5458020000000  0.4455590000000  0.4856410000000 1.0
C      1  0.5568590000000  0.5145770000000  0.4335040000000 1.0
C      1  0.4432680000000  0.4855990000000  0.4333470000000 1.0
C      1  0.5568590000000  0.5145770000000  0.5664960000000 1.0
C      1  0.4432680000000  0.4855980000000  0.5666530000000 1.0
C      1  0.5557600000000  0.4872280000000  0.4337540000000 1.0
C      1  0.4442370000000  0.5129840000000  0.4332470000000 1.0
C      1  0.5557600000000  0.4872270000000  0.5662450000000 1.0
C      1  0.4442370000000  0.5129840000000  0.5667530000000 1.0
C      1  0.5297540000000  0.4764070000000  0.5683090000000 1.0
C      1  0.4703830000000  0.5235300000000  0.5674190000000 1.0
C      1  0.5297540000000  0.4764070000000  0.4316910000000 1.0
C      1  0.4703830000000  0.5235310000000  0.4325820000000 1.0
C      1  0.5299940000000  0.5234020000000  0.5682300000000 1.0
C      1  0.4700230000000  0.4766120000000  0.5672900000000 1.0
C      1  0.5299940000000  0.5234020000000  0.4317700000000 1.0
C      1  0.4700230000000  0.4766130000000  0.4327100000000 1.0
C      1  0.5153630000000  0.5673710000000  0.5435870000000 1.0
C      1  0.4854190000000  0.4304930000000  0.5438910000000 1.0
C      1  0.5153630000000  0.5673720000000  0.4564130000000 1.0
C      1  0.4854190000000  0.4304930000000  0.4561090000000 1.0
C      1  0.5151250000000  0.4325850000000  0.5435870000000 1.0
C      1  0.4856630000000  0.5694680000000  0.5438710000000 1.0
C      1  0.5151250000000  0.4325850000000  0.4564120000000 1.0
C      1  0.4856620000000  0.5694690000000  0.4561300000000 1.0
C      1  0.4660010000000  0.4675600000000  0.4813480000000 1.0
C      1  0.5319900000000  0.5288140000000  0.4812880000000 1.0
C      1  0.4660010000000  0.4675600000000  0.5186520000000 1.0
C      1  0.5319900000000  0.5288140000000  0.5187120000000 1.0
C      1  0.4661090000000  0.5324280000000  0.4813420000000 1.0
C      1  0.5318030000000  0.4711490000000  0.4812800000000 1.0
C      1  0.4661090000000  0.5324280000000  0.5186580000000 1.0
C      1  0.5318030000000  0.4711490000000  0.5187190000000 1.0
C      1  0.5282750000000  0.4229220000000  0.4806010000000 1.0
C      1  0.4736310000000  0.5801470000000  0.4805790000000 1.0
C      1  0.5282750000000  0.4229220000000  0.5193980000000 1.0
C      1  0.4736310000000  0.5801470000000  0.5194220000000 1.0
C      1  0.5285250000000  0.5770370000000  0.4806010000000 1.0
C      1  0.4733850000000  0.4198370000000  0.4805780000000 1.0
C      1  0.5285250000000  0.5770370000000  0.5193990000000 1.0
C      1  0.4733850000000  0.4198370000000  0.5194220000000 1.0
C      1  0.5173640000000  0.5364300000000  0.5436900000000 1.0
C      1  0.4814090000000  0.4615790000000  0.5436260000000 1.0
C      1  0.5173630000000  0.5364310000000  0.4563110000000 1.0
C      1  0.4814090000000  0.4615790000000  0.4563740000000 1.0
C      1  0.5171620000000  0.4635250000000  0.5437120000000 1.0
C      1  0.4816080000000  0.5384140000000  0.5436080000000 1.0
C      1  0.5171620000000  0.4635250000000  0.4562870000000 1.0
C      1  0.4816080000000  0.5384140000000  0.4563920000000 1.0
C      1  0.4868540000000  0.4999850000000  0.4342450000000 1.0
C      1  0.5139510000000  0.4999450000000  0.4244500000000 1.0
C      1  0.4868540000000  0.4999840000000  0.5657550000000 1.0
C      1  0.5139510000000  0.4999450000000  0.5755500000000 1.0
END
