TITL C-9258-7861-297 -0.000520411377351993 125000 -357.637943183251 0 0 60 (C1) n - 1
REM
REM in /home/bkarasulu/CARBON/AIRSS/Generating-Clusters/EDIP-Nigel-Params/Higher-Symm/Box-15A/Only-C60/SD-CG/HFTN-CG
REM
REM
REM
REM
REM
REM ./C.cell (414f73aa93bd7a1190c7fd0f31ff2f98)
REM
REM compiler GCC version 9.2.1 20190827 (Red Hat 9.2.1-1)
REM options -cpp -mtune=generic -march=x86-64 -g -O0 -fpre-include=/usr/include/finclude/math-vector-fortran.h
REM seed -1112233944 -505724517 -649518940 1627757531 -1006577489 -53515576 -176681812 -9482436 -2044288952 83049015 -316149025 -1162782619 1355155721 989567158 1020569559 -266161573 1684861065 675972760 1005595065 -472963548 -351629019 -605642575 1775635524 -1282535123 -2063511471 -151922960 935145928 -268036519 -1625872512 1111555378 -1961755391 -2012022299 956253696
REM
CELL 1.54180   50.00000   50.00000   50.00000   90.00000   90.00000   90.00000
LATT -1
SFAC C  
C      1  0.5021390000000  0.5581250000000  0.4808920000000 1.0
C      1  0.4551340000000  0.5339950000000  0.4843500000000 1.0
C      1  0.4429630000000  0.4846220000000  0.4823100000000 1.0
C      1  0.4742770000000  0.4441770000000  0.4800650000000 1.0
C      1  0.5251040000000  0.4476430000000  0.4812820000000 1.0
C      1  0.5576210000000  0.4894780000000  0.4792200000000 1.0
C      1  0.5495420000000  0.5398660000000  0.4748510000000 1.0
C      1  0.5376600000000  0.4691960000000  0.4427640000000 1.0
C      1  0.5530000000000  0.5129620000000  0.4340810000000 1.0
C      1  0.5228370000000  0.5499390000000  0.4349550000000 1.0
C      1  0.4772040000000  0.5432730000000  0.4450390000000 1.0
C      1  0.4446840000000  0.5102050000000  0.4405840000000 1.0
C      1  0.4543390000000  0.4631500000000  0.4393840000000 1.0
C      1  0.4988090000000  0.4440200000000  0.4377380000000 1.0
C      1  0.4883440000000  0.5200830000000  0.4332650000000 1.0
C      1  0.4649540000000  0.5054330000000  0.4211500000000 1.0
C      1  0.4690080000000  0.4757870000000  0.4188220000000 1.0
C      1  0.4973840000000  0.4658930000000  0.4196160000000 1.0
C      1  0.5168410000000  0.4852150000000  0.4321800000000 1.0
C      1  0.5310760000000  0.5072770000000  0.4168450000000 1.0
C      1  0.5123430000000  0.5301260000000  0.4174590000000 1.0
C      1  0.4452780000000  0.5411470000000  0.5091950000000 1.0
C      1  0.4386290000000  0.4829730000000  0.5096950000000 1.0
C      1  0.4721130000000  0.4373990000000  0.5068530000000 1.0
C      1  0.5305530000000  0.4358630000000  0.5057070000000 1.0
C      1  0.5710130000000  0.4886150000000  0.5034420000000 1.0
C      1  0.5557440000000  0.5442930000000  0.5016020000000 1.0
C      1  0.5046450000000  0.5714140000000  0.5050120000000 1.0
C      1  0.5001750000000  0.4401640000000  0.4658590000000 1.0
C      1  0.5459340000000  0.4643950000000  0.4683630000000 1.0
C      1  0.5584810000000  0.5143760000000  0.4619600000000 1.0
C      1  0.5261800000000  0.5542670000000  0.4628640000000 1.0
C      1  0.4749050000000  0.5516560000000  0.4709320000000 1.0
C      1  0.4426140000000  0.5112010000000  0.4689320000000 1.0
C      1  0.4532950000000  0.4610440000000  0.4673440000000 1.0
C      1  0.5744570000000  0.4864310000000  0.5296780000000 1.0
C      1  0.5579660000000  0.5464750000000  0.5279820000000 1.0
C      1  0.5024100000000  0.5742210000000  0.5312780000000 1.0
C      1  0.4434180000000  0.5435160000000  0.5355390000000 1.0
C      1  0.4351160000000  0.4834340000000  0.5360310000000 1.0
C      1  0.4711630000000  0.4352730000000  0.5332610000000 1.0
C      1  0.5334930000000  0.4339650000000  0.5319880000000 1.0
C      1  0.5286660000000  0.4472790000000  0.5545620000000 1.0
C      1  0.5612850000000  0.4880930000000  0.5528320000000 1.0
C      1  0.5481930000000  0.5385350000000  0.5515150000000 1.0
C      1  0.5009320000000  0.5594980000000  0.5534180000000 1.0
C      1  0.4549240000000  0.5357520000000  0.5582750000000 1.0
C      1  0.4449220000000  0.4864220000000  0.5607530000000 1.0
C      1  0.4771980000000  0.4478460000000  0.5559240000000 1.0
C      1  0.5351710000000  0.4937980000000  0.5600200000000 1.0
C      1  0.5281800000000  0.5214950000000  0.5602170000000 1.0
C      1  0.5019800000000  0.5329230000000  0.5608720000000 1.0
C      1  0.4766610000000  0.5203930000000  0.5656730000000 1.0
C      1  0.4699450000000  0.4923760000000  0.5735340000000 1.0
C      1  0.4889750000000  0.4715770000000  0.5637150000000 1.0
C      1  0.5176030000000  0.4713870000000  0.5624190000000 1.0
C      1  0.4669200000000  0.4905230000000  0.6017250000000 1.0
C      1  0.5025380000000  0.5010330000000  0.4798720000000 1.0
C      1  0.4660520000000  0.4893320000000  0.6273210000000 1.0
C      1  0.5005960000000  0.5003610000000  0.4532910000000 1.0
END
