TITL C-9266-5713-180 6.01350616271459e-07 125000 -361.814054663047 0 0 60 (C1) n - 1
REM
REM in /home/bkarasulu/CARBON/AIRSS/Generating-Clusters/EDIP-Nigel-Params/Higher-Symm/Box-15A/Only-C60/SD-CG/HFTN-CG
REM
REM
REM
REM
REM
REM ./C.cell (414f73aa93bd7a1190c7fd0f31ff2f98)
REM
REM compiler GCC version 9.2.1 20190827 (Red Hat 9.2.1-1)
REM options -cpp -mtune=generic -march=x86-64 -g -O0 -fpre-include=/usr/include/finclude/math-vector-fortran.h
REM seed 1930556086 -1033145435 959627373 -40478821 986771074 -1421848771 -551821067 -1823910413 910198822 1418433847 -805846178 639264266 -697866194 -1143438077 -508860919 1733302762 409476671 -674406870 -1811624591 -1039377837 1603316905 281593070 766949774 1743518578 -314982353 44078297 187520159 156786048 389578999 301135853 -1899938780 -192793778 1606120694
REM
CELL 1.54180   50.00000   50.00000   50.00000   90.00000   90.00000   90.00000
LATT -1
SFAC C  
C      1  0.5562290000000  0.5190120000000  0.5112770000000 1.0
C      1  0.4460260000000  0.4508360000000  0.4864270000000 1.0
C      1  0.5514320000000  0.5227440000000  0.4474940000000 1.0
C      1  0.4673920000000  0.5046440000000  0.5621650000000 1.0
C      1  0.4764010000000  0.4860980000000  0.5154670000000 1.0
C      1  0.5430850000000  0.4368560000000  0.4871120000000 1.0
C      1  0.5563200000000  0.4460550000000  0.5099480000000 1.0
C      1  0.5631310000000  0.4715680000000  0.5189070000000 1.0
C      1  0.5245390000000  0.5178110000000  0.4361200000000 1.0
C      1  0.4878810000000  0.4530430000000  0.5546260000000 1.0
C      1  0.4631520000000  0.4581840000000  0.5111980000000 1.0
C      1  0.5341640000000  0.5609720000000  0.4852600000000 1.0
C      1  0.4579730000000  0.4361660000000  0.4647950000000 1.0
C      1  0.5164030000000  0.4787530000000  0.4729360000000 1.0
C      1  0.5121870000000  0.5025950000000  0.5408570000000 1.0
C      1  0.4521200000000  0.4897540000000  0.4567850000000 1.0
C      1  0.4973090000000  0.5270650000000  0.5069970000000 1.0
C      1  0.5257840000000  0.5193020000000  0.4959940000000 1.0
C      1  0.4382190000000  0.5279770000000  0.5258510000000 1.0
C      1  0.5076260000000  0.4817620000000  0.5231470000000 1.0
C      1  0.4772730000000  0.4376820000000  0.5286600000000 1.0
C      1  0.5272680000000  0.4880630000000  0.4995220000000 1.0
C      1  0.4764410000000  0.4774470000000  0.5641620000000 1.0
C      1  0.4510400000000  0.5187080000000  0.4537710000000 1.0
C      1  0.4799340000000  0.5063360000000  0.4938900000000 1.0
C      1  0.4573710000000  0.5566980000000  0.4911410000000 1.0
C      1  0.4344850000000  0.4760820000000  0.4760560000000 1.0
C      1  0.5653120000000  0.4931730000000  0.5003810000000 1.0
C      1  0.5551880000000  0.5136440000000  0.5410560000000 1.0
C      1  0.5135470000000  0.4327490000000  0.4901060000000 1.0
C      1  0.4735940000000  0.5648790000000  0.5351310000000 1.0
C      1  0.5054590000000  0.5660220000000  0.4777240000000 1.0
C      1  0.4462750000000  0.5315550000000  0.4803540000000 1.0
C      1  0.4270830000000  0.5197110000000  0.4991210000000 1.0
C      1  0.5516340000000  0.4821110000000  0.5430780000000 1.0
C      1  0.5407420000000  0.4745620000000  0.4555270000000 1.0
C      1  0.4941680000000  0.4998020000000  0.4679000000000 1.0
C      1  0.4218530000000  0.4924330000000  0.4950950000000 1.0
C      1  0.5507650000000  0.4495420000000  0.4630200000000 1.0
C      1  0.5585720000000  0.4963350000000  0.4542520000000 1.0
C      1  0.5375140000000  0.5343540000000  0.5580970000000 1.0
C      1  0.4717040000000  0.4764550000000  0.4393990000000 1.0
C      1  0.4600520000000  0.5070100000000  0.5338290000000 1.0
C      1  0.4731610000000  0.5264450000000  0.4364870000000 1.0
C      1  0.5355370000000  0.5579260000000  0.5138420000000 1.0
C      1  0.4876850000000  0.5274460000000  0.5679740000000 1.0
C      1  0.4892500000000  0.5018130000000  0.4296260000000 1.0
C      1  0.4800560000000  0.4502870000000  0.4537260000000 1.0
C      1  0.4873760000000  0.5565120000000  0.5000400000000 1.0
C      1  0.5369330000000  0.4633040000000  0.5586430000000 1.0
C      1  0.5235480000000  0.5541360000000  0.5397550000000 1.0
C      1  0.5038180000000  0.4281040000000  0.5173960000000 1.0
C      1  0.4959470000000  0.5508040000000  0.4547500000000 1.0
C      1  0.5001320000000  0.4544660000000  0.4751620000000 1.0
C      1  0.5147530000000  0.4571700000000  0.5400320000000 1.0
C      1  0.4941340000000  0.5445850000000  0.5415060000000 1.0
C      1  0.4487920000000  0.5574110000000  0.5206500000000 1.0
C      1  0.5098230000000  0.5252080000000  0.4607030000000 1.0
C      1  0.5492110000000  0.5429180000000  0.4681210000000 1.0
C      1  0.5151950000000  0.5149190000000  0.5669520000000 1.0
END
