TITL C-9264-7143-142 -3.64486876094738e-07 125000 -375.742537525792 0 0 60 (Ci) n - 1
REM
REM in /home/bkarasulu/CARBON/AIRSS/Generating-Clusters/EDIP-Nigel-Params/Higher-Symm/Box-15A/Only-C60/SD-CG/HFTN-CG
REM
REM
REM
REM
REM
REM ./C.cell (414f73aa93bd7a1190c7fd0f31ff2f98)
REM
REM compiler GCC version 9.2.1 20190827 (Red Hat 9.2.1-1)
REM options -cpp -mtune=generic -march=x86-64 -g -O0 -fpre-include=/usr/include/finclude/math-vector-fortran.h
REM seed -1733999160 -403796247 -719014406 1023078306 -2147443289 268410191 -767508655 -1071837763 -1901958758 -332708378 -558478055 1467673809 407915324 1891446079 -228848314 783987817 -1633432886 -1377258986 1696712629 1415806820 657414589 -337543603 -213711295 310142559 -1921681129 -196558557 -1380204845 -294661867 -1323710547 -100782862 122812330 692310613 -754215434
REM
CELL 1.54180   50.00000   50.00000   50.00000   90.00000   90.00000   90.00000
LATT -1
SFAC C  
C      1  0.5223160000000  0.5002380000000  0.4465430000000 1.0
C      1  0.4775990000000  0.5469240000000  0.4766460000000 1.0
C      1  0.5253830000000  0.5443590000000  0.5271920000000 1.0
C      1  0.4776840000000  0.4997620000000  0.5534570000000 1.0
C      1  0.5224010000000  0.4530760000000  0.5233540000000 1.0
C      1  0.4746170000000  0.4556410000000  0.4728080000000 1.0
C      1  0.4528230000000  0.5337610000000  0.5172810000000 1.0
C      1  0.5500780000000  0.5029100000000  0.5372400000000 1.0
C      1  0.4482640000000  0.4708310000000  0.5262160000000 1.0
C      1  0.5471770000000  0.4662390000000  0.4827190000000 1.0
C      1  0.4499220000000  0.4970900000000  0.4627600000000 1.0
C      1  0.5517360000000  0.5291690000000  0.4737840000000 1.0
C      1  0.5142030000000  0.4545760000000  0.4441210000000 1.0
C      1  0.4822570000000  0.5259850000000  0.4341590000000 1.0
C      1  0.5130040000000  0.5789960000000  0.4920850000000 1.0
C      1  0.4857970000000  0.5454240000000  0.5558790000000 1.0
C      1  0.5177430000000  0.4740150000000  0.5658410000000 1.0
C      1  0.4869960000000  0.4210040000000  0.5079150000000 1.0
C      1  0.4764930000000  0.5233290000000  0.5703500000000 1.0
C      1  0.5257620000000  0.4507340000000  0.5521130000000 1.0
C      1  0.4731200000000  0.4301550000000  0.4862950000000 1.0
C      1  0.5235070000000  0.4766710000000  0.4296500000000 1.0
C      1  0.4742380000000  0.5492660000000  0.4478870000000 1.0
C      1  0.5268800000000  0.5698450000000  0.5137050000000 1.0
C      1  0.5154170000000  0.5453270000000  0.5560860000000 1.0
C      1  0.4880320000000  0.4748050000000  0.5681170000000 1.0
C      1  0.5143410000000  0.4273760000000  0.5091790000000 1.0
C      1  0.4845830000000  0.4546730000000  0.4439140000000 1.0
C      1  0.5119680000000  0.5251950000000  0.4318830000000 1.0
C      1  0.4856590000000  0.5726240000000  0.4908210000000 1.0
C      1  0.4524590000000  0.5356840000000  0.4887120000000 1.0
C      1  0.5505110000000  0.5284120000000  0.5239160000000 1.0
C      1  0.4512400000000  0.4958460000000  0.5401610000000 1.0
C      1  0.5475410000000  0.4643160000000  0.5112880000000 1.0
C      1  0.4494890000000  0.4715880000000  0.4760840000000 1.0
C      1  0.5487600000000  0.5041540000000  0.4598390000000 1.0
C      1  0.5227350000000  0.5490480000000  0.4421190000000 1.0
C      1  0.4766150000000  0.5737050000000  0.5171890000000 1.0
C      1  0.5234240000000  0.5227500000000  0.5708950000000 1.0
C      1  0.4772650000000  0.4509520000000  0.5578810000000 1.0
C      1  0.5233850000000  0.4262950000000  0.4828110000000 1.0
C      1  0.4765760000000  0.4772500000000  0.4291050000000 1.0
C      1  0.4364600000000  0.5188160000000  0.4736820000000 1.0
C      1  0.5630250000000  0.5299440000000  0.4993420000000 1.0
C      1  0.4357180000000  0.5176420000000  0.5322960000000 1.0
C      1  0.5635400000000  0.4811840000000  0.5263180000000 1.0
C      1  0.4369750000000  0.4700560000000  0.5006580000000 1.0
C      1  0.5642820000000  0.4823580000000  0.4677040000000 1.0
C      1  0.4982310000000  0.4719140000000  0.5171420000000 1.0
C      1  0.4982150000000  0.4712930000000  0.4851040000000 1.0
C      1  0.4992730000000  0.4988040000000  0.4683990000000 1.0
C      1  0.5017690000000  0.5280860000000  0.4828580000000 1.0
C      1  0.5017850000000  0.5287070000000  0.5148960000000 1.0
C      1  0.5007270000000  0.5011960000000  0.5316010000000 1.0
C      1  0.5245790000000  0.5003030000000  0.5522610000000 1.0
C      1  0.4737470000000  0.4566990000000  0.5301690000000 1.0
C      1  0.5220090000000  0.4537580000000  0.4733740000000 1.0
C      1  0.4754210000000  0.4996970000000  0.4477390000000 1.0
C      1  0.5262530000000  0.5433010000000  0.4698310000000 1.0
C      1  0.4779910000000  0.5462420000000  0.5266260000000 1.0
END
