TITL C-9265-7156-58 -1.15840722249723e-06 125000 -347.015604864879 0 0 60 (Ci) n - 1
REM
REM in /home/bkarasulu/CARBON/AIRSS/Generating-Clusters/EDIP-Nigel-Params/Higher-Symm/Box-15A/Only-C60/SD-CG/HFTN-CG
REM
REM
REM
REM
REM
REM ./C.cell (414f73aa93bd7a1190c7fd0f31ff2f98)
REM
REM compiler GCC version 9.2.1 20190827 (Red Hat 9.2.1-1)
REM options -cpp -mtune=generic -march=x86-64 -g -O0 -fpre-include=/usr/include/finclude/math-vector-fortran.h
REM seed 1642095461 845083584 -688646723 819029503 -1243076463 -1962883672 -328015762 -1178307690 -2030214417 -1238909867 923934531 -1654657104 -1770232339 1296573994 2058991334 1341562934 -1461178583 -587975024 -881829005 -794287174 102017860 1245599975 993888888 -1732809998 -959418857 -2108874765 -1672334907 -815685955 -834976761 477492642 -1391448524 1723161568 -777831456
REM
CELL 1.54180   50.00000   50.00000   50.00000   90.00000   90.00000   90.00000
LATT -1
SFAC C  
C      1  0.4500800000000  0.4733470000000  0.4674750000000 1.0
C      1  0.4495040000000  0.4670820000000  0.5267970000000 1.0
C      1  0.4487070000000  0.5271040000000  0.5330350000000 1.0
C      1  0.4491340000000  0.5325460000000  0.4732650000000 1.0
C      1  0.5526380000000  0.4733220000000  0.4669630000000 1.0
C      1  0.5518680000000  0.4672740000000  0.5263890000000 1.0
C      1  0.5509890000000  0.5263060000000  0.5326160000000 1.0
C      1  0.5517140000000  0.5329090000000  0.4735160000000 1.0
C      1  0.4866620000000  0.5582560000000  0.5452880000000 1.0
C      1  0.4866260000000  0.5455470000000  0.4417890000000 1.0
C      1  0.4862930000000  0.4411640000000  0.4543420000000 1.0
C      1  0.4864340000000  0.4548780000000  0.5585810000000 1.0
C      1  0.5157840000000  0.5588980000000  0.5466290000000 1.0
C      1  0.5156110000000  0.5458990000000  0.4413940000000 1.0
C      1  0.5152520000000  0.4418630000000  0.4540690000000 1.0
C      1  0.5155390000000  0.4536100000000  0.5584090000000 1.0
C      1  0.5765890000000  0.4824890000000  0.5131100000000 1.0
C      1  0.5762850000000  0.5132530000000  0.5182050000000 1.0
C      1  0.5765390000000  0.5183720000000  0.4874240000000 1.0
C      1  0.5768330000000  0.4875500000000  0.4823340000000 1.0
C      1  0.4247220000000  0.4816180000000  0.5128070000000 1.0
C      1  0.4245160000000  0.5124790000000  0.5177600000000 1.0
C      1  0.4246300000000  0.5173830000000  0.4869490000000 1.0
C      1  0.4249020000000  0.4866090000000  0.4819960000000 1.0
C      1  0.5210860000000  0.4817430000000  0.5650540000000 1.0
C      1  0.5210790000000  0.5651350000000  0.5182790000000 1.0
C      1  0.5205460000000  0.5174780000000  0.4355550000000 1.0
C      1  0.5205790000000  0.4352370000000  0.4821810000000 1.0
C      1  0.4801880000000  0.4830430000000  0.5646040000000 1.0
C      1  0.4802770000000  0.5650560000000  0.5173190000000 1.0
C      1  0.4797600000000  0.5179870000000  0.4344300000000 1.0
C      1  0.4798990000000  0.4345870000000  0.4822820000000 1.0
C      1  0.4598730000000  0.4914640000000  0.5436570000000 1.0
C      1  0.4595490000000  0.5442570000000  0.5087570000000 1.0
C      1  0.4612580000000  0.5084930000000  0.4567240000000 1.0
C      1  0.4615640000000  0.4570810000000  0.4915330000000 1.0
C      1  0.5396220000000  0.4912550000000  0.5428370000000 1.0
C      1  0.5393510000000  0.5426750000000  0.5087150000000 1.0
C      1  0.5411940000000  0.5088430000000  0.4563570000000 1.0
C      1  0.5412940000000  0.4560310000000  0.4910460000000 1.0
C      1  0.4751730000000  0.4675310000000  0.4466140000000 1.0
C      1  0.4756630000000  0.4469040000000  0.5322890000000 1.0
C      1  0.4765470000000  0.5315740000000  0.5525200000000 1.0
C      1  0.4764960000000  0.5523610000000  0.4686250000000 1.0
C      1  0.5249420000000  0.4687540000000  0.4470300000000 1.0
C      1  0.5255050000000  0.4465380000000  0.5314610000000 1.0
C      1  0.5264900000000  0.5322360000000  0.5540490000000 1.0
C      1  0.5262350000000  0.5537720000000  0.4678640000000 1.0
C      1  0.5205170000000  0.5014170000000  0.4769360000000 1.0
C      1  0.5204370000000  0.4769300000000  0.4972600000000 1.0
C      1  0.5196320000000  0.4973050000000  0.5215370000000 1.0
C      1  0.5196940000000  0.5214500000000  0.5014060000000 1.0
C      1  0.4813120000000  0.5024350000000  0.4782130000000 1.0
C      1  0.4813250000000  0.4784150000000  0.4986900000000 1.0
C      1  0.4804660000000  0.4987240000000  0.5228920000000 1.0
C      1  0.4805640000000  0.5233340000000  0.5022980000000 1.0
C      1  0.5014520000000  0.5582350000000  0.4856570000000 1.0
C      1  0.5002050000000  0.4419220000000  0.5144250000000 1.0
C      1  0.5017230000000  0.5144680000000  0.5579470000000 1.0
C      1  0.4995320000000  0.4855730000000  0.4418170000000 1.0
END
