TITL C-9269-7444-36 -7.67307400172743e-05 125000 -360.532640541315 0 0 60 (C1) n - 1
REM
REM in /home/bkarasulu/CARBON/AIRSS/Generating-Clusters/EDIP-Nigel-Params/Higher-Symm/Box-15A/Only-C60/SD-CG/HFTN-CG
REM
REM
REM
REM
REM
REM ./C.cell (414f73aa93bd7a1190c7fd0f31ff2f98)
REM
REM compiler GCC version 9.2.1 20190827 (Red Hat 9.2.1-1)
REM options -cpp -mtune=generic -march=x86-64 -g -O0 -fpre-include=/usr/include/finclude/math-vector-fortran.h
REM seed -1740954216 1343844816 1688339762 1213648075 -1477617512 -109564704 -231321896 -2033998530 -300903664 -1210652943 -165529617 641690038 1631020643 365357692 778668591 -108340782 1490438339 -1904933821 -1727017484 -960120429 -1553995664 -929178108 -2036979746 1907842312 -1797022550 977828526 385108771 -221089961 1604453632 1142289234 800346045 1430877776 -1691296389
REM
CELL 1.54180   50.00000   50.00000   50.00000   90.00000   90.00000   90.00000
LATT -1
SFAC C  
C      1  0.4513790000000  0.4955370000000  0.4520190000000 1.0
C      1  0.4673280000000  0.4492310000000  0.4569240000000 1.0
C      1  0.5134920000000  0.4422960000000  0.4565060000000 1.0
C      1  0.5426600000000  0.4812250000000  0.4548410000000 1.0
C      1  0.5440130000000  0.5308700000000  0.4482730000000 1.0
C      1  0.5129730000000  0.5666130000000  0.4592460000000 1.0
C      1  0.4721200000000  0.5418820000000  0.4534840000000 1.0
C      1  0.4889460000000  0.4691380000000  0.5090750000000 1.0
C      1  0.5187360000000  0.4756090000000  0.5074140000000 1.0
C      1  0.5254320000000  0.5005530000000  0.4899080000000 1.0
C      1  0.5165920000000  0.5277040000000  0.5023600000000 1.0
C      1  0.4896230000000  0.5250040000000  0.4838890000000 1.0
C      1  0.4662460000000  0.5158030000000  0.5012630000000 1.0
C      1  0.4642980000000  0.4853450000000  0.5008750000000 1.0
C      1  0.4336470000000  0.4654560000000  0.4868580000000 1.0
C      1  0.4874720000000  0.4255470000000  0.4928840000000 1.0
C      1  0.5357670000000  0.4531130000000  0.4945040000000 1.0
C      1  0.5624850000000  0.5120500000000  0.4847020000000 1.0
C      1  0.5445670000000  0.5520810000000  0.4919080000000 1.0
C      1  0.4770260000000  0.5747160000000  0.4915010000000 1.0
C      1  0.4343620000000  0.5274850000000  0.4824720000000 1.0
C      1  0.4369920000000  0.4755610000000  0.5151550000000 1.0
C      1  0.4846640000000  0.4406140000000  0.5176120000000 1.0
C      1  0.5462020000000  0.4316930000000  0.5183320000000 1.0
C      1  0.5656670000000  0.4964260000000  0.5081630000000 1.0
C      1  0.5525020000000  0.5566530000000  0.5200550000000 1.0
C      1  0.4935180000000  0.5705480000000  0.5157830000000 1.0
C      1  0.4356380000000  0.5369910000000  0.5103590000000 1.0
C      1  0.5152040000000  0.5283430000000  0.5333840000000 1.0
C      1  0.4831710000000  0.5288650000000  0.5387070000000 1.0
C      1  0.4610020000000  0.5089390000000  0.5436330000000 1.0
C      1  0.4642610000000  0.4806560000000  0.5528270000000 1.0
C      1  0.5115440000000  0.4591920000000  0.5539820000000 1.0
C      1  0.5304250000000  0.4751190000000  0.5362130000000 1.0
C      1  0.5344760000000  0.5048030000000  0.5439830000000 1.0
C      1  0.4516910000000  0.5224020000000  0.4604260000000 1.0
C      1  0.4492020000000  0.4695680000000  0.4629180000000 1.0
C      1  0.4887410000000  0.4341020000000  0.4660700000000 1.0
C      1  0.5363110000000  0.4554910000000  0.4647240000000 1.0
C      1  0.5550360000000  0.5065720000000  0.4579980000000 1.0
C      1  0.5371470000000  0.5535910000000  0.4638560000000 1.0
C      1  0.4856580000000  0.5645940000000  0.4654270000000 1.0
C      1  0.4504320000000  0.5611620000000  0.5152640000000 1.0
C      1  0.4181010000000  0.4957420000000  0.5240660000000 1.0
C      1  0.4589740000000  0.4365260000000  0.5300750000000 1.0
C      1  0.5267370000000  0.4184030000000  0.5327840000000 1.0
C      1  0.5681000000000  0.4683990000000  0.5081970000000 1.0
C      1  0.5686260000000  0.5371230000000  0.5313810000000 1.0
C      1  0.5147580000000  0.5804790000000  0.5313070000000 1.0
C      1  0.5622060000000  0.5099250000000  0.5341080000000 1.0
C      1  0.5291660000000  0.5568030000000  0.5378680000000 1.0
C      1  0.4740650000000  0.5561210000000  0.5315490000000 1.0
C      1  0.4348220000000  0.5165430000000  0.5321400000000 1.0
C      1  0.4474950000000  0.4604720000000  0.5383930000000 1.0
C      1  0.5047920000000  0.4342320000000  0.5394600000000 1.0
C      1  0.5562450000000  0.4571550000000  0.5322890000000 1.0
C      1  0.5058400000000  0.5025030000000  0.4417310000000 1.0
C      1  0.5022640000000  0.5014470000000  0.4693480000000 1.0
C      1  0.4887630000000  0.4722710000000  0.5631580000000 1.0
C      1  0.5015840000000  0.5010860000000  0.4163140000000 1.0
END
