TITL C-9258-7861-301 -8.20453527484533e-06 125000 -366.176294949453 0 0 60 (C1) n - 1
REM
REM in /home/bkarasulu/CARBON/AIRSS/Generating-Clusters/EDIP-Nigel-Params/Higher-Symm/Box-15A/Only-C60/SD-CG/HFTN-CG
REM
REM
REM
REM
REM
REM ./C.cell (414f73aa93bd7a1190c7fd0f31ff2f98)
REM
REM compiler GCC version 9.2.1 20190827 (Red Hat 9.2.1-1)
REM options -cpp -mtune=generic -march=x86-64 -g -O0 -fpre-include=/usr/include/finclude/math-vector-fortran.h
REM seed -367150020 -137709319 446890311 -897846836 424296953 -14929263 -1745255331 1299948604 630470808 1993668745 -1909409885 -1315142081 -1891395706 1021215086 -1862085063 1688173411 -730291042 -34931604 -1416205788 16892005 -1267722447 -1279564474 409602984 247072315 -1106800564 -1659774663 -1719643527 1612429690 -136625506 1794082617 77624785 -1059647968 -268686079
REM
CELL 1.54180   50.00000   50.00000   50.00000   90.00000   90.00000   90.00000
LATT -1
SFAC C  
C      1  0.4467870000000  0.4671520000000  0.4925920000000 1.0
C      1  0.4394960000000  0.5084870000000  0.5392990000000 1.0
C      1  0.4372620000000  0.5301770000000  0.4658970000000 1.0
C      1  0.5157300000000  0.5117020000000  0.4808260000000 1.0
C      1  0.5103110000000  0.4823540000000  0.5067190000000 1.0
C      1  0.5145040000000  0.5140370000000  0.5122020000000 1.0
C      1  0.5497810000000  0.5271210000000  0.4495020000000 1.0
C      1  0.5499040000000  0.4358420000000  0.5003080000000 1.0
C      1  0.5487100000000  0.5319820000000  0.5547910000000 1.0
C      1  0.5515290000000  0.4862520000000  0.4749040000000 1.0
C      1  0.5556060000000  0.4838970000000  0.5213960000000 1.0
C      1  0.5589110000000  0.5274580000000  0.5017210000000 1.0
C      1  0.5370220000000  0.5532750000000  0.5368970000000 1.0
C      1  0.5355600000000  0.5052080000000  0.4330570000000 1.0
C      1  0.5383110000000  0.4392290000000  0.5278280000000 1.0
C      1  0.5013840000000  0.4773650000000  0.5436340000000 1.0
C      1  0.5025180000000  0.5463560000000  0.4937980000000 1.0
C      1  0.5073900000000  0.4753220000000  0.4650490000000 1.0
C      1  0.5343140000000  0.5083790000000  0.5654330000000 1.0
C      1  0.5363580000000  0.5541400000000  0.4557830000000 1.0
C      1  0.5350700000000  0.4360110000000  0.4749130000000 1.0
C      1  0.4852000000000  0.4319810000000  0.5192040000000 1.0
C      1  0.4841990000000  0.5472270000000  0.5464670000000 1.0
C      1  0.4849640000000  0.5212810000000  0.4317500000000 1.0
C      1  0.4584030000000  0.5063020000000  0.5613310000000 1.0
C      1  0.4597580000000  0.5494430000000  0.4638430000000 1.0
C      1  0.4604410000000  0.4470630000000  0.4773120000000 1.0
C      1  0.4783460000000  0.4635590000000  0.5553830000000 1.0
C      1  0.4778460000000  0.5618010000000  0.5022730000000 1.0
C      1  0.4838550000000  0.4753870000000  0.4462300000000 1.0
C      1  0.4457590000000  0.5263890000000  0.5176330000000 1.0
C      1  0.4434250000000  0.5031820000000  0.4563600000000 1.0
C      1  0.4422540000000  0.4623800000000  0.5204250000000 1.0
C      1  0.5405960000000  0.4725020000000  0.4990220000000 1.0
C      1  0.5448300000000  0.5122460000000  0.5228300000000 1.0
C      1  0.5464370000000  0.5148800000000  0.4768630000000 1.0
C      1  0.4291440000000  0.5232740000000  0.4935900000000 1.0
C      1  0.4321840000000  0.4880500000000  0.4791620000000 1.0
C      1  0.4286230000000  0.4831940000000  0.5337870000000 1.0
C      1  0.5074950000000  0.5514200000000  0.4639790000000 1.0
C      1  0.5090350000000  0.4484630000000  0.4791640000000 1.0
C      1  0.5074620000000  0.5040340000000  0.5544640000000 1.0
C      1  0.5465210000000  0.4826530000000  0.5656260000000 1.0
C      1  0.5465170000000  0.5651510000000  0.4804840000000 1.0
C      1  0.5451780000000  0.4492850000000  0.4512230000000 1.0
C      1  0.5109050000000  0.5143560000000  0.4234500000000 1.0
C      1  0.5113960000000  0.4301530000000  0.5304570000000 1.0
C      1  0.5097500000000  0.5590790000000  0.5423630000000 1.0
C      1  0.4599660000000  0.5707940000000  0.4821830000000 1.0
C      1  0.4655540000000  0.4546540000000  0.4508840000000 1.0
C      1  0.4612320000000  0.4798740000000  0.5709870000000 1.0
C      1  0.4718670000000  0.5013100000000  0.4483890000000 1.0
C      1  0.4645870000000  0.4476520000000  0.5345460000000 1.0
C      1  0.4644860000000  0.5485460000000  0.5243710000000 1.0
C      1  0.5491880000000  0.5541920000000  0.5069960000000 1.0
C      1  0.5354320000000  0.4775390000000  0.4517320000000 1.0
C      1  0.5485270000000  0.4656650000000  0.5425950000000 1.0
C      1  0.4845730000000  0.4345540000000  0.4895570000000 1.0
C      1  0.4840870000000  0.5215380000000  0.5608660000000 1.0
C      1  0.4835250000000  0.5472010000000  0.4456720000000 1.0
END
