TITL C-9259-5960-5 -1.45318708412552e-05 125000 -369.277269893855 0 0 60 (C1) n - 1
REM
REM in /home/bkarasulu/CARBON/AIRSS/Generating-Clusters/EDIP-Nigel-Params/Higher-Symm/Box-15A/Only-C60/SD-CG/HFTN-CG
REM
REM
REM
REM
REM
REM ./C.cell (414f73aa93bd7a1190c7fd0f31ff2f98)
REM
REM compiler GCC version 9.2.1 20190827 (Red Hat 9.2.1-1)
REM options -cpp -mtune=generic -march=x86-64 -g -O0 -fpre-include=/usr/include/finclude/math-vector-fortran.h
REM seed -431118878 702148922 -377414659 422418679 1075595378 1404450027 1552140297 2092558394 -1527118878 256443644 1162627955 -1946595454 1420836079 1905395896 1755608740 -1512359179 -704385794 13167308 1234689408 1496313556 1057562615 -139812811 2076320371 1459533768 -934373805 688341414 269000820 1217340263 1300568568 -1181337805 606280357 -559351600 59781292
REM
CELL 1.54180   50.00000   50.00000   50.00000   90.00000   90.00000   90.00000
LATT -1
SFAC C  
C      1  0.5280440000000  0.5648090000000  0.4707080000000 1.0
C      1  0.5193910000000  0.4527210000000  0.4678560000000 1.0
C      1  0.5258480000000  0.4948280000000  0.5665510000000 1.0
C      1  0.4742780000000  0.5314270000000  0.4795290000000 1.0
C      1  0.4744620000000  0.4625730000000  0.4813070000000 1.0
C      1  0.4725340000000  0.5019170000000  0.5385130000000 1.0
C      1  0.5024300000000  0.5050050000000  0.5255680000000 1.0
C      1  0.5032570000000  0.5230960000000  0.4790800000000 1.0
C      1  0.5025970000000  0.4733710000000  0.4838940000000 1.0
C      1  0.4797020000000  0.5160140000000  0.4357050000000 1.0
C      1  0.4823350000000  0.4419650000000  0.5194800000000 1.0
C      1  0.4728940000000  0.5479560000000  0.5472650000000 1.0
C      1  0.5106810000000  0.4796290000000  0.5125510000000 1.0
C      1  0.5108860000000  0.5254480000000  0.5063580000000 1.0
C      1  0.5052570000000  0.4967040000000  0.4664920000000 1.0
C      1  0.5317330000000  0.4940880000000  0.4492880000000 1.0
C      1  0.5263740000000  0.4608210000000  0.5285740000000 1.0
C      1  0.5287310000000  0.5475150000000  0.5144050000000 1.0
C      1  0.5420130000000  0.5314650000000  0.5377320000000 1.0
C      1  0.5444490000000  0.5211590000000  0.4534340000000 1.0
C      1  0.5423070000000  0.4461140000000  0.5070660000000 1.0
C      1  0.5566210000000  0.5268190000000  0.4799580000000 1.0
C      1  0.5554570000000  0.4675880000000  0.4898050000000 1.0
C      1  0.5540470000000  0.5039830000000  0.5297400000000 1.0
C      1  0.4515280000000  0.4804820000000  0.5366340000000 1.0
C      1  0.4538150000000  0.5340240000000  0.5017720000000 1.0
C      1  0.4558190000000  0.4825490000000  0.4681210000000 1.0
C      1  0.4313370000000  0.4741560000000  0.4787200000000 1.0
C      1  0.4266050000000  0.4935050000000  0.5371900000000 1.0
C      1  0.4298390000000  0.5311110000000  0.4870340000000 1.0
C      1  0.5449980000000  0.4686020000000  0.4614830000000 1.0
C      1  0.5433450000000  0.4803000000000  0.5465440000000 1.0
C      1  0.5470380000000  0.5527000000000  0.4909140000000 1.0
C      1  0.4943840000000  0.4577430000000  0.5642110000000 1.0
C      1  0.5068500000000  0.5691740000000  0.5134110000000 1.0
C      1  0.4912140000000  0.4660620000000  0.4293030000000 1.0
C      1  0.4779630000000  0.4363210000000  0.4660090000000 1.0
C      1  0.4789360000000  0.5044920000000  0.5686470000000 1.0
C      1  0.4797450000000  0.5582840000000  0.4654200000000 1.0
C      1  0.4556620000000  0.4566480000000  0.5201980000000 1.0
C      1  0.4564940000000  0.5273190000000  0.5315040000000 1.0
C      1  0.4600240000000  0.5119830000000  0.4596550000000 1.0
C      1  0.5233590000000  0.4309400000000  0.4884880000000 1.0
C      1  0.5171430000000  0.5184920000000  0.5506870000000 1.0
C      1  0.5196090000000  0.5398620000000  0.4567020000000 1.0
C      1  0.4299350000000  0.5203700000000  0.5416420000000 1.0
C      1  0.4332840000000  0.5245810000000  0.4603850000000 1.0
C      1  0.4373310000000  0.4557690000000  0.4983560000000 1.0
C      1  0.4988640000000  0.4446600000000  0.4459110000000 1.0
C      1  0.4994580000000  0.4831080000000  0.5752180000000 1.0
C      1  0.5019720000000  0.5738410000000  0.4830120000000 1.0
C      1  0.5812560000000  0.4781820000000  0.4975450000000 1.0
C      1  0.5802240000000  0.5016100000000  0.5151480000000 1.0
C      1  0.5816120000000  0.5161980000000  0.4896640000000 1.0
C      1  0.4913500000000  0.5324980000000  0.5654160000000 1.0
C      1  0.4923830000000  0.5435090000000  0.4399530000000 1.0
C      1  0.4921140000000  0.4275050000000  0.4938590000000 1.0
C      1  0.5031390000000  0.4457910000000  0.5406240000000 1.0
C      1  0.4855790000000  0.5672260000000  0.5314980000000 1.0
C      1  0.4994630000000  0.4933880000000  0.4282620000000 1.0
END
