TITL C-9268-6400-138 -1.21389147070921e-06 125000 -358.291328631135 0 0 60 (C1) n - 1
REM
REM in /home/bkarasulu/CARBON/AIRSS/Generating-Clusters/EDIP-Nigel-Params/Higher-Symm/Box-15A/Only-C60/SD-CG/HFTN-CG
REM
REM
REM
REM
REM
REM ./C.cell (414f73aa93bd7a1190c7fd0f31ff2f98)
REM
REM compiler GCC version 9.2.1 20190827 (Red Hat 9.2.1-1)
REM options -cpp -mtune=generic -march=x86-64 -g -O0 -fpre-include=/usr/include/finclude/math-vector-fortran.h
REM seed -1382725203 54159623 -65127283 437483162 1860361525 -1901927950 1520596011 -1429218733 34867900 -383358609 1877736851 2012003272 649491282 497757326 2063007049 702698283 936213778 -562554923 2006420274 -2046190442 -1379810505 2119693702 -606100513 4541325 -549435443 -943368457 -398914707 1018806697 751607737 2071837787 -1648197626 1244810848 775807961
REM
CELL 1.54180   50.00000   50.00000   50.00000   90.00000   90.00000   90.00000
LATT -1
SFAC C  
C      1  0.4690940000000  0.4593560000000  0.5595380000000 1.0
C      1  0.5424520000000  0.4637610000000  0.4369010000000 1.0
C      1  0.4765990000000  0.5402190000000  0.5576670000000 1.0
C      1  0.5272000000000  0.5525100000000  0.4439540000000 1.0
C      1  0.4694540000000  0.4621170000000  0.4407990000000 1.0
C      1  0.5404900000000  0.4619700000000  0.5618460000000 1.0
C      1  0.4769700000000  0.5416420000000  0.4424140000000 1.0
C      1  0.5261990000000  0.5519520000000  0.5561260000000 1.0
C      1  0.5332250000000  0.5144860000000  0.4425360000000 1.0
C      1  0.4632600000000  0.5128790000000  0.5542190000000 1.0
C      1  0.5299940000000  0.4884360000000  0.4267290000000 1.0
C      1  0.4722150000000  0.4879870000000  0.5669660000000 1.0
C      1  0.5321570000000  0.5138170000000  0.5577910000000 1.0
C      1  0.4628350000000  0.5146390000000  0.4450640000000 1.0
C      1  0.5291530000000  0.4870760000000  0.5729890000000 1.0
C      1  0.4739010000000  0.4902810000000  0.4328390000000 1.0
C      1  0.5339660000000  0.4844100000000  0.4848510000000 1.0
C      1  0.4611980000000  0.4835650000000  0.5140310000000 1.0
C      1  0.5389900000000  0.5118460000000  0.4731260000000 1.0
C      1  0.4603420000000  0.5118230000000  0.5249920000000 1.0
C      1  0.5331750000000  0.4849840000000  0.5159080000000 1.0
C      1  0.4596530000000  0.4837610000000  0.4837130000000 1.0
C      1  0.5378250000000  0.5122030000000  0.5271810000000 1.0
C      1  0.4586440000000  0.5122830000000  0.4742880000000 1.0
C      1  0.4890790000000  0.4567190000000  0.4852470000000 1.0
C      1  0.5101100000000  0.4711470000000  0.5293200000000 1.0
C      1  0.4823180000000  0.5293240000000  0.4844830000000 1.0
C      1  0.5176490000000  0.5318740000000  0.5151600000000 1.0
C      1  0.4846670000000  0.4634990000000  0.5157040000000 1.0
C      1  0.5121700000000  0.4686210000000  0.4714430000000 1.0
C      1  0.4843240000000  0.5293730000000  0.5153600000000 1.0
C      1  0.5193100000000  0.5319040000000  0.4842920000000 1.0
C      1  0.5452080000000  0.4400640000000  0.5185840000000 1.0
C      1  0.4433270000000  0.4415070000000  0.4811020000000 1.0
C      1  0.5562450000000  0.5556640000000  0.5160850000000 1.0
C      1  0.4469630000000  0.5573130000000  0.4841210000000 1.0
C      1  0.5482640000000  0.4403210000000  0.4800820000000 1.0
C      1  0.4439660000000  0.4404610000000  0.5185670000000 1.0
C      1  0.5568970000000  0.5557180000000  0.4848510000000 1.0
C      1  0.4470810000000  0.5569420000000  0.5166390000000 1.0
C      1  0.4744190000000  0.5557180000000  0.4708480000000 1.0
C      1  0.5282650000000  0.5572860000000  0.5275750000000 1.0
C      1  0.4690620000000  0.4448490000000  0.4657380000000 1.0
C      1  0.5262890000000  0.4484180000000  0.5402700000000 1.0
C      1  0.4745790000000  0.5550560000000  0.5296210000000 1.0
C      1  0.5294030000000  0.5575890000000  0.4725110000000 1.0
C      1  0.4698010000000  0.4442660000000  0.5333600000000 1.0
C      1  0.5297140000000  0.4487850000000  0.4582700000000 1.0
C      1  0.4335160000000  0.4678530000000  0.5150200000000 1.0
C      1  0.5599060000000  0.4661870000000  0.4858940000000 1.0
C      1  0.4365170000000  0.5278370000000  0.5152450000000 1.0
C      1  0.5639280000000  0.5252460000000  0.4850570000000 1.0
C      1  0.4320570000000  0.4686360000000  0.4841690000000 1.0
C      1  0.5592390000000  0.4655250000000  0.5159970000000 1.0
C      1  0.4355800000000  0.5283830000000  0.4850220000000 1.0
C      1  0.5633800000000  0.5252340000000  0.5160920000000 1.0
C      1  0.5039320000000  0.4683610000000  0.5725150000000 1.0
C      1  0.5047020000000  0.5383950000000  0.4333670000000 1.0
C      1  0.5050950000000  0.4700290000000  0.4284900000000 1.0
C      1  0.5040470000000  0.5378920000000  0.5674290000000 1.0
END
