TITL C-9264-7143-288 -2.42856312472955e-06 125000 -357.924680871813 0 0 60 (C1) n - 1
REM
REM in /home/bkarasulu/CARBON/AIRSS/Generating-Clusters/EDIP-Nigel-Params/Higher-Symm/Box-15A/Only-C60/SD-CG/HFTN-CG
REM
REM
REM
REM
REM
REM ./C.cell (414f73aa93bd7a1190c7fd0f31ff2f98)
REM
REM compiler GCC version 9.2.1 20190827 (Red Hat 9.2.1-1)
REM options -cpp -mtune=generic -march=x86-64 -g -O0 -fpre-include=/usr/include/finclude/math-vector-fortran.h
REM seed 2033471076 -1982112872 -522088559 1336692417 -1637693940 -1643006321 920387648 2133171084 -218952733 1925152795 625952224 2136420238 -429781419 1311017985 789169718 -674162194 1169537601 892032759 1322880856 468325032 -440823471 -946195051 649862399 1794386206 839386757 1842996399 1225190529 -528087369 1477101948 -1039181711 1068892865 176657176 1504583530
REM
CELL 1.54180   50.00000   50.00000   50.00000   90.00000   90.00000   90.00000
LATT -1
SFAC C  
C      1  0.4348300000000  0.5342190000000  0.5313940000000 1.0
C      1  0.5097460000000  0.5285070000000  0.5655340000000 1.0
C      1  0.5631990000000  0.5304730000000  0.5196030000000 1.0
C      1  0.5315800000000  0.5269020000000  0.4431610000000 1.0
C      1  0.4559400000000  0.5286790000000  0.4449200000000 1.0
C      1  0.4443780000000  0.4751340000000  0.5206970000000 1.0
C      1  0.5029110000000  0.4692420000000  0.5693380000000 1.0
C      1  0.5693450000000  0.4706960000000  0.5149180000000 1.0
C      1  0.5375090000000  0.4670390000000  0.4393690000000 1.0
C      1  0.4538230000000  0.4716570000000  0.4523770000000 1.0
C      1  0.5207810000000  0.5510320000000  0.5236610000000 1.0
C      1  0.5386180000000  0.5407900000000  0.4843880000000 1.0
C      1  0.4944210000000  0.5428740000000  0.4614330000000 1.0
C      1  0.4567890000000  0.5435470000000  0.4945070000000 1.0
C      1  0.4761810000000  0.5448480000000  0.5416780000000 1.0
C      1  0.5308570000000  0.4635860000000  0.5361790000000 1.0
C      1  0.5324230000000  0.4466510000000  0.4842270000000 1.0
C      1  0.4958530000000  0.4577500000000  0.4494100000000 1.0
C      1  0.4702860000000  0.4486600000000  0.4910990000000 1.0
C      1  0.4815300000000  0.4544780000000  0.5334090000000 1.0
C      1  0.5154340000000  0.5204960000000  0.5220630000000 1.0
C      1  0.5202820000000  0.5192440000000  0.4929290000000 1.0
C      1  0.4954860000000  0.5169570000000  0.4777670000000 1.0
C      1  0.4723290000000  0.5169760000000  0.4986680000000 1.0
C      1  0.4845070000000  0.5167760000000  0.5273840000000 1.0
C      1  0.5182660000000  0.4822100000000  0.5161440000000 1.0
C      1  0.5269430000000  0.4757670000000  0.4871990000000 1.0
C      1  0.5010240000000  0.4821410000000  0.4700820000000 1.0
C      1  0.4763500000000  0.4790320000000  0.4899630000000 1.0
C      1  0.4884250000000  0.4796690000000  0.5182840000000 1.0
C      1  0.5079700000000  0.5091000000000  0.4359740000000 1.0
C      1  0.4338570000000  0.5148310000000  0.4559310000000 1.0
C      1  0.4493170000000  0.5174130000000  0.5527560000000 1.0
C      1  0.5326750000000  0.5091030000000  0.5602370000000 1.0
C      1  0.5694590000000  0.5182670000000  0.4921270000000 1.0
C      1  0.5152120000000  0.4824830000000  0.4277800000000 1.0
C      1  0.4389330000000  0.4906310000000  0.4698940000000 1.0
C      1  0.4554660000000  0.4883480000000  0.5462110000000 1.0
C      1  0.5293050000000  0.4820950000000  0.5701840000000 1.0
C      1  0.5636520000000  0.4881310000000  0.4912100000000 1.0
C      1  0.4836200000000  0.5156730000000  0.5714850000000 1.0
C      1  0.5545570000000  0.5106100000000  0.5401050000000 1.0
C      1  0.5542920000000  0.5134820000000  0.4565310000000 1.0
C      1  0.4776140000000  0.5100860000000  0.4361210000000 1.0
C      1  0.4287500000000  0.5200880000000  0.5064250000000 1.0
C      1  0.4817730000000  0.4887740000000  0.5611190000000 1.0
C      1  0.5689630000000  0.4867770000000  0.5376600000000 1.0
C      1  0.5554950000000  0.4842850000000  0.4544560000000 1.0
C      1  0.4660110000000  0.4848150000000  0.4303150000000 1.0
C      1  0.4355410000000  0.4932400000000  0.4990990000000 1.0
C      1  0.4500890000000  0.4473640000000  0.5120790000000 1.0
C      1  0.5056880000000  0.4477260000000  0.5482720000000 1.0
C      1  0.5501020000000  0.4488250000000  0.5176530000000 1.0
C      1  0.5243540000000  0.4438030000000  0.4559340000000 1.0
C      1  0.4679000000000  0.4464710000000  0.4615780000000 1.0
C      1  0.4546890000000  0.5565690000000  0.5223320000000 1.0
C      1  0.5061200000000  0.5546090000000  0.5490250000000 1.0
C      1  0.5487060000000  0.5556200000000  0.5190780000000 1.0
C      1  0.5235160000000  0.5521770000000  0.4584320000000 1.0
C      1  0.4663280000000  0.5525690000000  0.4582130000000 1.0
END
