TITL C-9261-551-205 5.16363140310544e-06 125000 -362.030050018989 0 0 60 (C4) n - 1
REM
REM in /home/bkarasulu/CARBON/AIRSS/Generating-Clusters/EDIP-Nigel-Params/Higher-Symm/Box-15A/Only-C60/SD-CG/HFTN-CG
REM
REM
REM
REM
REM
REM ./C.cell (414f73aa93bd7a1190c7fd0f31ff2f98)
REM
REM compiler GCC version 9.2.1 20190827 (Red Hat 9.2.1-1)
REM options -cpp -mtune=generic -march=x86-64 -g -O0 -fpre-include=/usr/include/finclude/math-vector-fortran.h
REM seed 90901858 1075942730 835501061 -58449677 486441026 1355333614 -1167720669 2075158703 1996921646 1546391601 300510505 -1620505958 -358016748 -570782096 2068156606 1743716780 1503410963 1637840606 1108749372 75689987 -1020220462 1288902474 -1937411367 124476229 -1127146666 1282218596 -69683501 1668650879 -801437086 2135434147 714786309 449757703 -483743198
REM
CELL 1.54180   50.00000   50.00000   50.00000   90.00000   90.00000   90.00000
LATT -1
SFAC C  
C      1  0.5059960000000  0.4813060000000  0.5430980000000 1.0
C      1  0.5059940000000  0.5430990000000  0.5186940000000 1.0
C      1  0.5059930000000  0.5186950000000  0.4569010000000 1.0
C      1  0.5059950000000  0.4569020000000  0.4813050000000 1.0
C      1  0.5076720000000  0.5183890000000  0.5432880000000 1.0
C      1  0.5076720000000  0.4567120000000  0.5183880000000 1.0
C      1  0.5076700000000  0.4816120000000  0.4567120000000 1.0
C      1  0.5076700000000  0.5432880000000  0.4816110000000 1.0
C      1  0.5490770000000  0.5136390000000  0.4659360000000 1.0
C      1  0.5490790000000  0.4659380000000  0.4863600000000 1.0
C      1  0.5490790000000  0.4863630000000  0.5340620000000 1.0
C      1  0.5490780000000  0.5340640000000  0.5136370000000 1.0
C      1  0.5545270000000  0.4844550000000  0.4643860000000 1.0
C      1  0.5545270000000  0.5356140000000  0.4844520000000 1.0
C      1  0.5545290000000  0.5155480000000  0.5356110000000 1.0
C      1  0.5545290000000  0.4643890000000  0.5155450000000 1.0
C      1  0.4544430000000  0.5337320000000  0.4873630000000 1.0
C      1  0.4544440000000  0.4873610000000  0.4662680000000 1.0
C      1  0.4544450000000  0.4662660000000  0.5126390000000 1.0
C      1  0.4544450000000  0.5126370000000  0.5337340000000 1.0
C      1  0.4479390000000  0.4664700000000  0.4848140000000 1.0
C      1  0.4479370000000  0.5151860000000  0.4664730000000 1.0
C      1  0.4479380000000  0.5335280000000  0.5151890000000 1.0
C      1  0.4479400000000  0.4848110000000  0.5335300000000 1.0
C      1  0.4856870000000  0.4717450000000  0.5640100000000 1.0
C      1  0.4856850000000  0.5640090000000  0.5282550000000 1.0
C      1  0.4856830000000  0.5282540000000  0.4359910000000 1.0
C      1  0.4856860000000  0.4359900000000  0.4717460000000 1.0
C      1  0.4882470000000  0.5279210000000  0.5644390000000 1.0
C      1  0.4882480000000  0.4355610000000  0.5279210000000 1.0
C      1  0.4882450000000  0.4720790000000  0.4355610000000 1.0
C      1  0.4882440000000  0.5644390000000  0.4720800000000 1.0
C      1  0.5354170000000  0.4426290000000  0.5219830000000 1.0
C      1  0.5354160000000  0.5219850000000  0.5573700000000 1.0
C      1  0.5354130000000  0.5573720000000  0.4780150000000 1.0
C      1  0.5354140000000  0.4780170000000  0.4426280000000 1.0
C      1  0.5332990000000  0.5575640000000  0.5218780000000 1.0
C      1  0.5333020000000  0.4781220000000  0.5575620000000 1.0
C      1  0.5333010000000  0.4424370000000  0.4781200000000 1.0
C      1  0.5332980000000  0.5218800000000  0.4424360000000 1.0
C      1  0.4615270000000  0.4785200000000  0.4407700000000 1.0
C      1  0.4615300000000  0.4407680000000  0.5214800000000 1.0
C      1  0.4615290000000  0.5214780000000  0.5592320000000 1.0
C      1  0.4615260000000  0.5592300000000  0.4785220000000 1.0
C      1  0.4584410000000  0.5247030000000  0.4423310000000 1.0
C      1  0.4584420000000  0.5576700000000  0.5247050000000 1.0
C      1  0.4584450000000  0.4752950000000  0.5576720000000 1.0
C      1  0.4584440000000  0.4423290000000  0.4752980000000 1.0
C      1  0.4924000000000  0.5710940000000  0.4453050000000 1.0
C      1  0.4924020000000  0.4453040000000  0.4289060000000 1.0
C      1  0.4924060000000  0.4289060000000  0.5546960000000 1.0
C      1  0.4924030000000  0.5546950000000  0.5710940000000 1.0
C      1  0.4918300000000  0.4248710000000  0.4466390000000 1.0
C      1  0.4918270000000  0.5533610000000  0.4248720000000 1.0
C      1  0.4918300000000  0.5751280000000  0.5533620000000 1.0
C      1  0.4918330000000  0.4466380000000  0.5751290000000 1.0
C      1  0.5369850000000  0.5757780000000  0.5000400000000 1.0
C      1  0.5369890000000  0.4999600000000  0.5757760000000 1.0
C      1  0.5369850000000  0.5000420000000  0.4242220000000 1.0
C      1  0.5369880000000  0.4242240000000  0.4999580000000 1.0
END
