TITL C-9257-5531-245 6.22799723997159e-07 125000 -368.180089445615 0 0 60 (C2) n - 1
REM
REM in /home/bkarasulu/CARBON/AIRSS/Generating-Clusters/EDIP-Nigel-Params/Higher-Symm/Box-15A/Only-C60/SD-CG/HFTN-CG
REM
REM
REM
REM
REM
REM ./C.cell (414f73aa93bd7a1190c7fd0f31ff2f98)
REM
REM compiler GCC version 9.2.1 20190827 (Red Hat 9.2.1-1)
REM options -cpp -mtune=generic -march=x86-64 -g -O0 -fpre-include=/usr/include/finclude/math-vector-fortran.h
REM seed 835647568 92543875 1345942344 1780360543 1539714704 -1963225447 -1585172987 -587355185 -1935326288 162478413 119300913 1239256520 -417492319 350396718 -1323145010 -997901261 -1899592506 214870434 2143544474 2094236048 756412130 1751504427 -1069531807 1106996669 590304962 1344273932 62751058 2116875904 -1066943423 633547437 322043277 699868519 257689328
REM
CELL 1.54180   50.00000   50.00000   50.00000   90.00000   90.00000   90.00000
LATT -1
SFAC C  
C      1  0.5716560000000  0.5109090000000  0.5357980000000 1.0
C      1  0.5706440000000  0.4641440000000  0.5109730000000 1.0
C      1  0.5716560000000  0.4890950000000  0.4642010000000 1.0
C      1  0.5706420000000  0.5358600000000  0.4890260000000 1.0
C      1  0.4413910000000  0.4993520000000  0.5367380000000 1.0
C      1  0.4417710000000  0.4634180000000  0.5001830000000 1.0
C      1  0.4413910000000  0.5006450000000  0.4632620000000 1.0
C      1  0.4417690000000  0.5365790000000  0.4998180000000 1.0
C      1  0.4786250000000  0.5167040000000  0.5146650000000 1.0
C      1  0.4775990000000  0.4814140000000  0.5192410000000 1.0
C      1  0.4786250000000  0.4832940000000  0.4853350000000 1.0
C      1  0.4775980000000  0.5185850000000  0.4807590000000 1.0
C      1  0.5103600000000  0.5194710000000  0.5129130000000 1.0
C      1  0.5110790000000  0.4870510000000  0.5199210000000 1.0
C      1  0.5103610000000  0.4805300000000  0.4870870000000 1.0
C      1  0.5110780000000  0.5129490000000  0.4800790000000 1.0
C      1  0.5031400000000  0.5628100000000  0.5162900000000 1.0
C      1  0.5025840000000  0.4829240000000  0.5627380000000 1.0
C      1  0.5031430000000  0.4371910000000  0.4837100000000 1.0
C      1  0.5025830000000  0.5170760000000  0.4372620000000 1.0
C      1  0.4749610000000  0.5637040000000  0.5268610000000 1.0
C      1  0.4736770000000  0.4748620000000  0.5628000000000 1.0
C      1  0.4749640000000  0.4362950000000  0.4731390000000 1.0
C      1  0.4736750000000  0.5251370000000  0.4372010000000 1.0
C      1  0.5235200000000  0.4500000000000  0.4669220000000 1.0
C      1  0.5228760000000  0.5341600000000  0.4494500000000 1.0
C      1  0.5235180000000  0.5500010000000  0.5330780000000 1.0
C      1  0.5228780000000  0.4658410000000  0.5505500000000 1.0
C      1  0.4660500000000  0.4640000000000  0.4637930000000 1.0
C      1  0.4597300000000  0.5439690000000  0.4576500000000 1.0
C      1  0.4660480000000  0.5359990000000  0.5362070000000 1.0
C      1  0.4597330000000  0.4560290000000  0.5423500000000 1.0
C      1  0.5755410000000  0.4708440000000  0.4846180000000 1.0
C      1  0.5754130000000  0.5156740000000  0.4707640000000 1.0
C      1  0.5755400000000  0.5291600000000  0.5153820000000 1.0
C      1  0.5754140000000  0.4843300000000  0.5292360000000 1.0
C      1  0.4313500000000  0.4758780000000  0.4756240000000 1.0
C      1  0.4366960000000  0.5287040000000  0.4718130000000 1.0
C      1  0.4313490000000  0.5241190000000  0.5243770000000 1.0
C      1  0.4366970000000  0.4712920000000  0.5281880000000 1.0
C      1  0.5260840000000  0.5289940000000  0.5527400000000 1.0
C      1  0.5247030000000  0.4464950000000  0.5293400000000 1.0
C      1  0.5260850000000  0.4710080000000  0.4472600000000 1.0
C      1  0.5247000000000  0.5535060000000  0.4706590000000 1.0
C      1  0.4766820000000  0.5234780000000  0.5611730000000 1.0
C      1  0.4747300000000  0.4378910000000  0.5223320000000 1.0
C      1  0.4766830000000  0.4765210000000  0.4388280000000 1.0
C      1  0.4747270000000  0.5621080000000  0.4776680000000 1.0
C      1  0.5510550000000  0.4831980000000  0.4467440000000 1.0
C      1  0.5494910000000  0.5529550000000  0.4834650000000 1.0
C      1  0.5510540000000  0.5168050000000  0.5532560000000 1.0
C      1  0.5494940000000  0.4470480000000  0.5165350000000 1.0
C      1  0.4577020000000  0.4997240000000  0.4381070000000 1.0
C      1  0.4571400000000  0.5624720000000  0.5018100000000 1.0
C      1  0.4577020000000  0.5002740000000  0.5618940000000 1.0
C      1  0.4571430000000  0.4375260000000  0.4981900000000 1.0
C      1  0.5029180000000  0.5116340000000  0.5559670000000 1.0
C      1  0.5029180000000  0.4883660000000  0.4440330000000 1.0
C      1  0.5012300000000  0.4449940000000  0.5120710000000 1.0
C      1  0.5012270000000  0.5550060000000  0.4879290000000 1.0
END
