TITL C-9262-5533-192 -7.8428600262687e-07 125000 -364.292738120114 0 0 60 (C1) n - 1
REM
REM in /home/bkarasulu/CARBON/AIRSS/Generating-Clusters/EDIP-Nigel-Params/Higher-Symm/Box-15A/Only-C60/SD-CG/HFTN-CG
REM
REM
REM
REM
REM
REM ./C.cell (414f73aa93bd7a1190c7fd0f31ff2f98)
REM
REM compiler GCC version 9.2.1 20190827 (Red Hat 9.2.1-1)
REM options -cpp -mtune=generic -march=x86-64 -g -O0 -fpre-include=/usr/include/finclude/math-vector-fortran.h
REM seed -717176674 536801929 -2116789995 1889471384 -2082101291 -730251224 -2123156698 -1774639211 -61267963 823454957 287163467 -13430453 250917699 967022293 1198229859 -2137237760 -990859893 780755433 810526915 -1205548667 1621164840 964738383 -1669172225 836470890 1733112015 1773098850 -116145602 1651825065 -968267946 -26037010 -149540992 -1718120416 -699978066
REM
CELL 1.54180   50.00000   50.00000   50.00000   90.00000   90.00000   90.00000
LATT -1
SFAC C  
C      1  0.4533310000000  0.5148740000000  0.4680860000000 1.0
C      1  0.5522360000000  0.5151620000000  0.4730580000000 1.0
C      1  0.4985370000000  0.5145720000000  0.5581400000000 1.0
C      1  0.4533020000000  0.4853320000000  0.4679950000000 1.0
C      1  0.5523810000000  0.4848610000000  0.4728010000000 1.0
C      1  0.4994160000000  0.4848420000000  0.5578820000000 1.0
C      1  0.4472810000000  0.4581250000000  0.5244970000000 1.0
C      1  0.5035240000000  0.4504270000000  0.4426820000000 1.0
C      1  0.5494470000000  0.4497150000000  0.5312370000000 1.0
C      1  0.4471550000000  0.5446140000000  0.5258350000000 1.0
C      1  0.5029080000000  0.5491200000000  0.4431060000000 1.0
C      1  0.5485420000000  0.5499190000000  0.5314030000000 1.0
C      1  0.4960040000000  0.5245720000000  0.5294090000000 1.0
C      1  0.4784480000000  0.5246500000000  0.4815360000000 1.0
C      1  0.5286050000000  0.5253400000000  0.4901230000000 1.0
C      1  0.4979710000000  0.4749500000000  0.5290300000000 1.0
C      1  0.4784160000000  0.4748000000000  0.4817040000000 1.0
C      1  0.5289910000000  0.4744090000000  0.4897810000000 1.0
C      1  0.5017700000000  0.5632340000000  0.4710610000000 1.0
C      1  0.5241030000000  0.5636960000000  0.5173540000000 1.0
C      1  0.4712590000000  0.5610300000000  0.5139470000000 1.0
C      1  0.5023370000000  0.4363630000000  0.4706710000000 1.0
C      1  0.5250230000000  0.4358030000000  0.5170130000000 1.0
C      1  0.4714740000000  0.4398620000000  0.5132780000000 1.0
C      1  0.5393690000000  0.5250100000000  0.5443640000000 1.0
C      1  0.4427510000000  0.5175630000000  0.5110140000000 1.0
C      1  0.5190170000000  0.5245750000000  0.4451690000000 1.0
C      1  0.5405060000000  0.4748820000000  0.5443820000000 1.0
C      1  0.4349830000000  0.4796980000000  0.5081950000000 1.0
C      1  0.5192450000000  0.4752260000000  0.4448560000000 1.0
C      1  0.4443510000000  0.5152360000000  0.5654400000000 1.0
C      1  0.4703580000000  0.5132160000000  0.4272570000000 1.0
C      1  0.5770330000000  0.5136530000000  0.5096890000000 1.0
C      1  0.4443960000000  0.4884720000000  0.5648140000000 1.0
C      1  0.4704500000000  0.4859410000000  0.4272000000000 1.0
C      1  0.5772150000000  0.4863330000000  0.5094440000000 1.0
C      1  0.5477620000000  0.4740340000000  0.4465830000000 1.0
C      1  0.5240430000000  0.4739940000000  0.5678490000000 1.0
C      1  0.4299350000000  0.4756390000000  0.4810910000000 1.0
C      1  0.5475160000000  0.5262620000000  0.4469530000000 1.0
C      1  0.5228930000000  0.5262580000000  0.5677810000000 1.0
C      1  0.4316900000000  0.5237710000000  0.4844260000000 1.0
C      1  0.5265090000000  0.4443690000000  0.4882540000000 1.0
C      1  0.4976790000000  0.4449240000000  0.5288500000000 1.0
C      1  0.4763270000000  0.4452060000000  0.4835040000000 1.0
C      1  0.5258970000000  0.5553760000000  0.4885510000000 1.0
C      1  0.4966900000000  0.5545410000000  0.5292050000000 1.0
C      1  0.4761300000000  0.5543000000000  0.4842570000000 1.0
C      1  0.5686490000000  0.5393460000000  0.5141800000000 1.0
C      1  0.4473370000000  0.5389550000000  0.5532050000000 1.0
C      1  0.4784950000000  0.5386650000000  0.4330880000000 1.0
C      1  0.5694160000000  0.4604470000000  0.5139190000000 1.0
C      1  0.4474860000000  0.4652460000000  0.5516570000000 1.0
C      1  0.4790110000000  0.4605370000000  0.4325740000000 1.0
C      1  0.5066640000000  0.4845750000000  0.4712120000000 1.0
C      1  0.5247480000000  0.4847820000000  0.5194610000000 1.0
C      1  0.4784600000000  0.4853540000000  0.5093590000000 1.0
C      1  0.5066330000000  0.5148450000000  0.4714500000000 1.0
C      1  0.5236270000000  0.5149640000000  0.5196300000000 1.0
C      1  0.4742700000000  0.5135300000000  0.5095070000000 1.0
END
