TITL C-9262-5533-264 3.04740524267927e-06 125000 -362.159964395034 0 0 60 (C1) n - 1
REM
REM in /home/bkarasulu/CARBON/AIRSS/Generating-Clusters/EDIP-Nigel-Params/Higher-Symm/Box-15A/Only-C60/SD-CG/HFTN-CG
REM
REM
REM
REM
REM
REM ./C.cell (414f73aa93bd7a1190c7fd0f31ff2f98)
REM
REM compiler GCC version 9.2.1 20190827 (Red Hat 9.2.1-1)
REM options -cpp -mtune=generic -march=x86-64 -g -O0 -fpre-include=/usr/include/finclude/math-vector-fortran.h
REM seed -1176950928 622267623 -907103027 1659798308 -1161368982 -1168581836 -823038106 -149670445 642304947 -430130506 1236836176 115216848 1805943402 -1026900082 1716719827 -94820760 72910653 1724587124 1590176866 1823879346 -26381924 44930306 1941850993 -979540394 989025680 1903406381 -1144849328 -1702274397 1461985266 386577544 -1718912002 1143954945 862166012
REM
CELL 1.54180   50.00000   50.00000   50.00000   90.00000   90.00000   90.00000
LATT -1
SFAC C  
C      1  0.4881170000000  0.4883380000000  0.4756760000000 1.0
C      1  0.4299770000000  0.4767950000000  0.4455340000000 1.0
C      1  0.5072070000000  0.4738860000000  0.5125830000000 1.0
C      1  0.4698590000000  0.4519530000000  0.4572070000000 1.0
C      1  0.4734240000000  0.5561580000000  0.4814420000000 1.0
C      1  0.5452000000000  0.4722790000000  0.4503890000000 1.0
C      1  0.4709780000000  0.4643080000000  0.4852380000000 1.0
C      1  0.5339770000000  0.5273650000000  0.5708480000000 1.0
C      1  0.4244240000000  0.4830280000000  0.4833450000000 1.0
C      1  0.4691170000000  0.5495130000000  0.4504140000000 1.0
C      1  0.5079340000000  0.4850970000000  0.5648470000000 1.0
C      1  0.5229940000000  0.5154100000000  0.4940790000000 1.0
C      1  0.4918820000000  0.5418370000000  0.4327840000000 1.0
C      1  0.4542570000000  0.5570290000000  0.5056310000000 1.0
C      1  0.4733760000000  0.4973180000000  0.4407030000000 1.0
C      1  0.5193370000000  0.5578790000000  0.5364320000000 1.0
C      1  0.4586760000000  0.5235130000000  0.4407140000000 1.0
C      1  0.5454510000000  0.5234980000000  0.5125960000000 1.0
C      1  0.4931360000000  0.5174800000000  0.5489060000000 1.0
C      1  0.4883570000000  0.4400920000000  0.5493750000000 1.0
C      1  0.5473330000000  0.4748490000000  0.4794360000000 1.0
C      1  0.4538530000000  0.5104050000000  0.5699730000000 1.0
C      1  0.5333090000000  0.4277930000000  0.4852450000000 1.0
C      1  0.5340230000000  0.5011590000000  0.5600920000000 1.0
C      1  0.4916750000000  0.4497940000000  0.5015450000000 1.0
C      1  0.5065590000000  0.4335320000000  0.4803090000000 1.0
C      1  0.5723420000000  0.4919290000000  0.4921340000000 1.0
C      1  0.4778840000000  0.4349850000000  0.5231580000000 1.0
C      1  0.5185500000000  0.4873990000000  0.4889310000000 1.0
C      1  0.5431660000000  0.5497760000000  0.5245520000000 1.0
C      1  0.5491990000000  0.5583050000000  0.4799460000000 1.0
C      1  0.5122170000000  0.5395940000000  0.5581860000000 1.0
C      1  0.5697070000000  0.5218780000000  0.4956630000000 1.0
C      1  0.4695620000000  0.4875410000000  0.5688970000000 1.0
C      1  0.5661280000000  0.4811460000000  0.5205520000000 1.0
C      1  0.5561020000000  0.4533120000000  0.5203980000000 1.0
C      1  0.5113880000000  0.4572260000000  0.5533280000000 1.0
C      1  0.4639060000000  0.5075180000000  0.5078750000000 1.0
C      1  0.5168860000000  0.4720230000000  0.4472740000000 1.0
C      1  0.4651390000000  0.5280790000000  0.5518270000000 1.0
C      1  0.4995350000000  0.5702500000000  0.4899460000000 1.0
C      1  0.4519790000000  0.5308710000000  0.5240730000000 1.0
C      1  0.4224320000000  0.4989350000000  0.4607280000000 1.0
C      1  0.5339560000000  0.4502560000000  0.5378180000000 1.0
C      1  0.4755730000000  0.5171770000000  0.4799830000000 1.0
C      1  0.4704410000000  0.5650170000000  0.5281380000000 1.0
C      1  0.4871450000000  0.4935590000000  0.5259040000000 1.0
C      1  0.5031120000000  0.4954700000000  0.4352210000000 1.0
C      1  0.4575810000000  0.4718910000000  0.4383750000000 1.0
C      1  0.4971850000000  0.5634140000000  0.5185950000000 1.0
C      1  0.5118330000000  0.5228030000000  0.4429280000000 1.0
C      1  0.5214060000000  0.5582290000000  0.4741570000000 1.0
C      1  0.5468900000000  0.5006450000000  0.5325490000000 1.0
C      1  0.4415430000000  0.4869080000000  0.5061950000000 1.0
C      1  0.4512740000000  0.4630390000000  0.5206220000000 1.0
C      1  0.5000560000000  0.4475100000000  0.4541710000000 1.0
C      1  0.5700420000000  0.5412860000000  0.4752890000000 1.0
C      1  0.5084940000000  0.5304680000000  0.4731520000000 1.0
C      1  0.5513530000000  0.4478080000000  0.4917780000000 1.0
C      1  0.4715630000000  0.4734460000000  0.5423140000000 1.0
END
