TITL C-9267-1554-139 -6.00807726817424e-07 125000 -362.807182227946 0 0 60 (C3i) n - 1
REM
REM in /home/bkarasulu/CARBON/AIRSS/Generating-Clusters/EDIP-Nigel-Params/Higher-Symm/Box-15A/Only-C60/SD-CG/HFTN-CG
REM
REM
REM
REM
REM
REM ./C.cell (414f73aa93bd7a1190c7fd0f31ff2f98)
REM
REM compiler GCC version 9.2.1 20190827 (Red Hat 9.2.1-1)
REM options -cpp -mtune=generic -march=x86-64 -g -O0 -fpre-include=/usr/include/finclude/math-vector-fortran.h
REM seed 1056850196 -1356691396 104712335 -2111221080 -820611067 -1403123305 -710227694 -1834967971 1496835152 -717674494 1316495950 -1315682819 1172473693 1538235562 143325516 236744915 -1528709381 -346584624 1727584090 1700535951 -1085805599 1076682164 979978174 -1110027461 27407727 -1575509559 -1246799069 1930944968 1320171903 -1417647020 1749566614 921393677 1381797780
REM
CELL 1.54180   50.00000   50.00000   50.00000   90.00000   90.00000   90.00000
LATT -1
SFAC C  
C      1  0.4426580000000  0.4667150000000  0.5027630000000 1.0
C      1  0.4696460000000  0.5337690000000  0.4516070000000 1.0
C      1  0.5260170000000  0.4655050000000  0.4496330000000 1.0
C      1  0.5573420000000  0.5332850000000  0.4972370000000 1.0
C      1  0.5303540000000  0.4662310000000  0.5483930000000 1.0
C      1  0.4739830000000  0.5344950000000  0.5503670000000 1.0
C      1  0.4686210000000  0.4310720000000  0.5275870000000 1.0
C      1  0.4618810000000  0.5697010000000  0.4863830000000 1.0
C      1  0.4912680000000  0.4303330000000  0.4604140000000 1.0
C      1  0.5313790000000  0.5689280000000  0.4724130000000 1.0
C      1  0.5381190000000  0.4302990000000  0.5136170000000 1.0
C      1  0.5087320000000  0.5696670000000  0.5395860000000 1.0
C      1  0.4350330000000  0.5024280000000  0.4491540000000 1.0
C      1  0.5114990000000  0.4970540000000  0.4183240000000 1.0
C      1  0.5765290000000  0.5012300000000  0.4691190000000 1.0
C      1  0.5649670000000  0.4975720000000  0.5508460000000 1.0
C      1  0.4885010000000  0.5029460000000  0.5816760000000 1.0
C      1  0.4234710000000  0.4987700000000  0.5308810000000 1.0
C      1  0.4829160000000  0.4522170000000  0.5386910000000 1.0
C      1  0.4589670000000  0.5486730000000  0.5043840000000 1.0
C      1  0.4746670000000  0.4517380000000  0.4668180000000 1.0
C      1  0.5170840000000  0.5477830000000  0.4613090000000 1.0
C      1  0.5410330000000  0.4513270000000  0.4956160000000 1.0
C      1  0.5253330000000  0.5482620000000  0.5331820000000 1.0
C      1  0.4891200000000  0.5534780000000  0.4554120000000 1.0
C      1  0.5320410000000  0.4457280000000  0.4684680000000 1.0
C      1  0.5444620000000  0.5533870000000  0.5118040000000 1.0
C      1  0.5108800000000  0.4465220000000  0.5445880000000 1.0
C      1  0.4679590000000  0.5542720000000  0.5315320000000 1.0
C      1  0.4555380000000  0.4466130000000  0.4881960000000 1.0
C      1  0.5293430000000  0.4996920000000  0.5031130000000 1.0
C      1  0.5119790000000  0.5001460000000  0.5269690000000 1.0
C      1  0.4826340000000  0.5003000000000  0.5238570000000 1.0
C      1  0.4706570000000  0.5003080000000  0.4968870000000 1.0
C      1  0.4880210000000  0.4998540000000  0.4730310000000 1.0
C      1  0.5173660000000  0.4997000000000  0.4761430000000 1.0
C      1  0.5301140000000  0.5116980000000  0.4314080000000 1.0
C      1  0.5741970000000  0.4867080000000  0.4918300000000 1.0
C      1  0.5444420000000  0.5125610000000  0.5601310000000 1.0
C      1  0.4698860000000  0.4883020000000  0.5685920000000 1.0
C      1  0.4258030000000  0.5132920000000  0.5081700000000 1.0
C      1  0.4555580000000  0.4874390000000  0.4398690000000 1.0
C      1  0.4797160000000  0.4784450000000  0.4527690000000 1.0
C      1  0.5312100000000  0.5207630000000  0.4587490000000 1.0
C      1  0.5508800000000  0.4781820000000  0.5064780000000 1.0
C      1  0.5202840000000  0.5215550000000  0.5472310000000 1.0
C      1  0.4687900000000  0.4792370000000  0.5412510000000 1.0
C      1  0.4491200000000  0.5218180000000  0.4935220000000 1.0
C      1  0.5591380000000  0.5230580000000  0.4709790000000 1.0
C      1  0.5542030000000  0.4759190000000  0.5367870000000 1.0
C      1  0.4957490000000  0.5243960000000  0.5652530000000 1.0
C      1  0.4408620000000  0.4769420000000  0.5290210000000 1.0
C      1  0.4457970000000  0.5240810000000  0.4632130000000 1.0
C      1  0.5042510000000  0.4756040000000  0.4347470000000 1.0
C      1  0.5409210000000  0.5767040000000  0.4966110000000 1.0
C      1  0.5217730000000  0.4229340000000  0.5340050000000 1.0
C      1  0.4830640000000  0.5775610000000  0.5355970000000 1.0
C      1  0.4590790000000  0.4232960000000  0.5033890000000 1.0
C      1  0.4782270000000  0.5770660000000  0.4659950000000 1.0
C      1  0.5169360000000  0.4224390000000  0.4644030000000 1.0
END
