TITL C-9267-1554-130 -1.74472681317832e-07 125000 -376.022719826695 0 0 60 (C1) n - 1
REM
REM in /home/bkarasulu/CARBON/AIRSS/Generating-Clusters/EDIP-Nigel-Params/Higher-Symm/Box-15A/Only-C60/SD-CG/HFTN-CG
REM
REM
REM
REM
REM
REM ./C.cell (414f73aa93bd7a1190c7fd0f31ff2f98)
REM
REM compiler GCC version 9.2.1 20190827 (Red Hat 9.2.1-1)
REM options -cpp -mtune=generic -march=x86-64 -g -O0 -fpre-include=/usr/include/finclude/math-vector-fortran.h
REM seed -1052599668 -1782622951 -151345090 1321553236 2134154377 -798765561 -781258838 1514210351 2020122629 -629240839 112522212 -794188632 -1886181329 208415615 -454032103 1993655324 721698878 68274054 264108962 1721216275 -1105755309 24382609 605362829 799433534 892847427 -1827953912 -110910823 2050214204 994477834 -14777328 587307169 2131740937 -407358585
REM
CELL 1.54180   50.00000   50.00000   50.00000   90.00000   90.00000   90.00000
LATT -1
SFAC C  
C      1  0.4834730000000  0.5412530000000  0.4499180000000 1.0
C      1  0.4877810000000  0.5510110000000  0.5172320000000 1.0
C      1  0.4822640000000  0.4916730000000  0.5698070000000 1.0
C      1  0.4831040000000  0.4335920000000  0.5159050000000 1.0
C      1  0.4862220000000  0.4623760000000  0.4420690000000 1.0
C      1  0.5050160000000  0.5629440000000  0.5396690000000 1.0
C      1  0.5075840000000  0.4797050000000  0.5785580000000 1.0
C      1  0.5067570000000  0.4191900000000  0.5072460000000 1.0
C      1  0.5094200000000  0.4605170000000  0.4259700000000 1.0
C      1  0.5060280000000  0.5595310000000  0.4470370000000 1.0
C      1  0.4418870000000  0.4772150000000  0.5463350000000 1.0
C      1  0.4489960000000  0.4601310000000  0.4940100000000 1.0
C      1  0.4515840000000  0.4915660000000  0.4587280000000 1.0
C      1  0.4400980000000  0.5465800000000  0.4776800000000 1.0
C      1  0.4394700000000  0.5390540000000  0.5346330000000 1.0
C      1  0.5537430000000  0.5112180000000  0.4767750000000 1.0
C      1  0.5559530000000  0.5244990000000  0.5028530000000 1.0
C      1  0.5561240000000  0.5037750000000  0.5238180000000 1.0
C      1  0.5543300000000  0.4777070000000  0.5106390000000 1.0
C      1  0.5539570000000  0.4822370000000  0.4815370000000 1.0
C      1  0.5018870000000  0.4790990000000  0.5137920000000 1.0
C      1  0.5049930000000  0.4844230000000  0.4844990000000 1.0
C      1  0.5015310000000  0.5139430000000  0.4791530000000 1.0
C      1  0.5067270000000  0.5283950000000  0.5066110000000 1.0
C      1  0.5067680000000  0.5067170000000  0.5282110000000 1.0
C      1  0.5080450000000  0.5127750000000  0.4172270000000 1.0
C      1  0.5063150000000  0.5786050000000  0.4795370000000 1.0
C      1  0.5046430000000  0.5401310000000  0.5620670000000 1.0
C      1  0.5080290000000  0.4468350000000  0.5593940000000 1.0
C      1  0.5068760000000  0.4245750000000  0.4693170000000 1.0
C      1  0.5335580000000  0.5069510000000  0.5433260000000 1.0
C      1  0.5300190000000  0.4619520000000  0.5198080000000 1.0
C      1  0.5289230000000  0.4701960000000  0.4704080000000 1.0
C      1  0.5289380000000  0.5199380000000  0.4615390000000 1.0
C      1  0.5333850000000  0.5437560000000  0.5064530000000 1.0
C      1  0.4849230000000  0.4502260000000  0.5420780000000 1.0
C      1  0.4835990000000  0.4412580000000  0.4648310000000 1.0
C      1  0.4850490000000  0.5152820000000  0.4334380000000 1.0
C      1  0.4814580000000  0.5692320000000  0.4922260000000 1.0
C      1  0.4871450000000  0.5172340000000  0.5504120000000 1.0
C      1  0.4647890000000  0.5031600000000  0.4815380000000 1.0
C      1  0.4439090000000  0.5221290000000  0.4905120000000 1.0
C      1  0.4346470000000  0.5174540000000  0.5174990000000 1.0
C      1  0.4492800000000  0.4939730000000  0.5252120000000 1.0
C      1  0.4652040000000  0.4824870000000  0.5034790000000 1.0
C      1  0.4667480000000  0.4690250000000  0.5571410000000 1.0
C      1  0.4683110000000  0.4407110000000  0.4907640000000 1.0
C      1  0.4721300000000  0.4889620000000  0.4406110000000 1.0
C      1  0.4661500000000  0.5548180000000  0.4707670000000 1.0
C      1  0.4679470000000  0.5386150000000  0.5371330000000 1.0
C      1  0.5317470000000  0.5636650000000  0.4831910000000 1.0
C      1  0.5340670000000  0.5343770000000  0.5560230000000 1.0
C      1  0.5327210000000  0.4578480000000  0.5493370000000 1.0
C      1  0.5305720000000  0.4401110000000  0.4761860000000 1.0
C      1  0.5279090000000  0.5045510000000  0.4355430000000 1.0
C      1  0.5326090000000  0.4838090000000  0.5633440000000 1.0
C      1  0.5307990000000  0.4354350000000  0.5051080000000 1.0
C      1  0.5283750000000  0.4756300000000  0.4406490000000 1.0
C      1  0.5312190000000  0.5495320000000  0.4572100000000 1.0
C      1  0.5342650000000  0.5564080000000  0.5340090000000 1.0
END
