TITL C-9262-5533-191 1.75975705580808e-06 125000 -354.007565789107 0 0 60 (C1) n - 1
REM
REM in /home/bkarasulu/CARBON/AIRSS/Generating-Clusters/EDIP-Nigel-Params/Higher-Symm/Box-15A/Only-C60/SD-CG/HFTN-CG
REM
REM
REM
REM
REM
REM ./C.cell (414f73aa93bd7a1190c7fd0f31ff2f98)
REM
REM compiler GCC version 9.2.1 20190827 (Red Hat 9.2.1-1)
REM options -cpp -mtune=generic -march=x86-64 -g -O0 -fpre-include=/usr/include/finclude/math-vector-fortran.h
REM seed -1755170777 -1885049063 -2075396911 -849681131 -2039898011 448132201 1536925352 -877929824 592928580 780059833 -230627013 1477076017 -700269683 -297566031 1877037711 1736492847 -1244104822 1323359668 1045636106 -582780972 -1262416741 -89095399 1393517115 -1016494545 1990531642 207329029 -1916642301 1339906808 -1658573816 125754872 840019364 -1348080775 -1208537874
REM
CELL 1.54180   50.00000   50.00000   50.00000   90.00000   90.00000   90.00000
LATT -1
SFAC C  
C      1  0.5283610000000  0.4892550000000  0.4387610000000 1.0
C      1  0.4342370000000  0.5278400000000  0.4703760000000 1.0
C      1  0.4667270000000  0.4480310000000  0.5474030000000 1.0
C      1  0.5378060000000  0.5283760000000  0.5643710000000 1.0
C      1  0.4751330000000  0.5150410000000  0.4285370000000 1.0
C      1  0.4882870000000  0.4880370000000  0.5719830000000 1.0
C      1  0.4353310000000  0.4609920000000  0.5028840000000 1.0
C      1  0.5549070000000  0.4613100000000  0.4771780000000 1.0
C      1  0.5865120000000  0.5138060000000  0.4960510000000 1.0
C      1  0.4779710000000  0.5689940000000  0.4861880000000 1.0
C      1  0.5130680000000  0.5706770000000  0.5321430000000 1.0
C      1  0.5233830000000  0.4230580000000  0.4825380000000 1.0
C      1  0.4763370000000  0.4770620000000  0.4335570000000 1.0
C      1  0.5738140000000  0.5484500000000  0.4820430000000 1.0
C      1  0.4925140000000  0.4237090000000  0.5321000000000 1.0
C      1  0.4651270000000  0.5182770000000  0.5667970000000 1.0
C      1  0.5272310000000  0.5275020000000  0.4401140000000 1.0
C      1  0.5389670000000  0.4894810000000  0.5616490000000 1.0
C      1  0.5621630000000  0.4666680000000  0.5151460000000 1.0
C      1  0.4376100000000  0.4786200000000  0.4688390000000 1.0
C      1  0.4298420000000  0.5201190000000  0.5106790000000 1.0
C      1  0.5158280000000  0.5701070000000  0.4792640000000 1.0
C      1  0.4758700000000  0.5639120000000  0.5401670000000 1.0
C      1  0.4968100000000  0.4271550000000  0.4548100000000 1.0
C      1  0.4708250000000  0.5430780000000  0.4966470000000 1.0
C      1  0.4923330000000  0.4904170000000  0.5426580000000 1.0
C      1  0.5291030000000  0.4733590000000  0.4858820000000 1.0
C      1  0.4798250000000  0.4664680000000  0.5281070000000 1.0
C      1  0.5110260000000  0.4486050000000  0.4912170000000 1.0
C      1  0.5112370000000  0.5433310000000  0.5208910000000 1.0
C      1  0.4811390000000  0.5271740000000  0.4539050000000 1.0
C      1  0.5261250000000  0.5249700000000  0.5386410000000 1.0
C      1  0.5134580000000  0.4910610000000  0.4642490000000 1.0
C      1  0.5582700000000  0.5116790000000  0.5010040000000 1.0
C      1  0.4620460000000  0.5220110000000  0.4761380000000 1.0
C      1  0.4577840000000  0.4792850000000  0.5086530000000 1.0
C      1  0.5202770000000  0.5427380000000  0.4892920000000 1.0
C      1  0.5238160000000  0.4960970000000  0.5368680000000 1.0
C      1  0.4631950000000  0.4900430000000  0.4795030000000 1.0
C      1  0.5002980000000  0.4476310000000  0.5184790000000 1.0
C      1  0.4894580000000  0.4494090000000  0.4713670000000 1.0
C      1  0.4814060000000  0.5396860000000  0.5240730000000 1.0
C      1  0.5095080000000  0.5226280000000  0.4635540000000 1.0
C      1  0.4716660000000  0.5137390000000  0.5383860000000 1.0
C      1  0.4855420000000  0.4769410000000  0.4616730000000 1.0
C      1  0.4481540000000  0.5027980000000  0.5235710000000 1.0
C      1  0.5491430000000  0.5366650000000  0.4907340000000 1.0
C      1  0.5421000000000  0.4881310000000  0.5106290000000 1.0
C      1  0.5741680000000  0.4527420000000  0.4947740000000 1.0
C      1  0.4142780000000  0.5237560000000  0.4885050000000 1.0
C      1  0.5982760000000  0.5363930000000  0.4856330000000 1.0
C      1  0.4950850000000  0.5807490000000  0.5502740000000 1.0
C      1  0.5491420000000  0.5081720000000  0.5790550000000 1.0
C      1  0.4265690000000  0.4549500000000  0.4775660000000 1.0
C      1  0.5113970000000  0.4059350000000  0.4645320000000 1.0
C      1  0.4773570000000  0.4237780000000  0.5550430000000 1.0
C      1  0.4934070000000  0.5765710000000  0.4644590000000 1.0
C      1  0.5449910000000  0.5091990000000  0.4297500000000 1.0
C      1  0.4670530000000  0.4986410000000  0.5858870000000 1.0
C      1  0.4567070000000  0.4946870000000  0.4248220000000 1.0
END
