TITL C-9257-5531-157 -0.000389840406833273 125000 -355.830980811719 0 0 60 (C1) n - 1
REM
REM in /home/bkarasulu/CARBON/AIRSS/Generating-Clusters/EDIP-Nigel-Params/Higher-Symm/Box-15A/Only-C60/SD-CG/HFTN-CG
REM
REM
REM
REM
REM
REM ./C.cell (414f73aa93bd7a1190c7fd0f31ff2f98)
REM
REM compiler GCC version 9.2.1 20190827 (Red Hat 9.2.1-1)
REM options -cpp -mtune=generic -march=x86-64 -g -O0 -fpre-include=/usr/include/finclude/math-vector-fortran.h
REM seed -1048749904 -1147058065 -1361065571 1303366361 59722516 2098070806 -1895792614 1894260218 -1058240620 -1350594049 293475441 1322937932 2033458046 78445140 -465878302 1660925338 -50223246 -405762925 -527267691 -67556582 1135757856 1665856725 1806564670 -714850508 -1468372996 -698926841 616510068 197810005 -1255299121 1101856110 1682754192 -2140164772 -976513193
REM
CELL 1.54180   50.00000   50.00000   50.00000   90.00000   90.00000   90.00000
LATT -1
SFAC C  
C      1  0.5167030000000  0.4633220000000  0.5675150000000 1.0
C      1  0.5094190000000  0.4210510000000  0.5083520000000 1.0
C      1  0.5083220000000  0.4537640000000  0.4497570000000 1.0
C      1  0.5040820000000  0.5190420000000  0.4307480000000 1.0
C      1  0.5109280000000  0.5724700000000  0.4770470000000 1.0
C      1  0.4974270000000  0.5540630000000  0.5198490000000 1.0
C      1  0.5061180000000  0.5128100000000  0.5693200000000 1.0
C      1  0.4588390000000  0.5286830000000  0.4446300000000 1.0
C      1  0.4648850000000  0.5576870000000  0.4900790000000 1.0
C      1  0.4537120000000  0.5405410000000  0.5359170000000 1.0
C      1  0.4556110000000  0.5081240000000  0.5662340000000 1.0
C      1  0.4658370000000  0.4630520000000  0.5498960000000 1.0
C      1  0.4674780000000  0.4455940000000  0.4965030000000 1.0
C      1  0.4606470000000  0.4726350000000  0.4507120000000 1.0
C      1  0.5255360000000  0.4907270000000  0.5597930000000 1.0
C      1  0.5276390000000  0.4482090000000  0.5451170000000 1.0
C      1  0.5338500000000  0.4296370000000  0.4939520000000 1.0
C      1  0.5238100000000  0.4782920000000  0.4467920000000 1.0
C      1  0.5267420000000  0.5312800000000  0.4436780000000 1.0
C      1  0.5314950000000  0.5587930000000  0.4920720000000 1.0
C      1  0.5090780000000  0.5271130000000  0.5274920000000 1.0
C      1  0.4920840000000  0.5063130000000  0.5410870000000 1.0
C      1  0.5019190000000  0.4770930000000  0.5285680000000 1.0
C      1  0.5050020000000  0.4387100000000  0.5306350000000 1.0
C      1  0.5074280000000  0.4537710000000  0.4801750000000 1.0
C      1  0.4977340000000  0.4961530000000  0.4491670000000 1.0
C      1  0.4987620000000  0.5486290000000  0.4626810000000 1.0
C      1  0.4999800000000  0.5312790000000  0.4884700000000 1.0
C      1  0.5844790000000  0.4786450000000  0.5138860000000 1.0
C      1  0.5722630000000  0.4651230000000  0.4918960000000 1.0
C      1  0.5687160000000  0.4843420000000  0.4707020000000 1.0
C      1  0.5822050000000  0.5085880000000  0.4771840000000 1.0
C      1  0.5745000000000  0.5295240000000  0.4946700000000 1.0
C      1  0.5829320000000  0.5249190000000  0.5210460000000 1.0
C      1  0.5762470000000  0.4996020000000  0.5311270000000 1.0
C      1  0.5456940000000  0.4558800000000  0.4998180000000 1.0
C      1  0.5384060000000  0.4881020000000  0.4705280000000 1.0
C      1  0.5363890000000  0.5178510000000  0.4677530000000 1.0
C      1  0.5443460000000  0.5319950000000  0.4926910000000 1.0
C      1  0.5321070000000  0.5152000000000  0.5145990000000 1.0
C      1  0.5462520000000  0.4950770000000  0.5335100000000 1.0
C      1  0.5441730000000  0.4651660000000  0.5271910000000 1.0
C      1  0.4859070000000  0.4240480000000  0.4912760000000 1.0
C      1  0.4834730000000  0.4624140000000  0.4366020000000 1.0
C      1  0.4817470000000  0.5365740000000  0.4297400000000 1.0
C      1  0.4861160000000  0.5781600000000  0.4916170000000 1.0
C      1  0.4754040000000  0.5586380000000  0.5379240000000 1.0
C      1  0.4800660000000  0.5100430000000  0.5801240000000 1.0
C      1  0.4887270000000  0.4595510000000  0.5658270000000 1.0
C      1  0.4556300000000  0.5466670000000  0.4659310000000 1.0
C      1  0.4465800000000  0.5553070000000  0.5122650000000 1.0
C      1  0.4407310000000  0.5308810000000  0.5587100000000 1.0
C      1  0.4481930000000  0.4825980000000  0.5583900000000 1.0
C      1  0.4655870000000  0.4568670000000  0.5224460000000 1.0
C      1  0.4555870000000  0.4587390000000  0.4747270000000 1.0
C      1  0.4544980000000  0.5004680000000  0.4474640000000 1.0
C      1  0.4393200000000  0.5006770000000  0.4887040000000 1.0
C      1  0.4923490000000  0.5022970000000  0.4813790000000 1.0
C      1  0.5102390000000  0.4815130000000  0.4964250000000 1.0
C      1  0.4651680000000  0.4990830000000  0.4907070000000 1.0
END
