TITL C-9264-7143-91 5.79209317127887e-06 125000 -364.780222960278 0 0 60 (C1) n - 1
REM
REM in /home/bkarasulu/CARBON/AIRSS/Generating-Clusters/EDIP-Nigel-Params/Higher-Symm/Box-15A/Only-C60/SD-CG/HFTN-CG
REM
REM
REM
REM
REM
REM ./C.cell (414f73aa93bd7a1190c7fd0f31ff2f98)
REM
REM compiler GCC version 9.2.1 20190827 (Red Hat 9.2.1-1)
REM options -cpp -mtune=generic -march=x86-64 -g -O0 -fpre-include=/usr/include/finclude/math-vector-fortran.h
REM seed -910135178 -225717320 -340199583 1976228566 -394471676 524426427 -1629411074 -1455778086 446431028 1445259796 672760848 914559898 -673453841 714723112 -1641176959 1039255615 490599677 263261917 -1490006613 -1239464191 513048201 -1929058434 -906284916 -392970507 -1080204222 164193338 -1511551538 -455209066 59023122 1872525024 -149389742 145153219 -1473577529
REM
CELL 1.54180   50.00000   50.00000   50.00000   90.00000   90.00000   90.00000
LATT -1
SFAC C  
C      1  0.5070290000000  0.4725160000000  0.5672190000000 1.0
C      1  0.4762840000000  0.5680960000000  0.5082030000000 1.0
C      1  0.5665170000000  0.5123630000000  0.4724850000000 1.0
C      1  0.5075870000000  0.5299320000000  0.4245430000000 1.0
C      1  0.4916140000000  0.4700560000000  0.4294120000000 1.0
C      1  0.4919170000000  0.5234880000000  0.5716550000000 1.0
C      1  0.4734440000000  0.4311520000000  0.4895560000000 1.0
C      1  0.5259470000000  0.5639410000000  0.4927440000000 1.0
C      1  0.5298700000000  0.4336080000000  0.5091510000000 1.0
C      1  0.5706870000000  0.4896570000000  0.5295600000000 1.0
C      1  0.4244590000000  0.5046110000000  0.5286460000000 1.0
C      1  0.4485360000000  0.4852520000000  0.4764750000000 1.0
C      1  0.5140070000000  0.5626650000000  0.4675670000000 1.0
C      1  0.4675750000000  0.5133530000000  0.5611980000000 1.0
C      1  0.5704070000000  0.4721660000000  0.5089500000000 1.0
C      1  0.5116360000000  0.4398760000000  0.5285530000000 1.0
C      1  0.4928290000000  0.4302890000000  0.4707810000000 1.0
C      1  0.4893420000000  0.5640060000000  0.5326330000000 1.0
C      1  0.4730690000000  0.4900890000000  0.4297370000000 1.0
C      1  0.5292300000000  0.4879790000000  0.5702990000000 1.0
C      1  0.5287850000000  0.5107350000000  0.4259530000000 1.0
C      1  0.5697810000000  0.5287020000000  0.4945200000000 1.0
C      1  0.4353940000000  0.5264100000000  0.5142280000000 1.0
C      1  0.4286300000000  0.4711970000000  0.4904810000000 1.0
C      1  0.5376320000000  0.4443000000000  0.4844480000000 1.0
C      1  0.4362850000000  0.4804070000000  0.5383490000000 1.0
C      1  0.4836160000000  0.5369280000000  0.4390160000000 1.0
C      1  0.5336310000000  0.5518720000000  0.5169780000000 1.0
C      1  0.4647870000000  0.4429160000000  0.5134530000000 1.0
C      1  0.4652320000000  0.5572070000000  0.4836640000000 1.0
C      1  0.4443730000000  0.5124780000000  0.4645040000000 1.0
C      1  0.5550630000000  0.4874830000000  0.4652320000000 1.0
C      1  0.5571690000000  0.5128290000000  0.5377740000000 1.0
C      1  0.4816420000000  0.4636540000000  0.5577630000000 1.0
C      1  0.5163970000000  0.5328990000000  0.5607410000000 1.0
C      1  0.5165390000000  0.4626740000000  0.4408140000000 1.0
C      1  0.5373520000000  0.4852250000000  0.4407010000000 1.0
C      1  0.4432150000000  0.5342810000000  0.4862510000000 1.0
C      1  0.4842580000000  0.4444250000000  0.5351220000000 1.0
C      1  0.5376460000000  0.5125660000000  0.5598440000000 1.0
C      1  0.4651980000000  0.5142360000000  0.4425010000000 1.0
C      1  0.4580360000000  0.4826550000000  0.5604890000000 1.0
C      1  0.4421900000000  0.4628220000000  0.5144070000000 1.0
C      1  0.5579790000000  0.4657190000000  0.4845530000000 1.0
C      1  0.5578070000000  0.5354900000000  0.5192690000000 1.0
C      1  0.4857660000000  0.5572730000000  0.4606500000000 1.0
C      1  0.5163210000000  0.5551490000000  0.5404220000000 1.0
C      1  0.5166780000000  0.4434590000000  0.4636060000000 1.0
C      1  0.5197560000000  0.4821170000000  0.4968700000000 1.0
C      1  0.4670830000000  0.5135710000000  0.5307200000000 1.0
C      1  0.5118510000000  0.5252110000000  0.4753590000000 1.0
C      1  0.5315410000000  0.5119470000000  0.4933770000000 1.0
C      1  0.4749370000000  0.4848470000000  0.5197600000000 1.0
C      1  0.4848770000000  0.5238410000000  0.4896280000000 1.0
C      1  0.4749650000000  0.4929820000000  0.4900810000000 1.0
C      1  0.5054880000000  0.5026210000000  0.4560000000000 1.0
C      1  0.5161010000000  0.5115380000000  0.5223950000000 1.0
C      1  0.5060520000000  0.4809010000000  0.5256890000000 1.0
C      1  0.4979700000000  0.4813000000000  0.4765030000000 1.0
C      1  0.4899880000000  0.5280410000000  0.5185180000000 1.0
END
