TITL C-9268-6400-24 2.08844594442586e-05 125000 -361.537799626287 0 0 60 (C1) n - 1
REM
REM in /home/bkarasulu/CARBON/AIRSS/Generating-Clusters/EDIP-Nigel-Params/Higher-Symm/Box-15A/Only-C60/SD-CG/HFTN-CG
REM
REM
REM
REM
REM
REM ./C.cell (414f73aa93bd7a1190c7fd0f31ff2f98)
REM
REM compiler GCC version 9.2.1 20190827 (Red Hat 9.2.1-1)
REM options -cpp -mtune=generic -march=x86-64 -g -O0 -fpre-include=/usr/include/finclude/math-vector-fortran.h
REM seed -1519740368 1707846236 2008385487 -1153722476 2141444425 1918457085 622987608 908210736 -1689605297 -1494097184 1173578727 1017909920 -417953202 2040419988 1522977417 1480072979 105728435 1489750243 -101897731 854353897 -540037292 -660747059 -589846310 -1622898482 548184312 -1123463628 -1281358798 1849190150 1174573626 1834910158 282641764 1124552936 1923985783
REM
CELL 1.54180   50.00000   50.00000   50.00000   90.00000   90.00000   90.00000
LATT -1
SFAC C  
C      1  0.5294450000000  0.4674550000000  0.5353960000000 1.0
C      1  0.5368370000000  0.4989880000000  0.5323170000000 1.0
C      1  0.5174220000000  0.5331170000000  0.5297290000000 1.0
C      1  0.4880230000000  0.5477650000000  0.5301100000000 1.0
C      1  0.4667240000000  0.5266210000000  0.5255660000000 1.0
C      1  0.4797610000000  0.4793970000000  0.5293100000000 1.0
C      1  0.4991080000000  0.4570960000000  0.5289370000000 1.0
C      1  0.5443020000000  0.4826360000000  0.4468760000000 1.0
C      1  0.5439760000000  0.5128200000000  0.4522880000000 1.0
C      1  0.5164320000000  0.5283570000000  0.4532140000000 1.0
C      1  0.4626370000000  0.5223880000000  0.4539390000000 1.0
C      1  0.4474530000000  0.4969820000000  0.4597880000000 1.0
C      1  0.4655000000000  0.4739600000000  0.4525870000000 1.0
C      1  0.5170310000000  0.4685130000000  0.4506920000000 1.0
C      1  0.4626060000000  0.5443360000000  0.5696040000000 1.0
C      1  0.4495600000000  0.4985200000000  0.5619940000000 1.0
C      1  0.4683320000000  0.4522590000000  0.5658740000000 1.0
C      1  0.5144590000000  0.4428470000000  0.5720280000000 1.0
C      1  0.5443610000000  0.4814830000000  0.5771330000000 1.0
C      1  0.5456830000000  0.5287800000000  0.5691270000000 1.0
C      1  0.5084740000000  0.5587950000000  0.5702580000000 1.0
C      1  0.5109620000000  0.5550350000000  0.4670480000000 1.0
C      1  0.4534990000000  0.5716780000000  0.4751320000000 1.0
C      1  0.4346510000000  0.4938170000000  0.4867190000000 1.0
C      1  0.4569980000000  0.4472380000000  0.4665350000000 1.0
C      1  0.5213980000000  0.4456990000000  0.4699810000000 1.0
C      1  0.5691750000000  0.4675500000000  0.4723180000000 1.0
C      1  0.5632650000000  0.5228810000000  0.4711240000000 1.0
C      1  0.4837220000000  0.5581930000000  0.5575340000000 1.0
C      1  0.4535980000000  0.5242090000000  0.5523600000000 1.0
C      1  0.4652980000000  0.4773460000000  0.5537160000000 1.0
C      1  0.4923820000000  0.4422870000000  0.5546500000000 1.0
C      1  0.5348900000000  0.4595170000000  0.5629850000000 1.0
C      1  0.5483570000000  0.5029510000000  0.5595530000000 1.0
C      1  0.5276650000000  0.5447940000000  0.5555340000000 1.0
C      1  0.5323750000000  0.5456560000000  0.5047600000000 1.0
C      1  0.4864920000000  0.5669860000000  0.5069900000000 1.0
C      1  0.4475990000000  0.5330190000000  0.5025860000000 1.0
C      1  0.4261250000000  0.4484110000000  0.5045460000000 1.0
C      1  0.4906730000000  0.4426680000000  0.5020330000000 1.0
C      1  0.5492710000000  0.4469820000000  0.5103360000000 1.0
C      1  0.5578850000000  0.4986110000000  0.5101070000000 1.0
C      1  0.4305490000000  0.4446460000000  0.4775790000000 1.0
C      1  0.5017730000000  0.4283180000000  0.4799180000000 1.0
C      1  0.5721150000000  0.4475340000000  0.4928070000000 1.0
C      1  0.5691070000000  0.5216150000000  0.4981880000000 1.0
C      1  0.5303860000000  0.5658610000000  0.4846270000000 1.0
C      1  0.4641710000000  0.5821970000000  0.4984460000000 1.0
C      1  0.4253330000000  0.5168260000000  0.4994330000000 1.0
C      1  0.4711670000000  0.4614740000000  0.4894590000000 1.0
C      1  0.5299630000000  0.4610550000000  0.4925850000000 1.0
C      1  0.5478440000000  0.4837640000000  0.4855540000000 1.0
C      1  0.5260460000000  0.5203600000000  0.4899790000000 1.0
C      1  0.4894540000000  0.5449810000000  0.4856020000000 1.0
C      1  0.4606810000000  0.5431530000000  0.4770290000000 1.0
C      1  0.4450260000000  0.4704000000000  0.5033600000000 1.0
C      1  0.4966600000000  0.5105460000000  0.4909040000000 1.0
C      1  0.4911780000000  0.5125400000000  0.4473740000000 1.0
C      1  0.4852850000000  0.5049430000000  0.5179740000000 1.0
C      1  0.4933640000000  0.4856230000000  0.4605500000000 1.0
END
