TITL C-9257-5531-236 1.11227930317281e-08 125000 -369.398820188054 0 0 60 (C1) n - 1
REM
REM in /home/bkarasulu/CARBON/AIRSS/Generating-Clusters/EDIP-Nigel-Params/Higher-Symm/Box-15A/Only-C60/SD-CG/HFTN-CG
REM
REM
REM
REM
REM
REM ./C.cell (414f73aa93bd7a1190c7fd0f31ff2f98)
REM
REM compiler GCC version 9.2.1 20190827 (Red Hat 9.2.1-1)
REM options -cpp -mtune=generic -march=x86-64 -g -O0 -fpre-include=/usr/include/finclude/math-vector-fortran.h
REM seed -286484260 -732665552 1499937167 -2055334010 -925145821 438260098 -1723646170 -835640300 211931659 -1617902202 2091484743 -393988658 -715725752 457463636 1127963320 492825674 1439566501 -844670340 1499242752 -1942853386 871062150 -271373818 -134988523 1559544583 -1014521216 -842545218 1661215187 -2005064001 -948324262 1906176751 1171742298 -390179111 1400457263
REM
CELL 1.54180   50.00000   50.00000   50.00000   90.00000   90.00000   90.00000
LATT -1
SFAC C  
C      1  0.5127510000000  0.5506580000000  0.4393040000000 1.0
C      1  0.5131210000000  0.5267150000000  0.5771150000000 1.0
C      1  0.5123130000000  0.4235660000000  0.4862080000000 1.0
C      1  0.5119560000000  0.5505030000000  0.5595870000000 1.0
C      1  0.5149880000000  0.5263730000000  0.4226060000000 1.0
C      1  0.5121780000000  0.4237450000000  0.5157250000000 1.0
C      1  0.4283270000000  0.5242860000000  0.4844880000000 1.0
C      1  0.4183350000000  0.5010450000000  0.5244990000000 1.0
C      1  0.4284090000000  0.4757340000000  0.4852160000000 1.0
C      1  0.4289540000000  0.5252960000000  0.5147170000000 1.0
C      1  0.4171680000000  0.4998520000000  0.4758800000000 1.0
C      1  0.4290000000000  0.4765160000000  0.5154160000000 1.0
C      1  0.4602720000000  0.4498290000000  0.5568570000000 1.0
C      1  0.4639480000000  0.4728970000000  0.4331260000000 1.0
C      1  0.4676350000000  0.5724200000000  0.5067600000000 1.0
C      1  0.4613870000000  0.4479980000000  0.4433110000000 1.0
C      1  0.4613840000000  0.4753310000000  0.5658170000000 1.0
C      1  0.4614710000000  0.5740310000000  0.4806290000000 1.0
C      1  0.5479020000000  0.4978630000000  0.4422720000000 1.0
C      1  0.5468800000000  0.5539270000000  0.5275620000000 1.0
C      1  0.5467090000000  0.4514260000000  0.5328500000000 1.0
C      1  0.5470920000000  0.4981820000000  0.5598490000000 1.0
C      1  0.5454840000000  0.5526790000000  0.4746470000000 1.0
C      1  0.5470070000000  0.4512740000000  0.4694430000000 1.0
C      1  0.4714170000000  0.5009560000000  0.5280090000000 1.0
C      1  0.4594840000000  0.4743760000000  0.4829730000000 1.0
C      1  0.4590680000000  0.5253260000000  0.4818840000000 1.0
C      1  0.4705840000000  0.4997830000000  0.4706350000000 1.0
C      1  0.4599980000000  0.4750790000000  0.5166200000000 1.0
C      1  0.4600900000000  0.5263710000000  0.5157550000000 1.0
C      1  0.4986040000000  0.4459420000000  0.5288620000000 1.0
C      1  0.5005630000000  0.5025350000000  0.4316240000000 1.0
C      1  0.5012870000000  0.5495990000000  0.5319580000000 1.0
C      1  0.4987270000000  0.4455370000000  0.4726430000000 1.0
C      1  0.4991950000000  0.5027680000000  0.5682620000000 1.0
C      1  0.4973770000000  0.5480820000000  0.4638070000000 1.0
C      1  0.5414450000000  0.5539610000000  0.4456730000000 1.0
C      1  0.5425040000000  0.5224270000000  0.5756320000000 1.0
C      1  0.5415850000000  0.4257020000000  0.4823870000000 1.0
C      1  0.5412590000000  0.5546030000000  0.5565610000000 1.0
C      1  0.5441180000000  0.5219620000000  0.4261370000000 1.0
C      1  0.5413950000000  0.4258270000000  0.5198650000000 1.0
C      1  0.4740010000000  0.4975220000000  0.4416090000000 1.0
C      1  0.4728330000000  0.5522970000000  0.5252550000000 1.0
C      1  0.4700940000000  0.4501050000000  0.5305840000000 1.0
C      1  0.4729580000000  0.4992680000000  0.5572340000000 1.0
C      1  0.4692640000000  0.5501370000000  0.4684300000000 1.0
C      1  0.4701680000000  0.4491420000000  0.4699110000000 1.0
C      1  0.5500310000000  0.5007870000000  0.5304650000000 1.0
C      1  0.5504650000000  0.4754420000000  0.4864620000000 1.0
C      1  0.5516670000000  0.5259410000000  0.4863700000000 1.0
C      1  0.5502070000000  0.5005200000000  0.4716960000000 1.0
C      1  0.5501820000000  0.4755770000000  0.5158240000000 1.0
C      1  0.5514230000000  0.5262330000000  0.5156680000000 1.0
C      1  0.5291870000000  0.4775820000000  0.4330610000000 1.0
C      1  0.5212060000000  0.5651190000000  0.5161990000000 1.0
C      1  0.5261760000000  0.4544750000000  0.5531970000000 1.0
C      1  0.5280530000000  0.4779880000000  0.5686370000000 1.0
C      1  0.5220190000000  0.5645260000000  0.4873450000000 1.0
C      1  0.5266960000000  0.4543520000000  0.4488800000000 1.0
END
