TITL C-9261-551-84 2.07634328576614e-06 125000 -359.636800719644 0 0 60 (C4) n - 1
REM
REM in /home/bkarasulu/CARBON/AIRSS/Generating-Clusters/EDIP-Nigel-Params/Higher-Symm/Box-15A/Only-C60/SD-CG/HFTN-CG
REM
REM
REM
REM
REM
REM ./C.cell (414f73aa93bd7a1190c7fd0f31ff2f98)
REM
REM compiler GCC version 9.2.1 20190827 (Red Hat 9.2.1-1)
REM options -cpp -mtune=generic -march=x86-64 -g -O0 -fpre-include=/usr/include/finclude/math-vector-fortran.h
REM seed 612507755 -1626307169 -2009659862 1379020435 -1772832079 1282289769 466355638 1966270227 -337230243 -1366658276 -1037974887 -1496230967 -160126196 -1378724649 2028421071 1099944122 760791982 -672800878 -1964817069 2117988250 1629527055 1499719800 -154649426 -1537750173 -35376017 1952246735 -38817945 -2102264300 -1025276967 -547523900 -1930033689 -1247526468 -1542063205
REM
CELL 1.54180   50.00000   50.00000   50.00000   90.00000   90.00000   90.00000
LATT -1
SFAC C  
C      1  0.5322210000000  0.5060580000000  0.5135340000000 1.0
C      1  0.5135330000000  0.5060600000000  0.4677780000000 1.0
C      1  0.4677770000000  0.5060460000000  0.4864670000000 1.0
C      1  0.4864660000000  0.5060450000000  0.5322230000000 1.0
C      1  0.4687820000000  0.4955060000000  0.5128870000000 1.0
C      1  0.4871130000000  0.4955160000000  0.4687800000000 1.0
C      1  0.5312210000000  0.4955240000000  0.4871110000000 1.0
C      1  0.5128900000000  0.4955140000000  0.5312180000000 1.0
C      1  0.4773970000000  0.4663690000000  0.4366960000000 1.0
C      1  0.4367090000000  0.4663480000000  0.5226070000000 1.0
C      1  0.5226210000000  0.4663640000000  0.5632950000000 1.0
C      1  0.5633080000000  0.4663850000000  0.4773840000000 1.0
C      1  0.5217200000000  0.4678290000000  0.4372610000000 1.0
C      1  0.5627430000000  0.4678280000000  0.5217070000000 1.0
C      1  0.4782970000000  0.4678020000000  0.5627300000000 1.0
C      1  0.4372740000000  0.4678030000000  0.4782840000000 1.0
C      1  0.5145990000000  0.5461700000000  0.5628140000000 1.0
C      1  0.5627980000000  0.5461920000000  0.4853960000000 1.0
C      1  0.4853800000000  0.5461800000000  0.4371970000000 1.0
C      1  0.4371810000000  0.5461580000000  0.5146150000000 1.0
C      1  0.4842100000000  0.5467880000000  0.5683140000000 1.0
C      1  0.4316810000000  0.5467860000000  0.4842260000000 1.0
C      1  0.5157690000000  0.5468130000000  0.4316970000000 1.0
C      1  0.5682980000000  0.5468150000000  0.5157850000000 1.0
C      1  0.5158340000000  0.5173260000000  0.4234410000000 1.0
C      1  0.4234360000000  0.5172960000000  0.4841650000000 1.0
C      1  0.4841590000000  0.5172990000000  0.5765630000000 1.0
C      1  0.5765570000000  0.5173290000000  0.5158390000000 1.0
C      1  0.4837970000000  0.5171160000000  0.4253690000000 1.0
C      1  0.5746290000000  0.5171300000000  0.4838020000000 1.0
C      1  0.5161960000000  0.5171040000000  0.5746350000000 1.0
C      1  0.4253640000000  0.5170900000000  0.5162020000000 1.0
C      1  0.5293780000000  0.4972940000000  0.4430940000000 1.0
C      1  0.4430960000000  0.4972700000000  0.4706230000000 1.0
C      1  0.4706250000000  0.4972650000000  0.5569040000000 1.0
C      1  0.5569060000000  0.4972900000000  0.5293760000000 1.0
C      1  0.4705800000000  0.4951940000000  0.4440270000000 1.0
C      1  0.5559730000000  0.4952110000000  0.4705770000000 1.0
C      1  0.5294230000000  0.4951940000000  0.5559710000000 1.0
C      1  0.4440300000000  0.4951770000000  0.5294210000000 1.0
C      1  0.5338360000000  0.5504010000000  0.4882050000000 1.0
C      1  0.4881870000000  0.5503930000000  0.4661590000000 1.0
C      1  0.4661410000000  0.5503810000000  0.5118070000000 1.0
C      1  0.5117890000000  0.5503900000000  0.5338530000000 1.0
C      1  0.4669380000000  0.5592750000000  0.4839590000000 1.0
C      1  0.5160350000000  0.5592890000000  0.4669590000000 1.0
C      1  0.5330340000000  0.5592870000000  0.5160560000000 1.0
C      1  0.4839380000000  0.5592730000000  0.5330550000000 1.0
C      1  0.4629480000000  0.4533970000000  0.4848330000000 1.0
C      1  0.4848510000000  0.4533960000000  0.5370580000000 1.0
C      1  0.5370760000000  0.4534110000000  0.5151540000000 1.0
C      1  0.5151720000000  0.4534130000000  0.4629290000000 1.0
C      1  0.5375790000000  0.4517640000000  0.4842500000000 1.0
C      1  0.5157560000000  0.4517520000000  0.5375600000000 1.0
C      1  0.4624460000000  0.4517420000000  0.5157370000000 1.0
C      1  0.4842690000000  0.4517540000000  0.4624270000000 1.0
C      1  0.4998420000000  0.4651310000000  0.4193570000000 1.0
C      1  0.4193710000000  0.4651010000000  0.5001620000000 1.0
C      1  0.5001760000000  0.4651100000000  0.5806330000000 1.0
C      1  0.5806470000000  0.4651400000000  0.4998280000000 1.0
END
