TITL C-9269-7444-27 -9.81657058526773e-06 125000 -373.354785293576 0 0 60 (C1) n - 1
REM
REM in /home/bkarasulu/CARBON/AIRSS/Generating-Clusters/EDIP-Nigel-Params/Higher-Symm/Box-15A/Only-C60/SD-CG/HFTN-CG
REM
REM
REM
REM
REM
REM ./C.cell (414f73aa93bd7a1190c7fd0f31ff2f98)
REM
REM compiler GCC version 9.2.1 20190827 (Red Hat 9.2.1-1)
REM options -cpp -mtune=generic -march=x86-64 -g -O0 -fpre-include=/usr/include/finclude/math-vector-fortran.h
REM seed 439738841 -777369392 1543643984 -710572143 1174701567 -705840206 -601955787 1208403568 159321651 -56539408 -1089413124 1345657894 640038698 -282125566 -561889760 1978010656 -1780525616 425590858 1745775554 -1070329642 -1083423343 -229815513 1387559152 1991165177 -124779396 717549721 -214472016 -1285957370 1583662030 167614896 1594986139 1340665803 -1922327862
REM
CELL 1.54180   50.00000   50.00000   50.00000   90.00000   90.00000   90.00000
LATT -1
SFAC C  
C      1  0.5057450000000  0.4202040000000  0.5097420000000 1.0
C      1  0.5138540000000  0.5771800000000  0.4929760000000 1.0
C      1  0.4951840000000  0.4198930000000  0.4812230000000 1.0
C      1  0.4860270000000  0.5770550000000  0.5053110000000 1.0
C      1  0.4514010000000  0.4658460000000  0.5537890000000 1.0
C      1  0.5551640000000  0.5335850000000  0.5494860000000 1.0
C      1  0.5493840000000  0.4654150000000  0.4451130000000 1.0
C      1  0.4448350000000  0.5324300000000  0.4504190000000 1.0
C      1  0.4749360000000  0.5376950000000  0.4465860000000 1.0
C      1  0.4507450000000  0.4623430000000  0.5240950000000 1.0
C      1  0.5255040000000  0.5393450000000  0.5538600000000 1.0
C      1  0.5504410000000  0.4617010000000  0.4753550000000 1.0
C      1  0.4604140000000  0.5213250000000  0.5464010000000 1.0
C      1  0.5315880000000  0.4888900000000  0.5354990000000 1.0
C      1  0.5357990000000  0.5114970000000  0.4663030000000 1.0
C      1  0.4684130000000  0.4894890000000  0.4671470000000 1.0
C      1  0.5511750000000  0.5471790000000  0.5000050000000 1.0
C      1  0.5004000000000  0.4543740000000  0.4482560000000 1.0
C      1  0.4486060000000  0.5457470000000  0.5007890000000 1.0
C      1  0.4999110000000  0.4569180000000  0.5551500000000 1.0
C      1  0.5192830000000  0.4618830000000  0.5354690000000 1.0
C      1  0.5364990000000  0.5396140000000  0.4751960000000 1.0
C      1  0.4812400000000  0.4629050000000  0.4686470000000 1.0
C      1  0.4655700000000  0.5400900000000  0.5247960000000 1.0
C      1  0.5538080000000  0.4973790000000  0.5135390000000 1.0
C      1  0.5153000000000  0.5028840000000  0.4435070000000 1.0
C      1  0.4436900000000  0.4955960000000  0.4854340000000 1.0
C      1  0.4849650000000  0.5036980000000  0.5536980000000 1.0
C      1  0.5224000000000  0.4616760000000  0.4848270000000 1.0
C      1  0.4866220000000  0.5419540000000  0.4730810000000 1.0
C      1  0.4674480000000  0.4415960000000  0.5130960000000 1.0
C      1  0.5143350000000  0.5453190000000  0.5275800000000 1.0
C      1  0.4377890000000  0.5250540000000  0.4800870000000 1.0
C      1  0.4791280000000  0.4749590000000  0.5617940000000 1.0
C      1  0.5611990000000  0.5260100000000  0.5196780000000 1.0
C      1  0.5206230000000  0.4738830000000  0.4371140000000 1.0
C      1  0.5126150000000  0.5111170000000  0.5207540000000 1.0
C      1  0.5184690000000  0.4954070000000  0.4871340000000 1.0
C      1  0.4885840000000  0.5080020000000  0.4833150000000 1.0
C      1  0.4822830000000  0.5013820000000  0.5136380000000 1.0
C      1  0.5597630000000  0.5116050000000  0.5673170000000 1.0
C      1  0.5682950000000  0.4864750000000  0.4401380000000 1.0
C      1  0.4402690000000  0.5098320000000  0.4331830000000 1.0
C      1  0.4320380000000  0.4862530000000  0.5591710000000 1.0
C      1  0.4646080000000  0.4954080000000  0.4371580000000 1.0
C      1  0.4374940000000  0.5049760000000  0.5383980000000 1.0
C      1  0.5353920000000  0.4971700000000  0.5644510000000 1.0
C      1  0.5649570000000  0.5022120000000  0.4636640000000 1.0
C      1  0.4873870000000  0.5585380000000  0.5286330000000 1.0
C      1  0.5206640000000  0.4465530000000  0.5110670000000 1.0
C      1  0.5130480000000  0.5562690000000  0.4714610000000 1.0
C      1  0.4730260000000  0.4400550000000  0.4845740000000 1.0
C      1  0.4679130000000  0.5624330000000  0.4862880000000 1.0
C      1  0.4820040000000  0.4209450000000  0.5271360000000 1.0
C      1  0.5326050000000  0.5653540000000  0.5133840000000 1.0
C      1  0.5132660000000  0.4326110000000  0.4620920000000 1.0
C      1  0.5116090000000  0.5152240000000  0.5653130000000 1.0
C      1  0.5645960000000  0.4850340000000  0.4878470000000 1.0
C      1  0.4878920000000  0.5134880000000  0.4341740000000 1.0
C      1  0.4518000000000  0.4910410000000  0.5146590000000 1.0
END
