TITL C-9264-7143-101 -6.64964000068589e-06 125000 -354.30800529654 0 0 60 (C1) n - 1
REM
REM in /home/bkarasulu/CARBON/AIRSS/Generating-Clusters/EDIP-Nigel-Params/Higher-Symm/Box-15A/Only-C60/SD-CG/HFTN-CG
REM
REM
REM
REM
REM
REM ./C.cell (414f73aa93bd7a1190c7fd0f31ff2f98)
REM
REM compiler GCC version 9.2.1 20190827 (Red Hat 9.2.1-1)
REM options -cpp -mtune=generic -march=x86-64 -g -O0 -fpre-include=/usr/include/finclude/math-vector-fortran.h
REM seed -927274796 303669987 499138932 -1185938224 -139621976 185001215 756763054 1458811011 -532043173 1976780764 -49247934 2058433126 400623706 -139473246 394228493 1076853391 -799069921 -998006649 47703049 1829807556 -679895102 -1614899626 -1915521436 282236892 1768447719 -1454403820 861157010 -1570497888 1734193180 -1564217013 -1567879851 -54924216 202641564
REM
CELL 1.54180   50.00000   50.00000   50.00000   90.00000   90.00000   90.00000
LATT -1
SFAC C  
C      1  0.4826310000000  0.5429950000000  0.4367910000000 1.0
C      1  0.4817850000000  0.5335880000000  0.5692770000000 1.0
C      1  0.4818420000000  0.4248150000000  0.4945430000000 1.0
C      1  0.5633110000000  0.5019260000000  0.4697530000000 1.0
C      1  0.5631210000000  0.5251170000000  0.5155810000000 1.0
C      1  0.5637990000000  0.4735970000000  0.5131320000000 1.0
C      1  0.5043330000000  0.5167260000000  0.5778650000000 1.0
C      1  0.5042860000000  0.4246580000000  0.4756220000000 1.0
C      1  0.5049580000000  0.5588490000000  0.4471900000000 1.0
C      1  0.5093390000000  0.4495240000000  0.5298790000000 1.0
C      1  0.5097810000000  0.4996290000000  0.4409390000000 1.0
C      1  0.5085370000000  0.5513240000000  0.5291840000000 1.0
C      1  0.5116050000000  0.5323920000000  0.5063140000000 1.0
C      1  0.5134260000000  0.4785520000000  0.5261150000000 1.0
C      1  0.5133510000000  0.4885250000000  0.4684580000000 1.0
C      1  0.4496660000000  0.5436360000000  0.5000870000000 1.0
C      1  0.4494570000000  0.4783610000000  0.5388730000000 1.0
C      1  0.4502390000000  0.4778470000000  0.4610750000000 1.0
C      1  0.4864280000000  0.4882940000000  0.5175260000000 1.0
C      1  0.4867510000000  0.4892030000000  0.4824240000000 1.0
C      1  0.4856230000000  0.5186890000000  0.5006070000000 1.0
C      1  0.5651700000000  0.4739950000000  0.4803240000000 1.0
C      1  0.5660340000000  0.5296380000000  0.4860790000000 1.0
C      1  0.5651940000000  0.4967150000000  0.5320760000000 1.0
C      1  0.4665670000000  0.5089500000000  0.5719690000000 1.0
C      1  0.4665650000000  0.4336640000000  0.4714910000000 1.0
C      1  0.4671330000000  0.5572940000000  0.4567450000000 1.0
C      1  0.4814820000000  0.5134650000000  0.4410790000000 1.0
C      1  0.4803190000000  0.5444620000000  0.5414090000000 1.0
C      1  0.4809550000000  0.4443030000000  0.5170210000000 1.0
C      1  0.4268390000000  0.4949260000000  0.5383090000000 1.0
C      1  0.4289210000000  0.4705050000000  0.4776460000000 1.0
C      1  0.4274170000000  0.5339130000000  0.4860880000000 1.0
C      1  0.4716750000000  0.4887750000000  0.5525550000000 1.0
C      1  0.4720800000000  0.4602290000000  0.4629570000000 1.0
C      1  0.4717230000000  0.5500700000000  0.4838510000000 1.0
C      1  0.5436650000000  0.4933480000000  0.5550630000000 1.0
C      1  0.5434840000000  0.4559670000000  0.4663350000000 1.0
C      1  0.5456720000000  0.5515010000000  0.4767820000000 1.0
C      1  0.5315000000000  0.5200290000000  0.4394700000000 1.0
C      1  0.5302560000000  0.5424610000000  0.5478460000000 1.0
C      1  0.5307660000000  0.4379720000000  0.5125870000000 1.0
C      1  0.5162220000000  0.5758100000000  0.5154550000000 1.0
C      1  0.5163590000000  0.4476930000000  0.5580720000000 1.0
C      1  0.5164530000000  0.4762160000000  0.4249420000000 1.0
C      1  0.4546690000000  0.4582210000000  0.5191610000000 1.0
C      1  0.4564400000000  0.5051960000000  0.4550840000000 1.0
C      1  0.4554260000000  0.5360900000000  0.5272050000000 1.0
C      1  0.4346740000000  0.4557040000000  0.4997460000000 1.0
C      1  0.4366100000000  0.5234880000000  0.4626210000000 1.0
C      1  0.4356070000000  0.5206980000000  0.5396450000000 1.0
C      1  0.5294110000000  0.5453940000000  0.4527060000000 1.0
C      1  0.5283570000000  0.5178450000000  0.5626990000000 1.0
C      1  0.5283090000000  0.4373770000000  0.4839290000000 1.0
C      1  0.5339750000000  0.5691920000000  0.4955610000000 1.0
C      1  0.5338780000000  0.4681240000000  0.5635230000000 1.0
C      1  0.5334760000000  0.4612460000000  0.4404030000000 1.0
C      1  0.5344320000000  0.4758980000000  0.5043880000000 1.0
C      1  0.5341240000000  0.5089710000000  0.4769090000000 1.0
C      1  0.5338920000000  0.5164080000000  0.5190320000000 1.0
END
