TITL C-9262-5533-32 6.80224050613731e-05 125000 -358.768295538017 0 0 60 (C1) n - 1
REM
REM in /home/bkarasulu/CARBON/AIRSS/Generating-Clusters/EDIP-Nigel-Params/Higher-Symm/Box-15A/Only-C60/SD-CG/HFTN-CG
REM
REM
REM
REM
REM
REM ./C.cell (414f73aa93bd7a1190c7fd0f31ff2f98)
REM
REM compiler GCC version 9.2.1 20190827 (Red Hat 9.2.1-1)
REM options -cpp -mtune=generic -march=x86-64 -g -O0 -fpre-include=/usr/include/finclude/math-vector-fortran.h
REM seed 66472477 5915017 -203665627 324367744 -1492221091 -1168207737 -373118407 346733004 759950248 -682387245 1864191889 -778833269 232983780 -1329362180 1956101186 288737489 1220994751 104012713 -83010699 1132507260 -1565893924 -1367480128 -1394315237 -323161724 -858761796 -388845394 -484065878 285689754 1837427875 -672555611 872782799 879028208 -1749262944
REM
CELL 1.54180   50.00000   50.00000   50.00000   90.00000   90.00000   90.00000
LATT -1
SFAC C  
C      1  0.5174140000000  0.4191100000000  0.4991700000000 1.0
C      1  0.4977560000000  0.4418800000000  0.5317280000000 1.0
C      1  0.4926690000000  0.4292460000000  0.4872580000000 1.0
C      1  0.4607320000000  0.5522510000000  0.4961860000000 1.0
C      1  0.5201850000000  0.5542600000000  0.4641100000000 1.0
C      1  0.5215060000000  0.5512320000000  0.5424660000000 1.0
C      1  0.5545560000000  0.5145460000000  0.5000550000000 1.0
C      1  0.4700900000000  0.5158580000000  0.5494250000000 1.0
C      1  0.4659920000000  0.5101040000000  0.4504480000000 1.0
C      1  0.4756080000000  0.4520660000000  0.5021450000000 1.0
C      1  0.5138860000000  0.4429830000000  0.4685360000000 1.0
C      1  0.5239390000000  0.4342680000000  0.5224800000000 1.0
C      1  0.4829480000000  0.5309720000000  0.4918640000000 1.0
C      1  0.5089130000000  0.5283260000000  0.4739180000000 1.0
C      1  0.5044520000000  0.5377050000000  0.5234440000000 1.0
C      1  0.5605840000000  0.5250570000000  0.5449110000000 1.0
C      1  0.4315350000000  0.5359960000000  0.5288850000000 1.0
C      1  0.5033860000000  0.5275040000000  0.4337240000000 1.0
C      1  0.4864360000000  0.4795030000000  0.4914870000000 1.0
C      1  0.5240060000000  0.4714210000000  0.4816800000000 1.0
C      1  0.5071280000000  0.4917510000000  0.5109800000000 1.0
C      1  0.4978490000000  0.4538970000000  0.4458450000000 1.0
C      1  0.5431390000000  0.4556030000000  0.5180520000000 1.0
C      1  0.4568280000000  0.4581800000000  0.5272530000000 1.0
C      1  0.5598770000000  0.4524450000000  0.4961010000000 1.0
C      1  0.4669100000000  0.4575250000000  0.5540330000000 1.0
C      1  0.4706360000000  0.4494130000000  0.4487620000000 1.0
C      1  0.5348330000000  0.4882540000000  0.4422050000000 1.0
C      1  0.5319040000000  0.4840090000000  0.5602210000000 1.0
C      1  0.4312970000000  0.4875560000000  0.4965400000000 1.0
C      1  0.5427740000000  0.5152710000000  0.4420880000000 1.0
C      1  0.5376560000000  0.5096050000000  0.5720480000000 1.0
C      1  0.4315290000000  0.5135980000000  0.4849840000000 1.0
C      1  0.5297180000000  0.5361730000000  0.5659180000000 1.0
C      1  0.4342750000000  0.5384850000000  0.4998200000000 1.0
C      1  0.5374150000000  0.5427210000000  0.4434130000000 1.0
C      1  0.5426250000000  0.4802100000000  0.5336570000000 1.0
C      1  0.4458060000000  0.4840510000000  0.5210280000000 1.0
C      1  0.5067270000000  0.4812580000000  0.4425290000000 1.0
C      1  0.4329160000000  0.4660130000000  0.4793500000000 1.0
C      1  0.5531500000000  0.4689830000000  0.4493080000000 1.0
C      1  0.5121500000000  0.4671930000000  0.5701860000000 1.0
C      1  0.4644790000000  0.5689100000000  0.5188550000000 1.0
C      1  0.4976740000000  0.5687910000000  0.4541710000000 1.0
C      1  0.5422800000000  0.5677970000000  0.5323630000000 1.0
C      1  0.4508690000000  0.4507160000000  0.4668250000000 1.0
C      1  0.5570970000000  0.4509730000000  0.4691140000000 1.0
C      1  0.4935100000000  0.4497920000000  0.5592630000000 1.0
C      1  0.4595600000000  0.5375290000000  0.4453640000000 1.0
C      1  0.5639880000000  0.5410980000000  0.4997110000000 1.0
C      1  0.4671520000000  0.5424150000000  0.5593990000000 1.0
C      1  0.4889890000000  0.5019220000000  0.4337580000000 1.0
C      1  0.5596260000000  0.5023400000000  0.5259890000000 1.0
C      1  0.4444920000000  0.5036830000000  0.5419440000000 1.0
C      1  0.4684820000000  0.5048070000000  0.4809440000000 1.0
C      1  0.5270480000000  0.5071400000000  0.4893570000000 1.0
C      1  0.4928580000000  0.5125830000000  0.5297900000000 1.0
C      1  0.4842930000000  0.5491600000000  0.4385430000000 1.0
C      1  0.5627500000000  0.5490580000000  0.5267710000000 1.0
C      1  0.4511170000000  0.5548030000000  0.5395980000000 1.0
END
