TITL C-9266-5713-164 -3.79628729925473e-06 125000 -352.218390323679 0 0 60 (C3) n - 1
REM
REM in /home/bkarasulu/CARBON/AIRSS/Generating-Clusters/EDIP-Nigel-Params/Higher-Symm/Box-15A/Only-C60/SD-CG/HFTN-CG
REM
REM
REM
REM
REM
REM ./C.cell (414f73aa93bd7a1190c7fd0f31ff2f98)
REM
REM compiler GCC version 9.2.1 20190827 (Red Hat 9.2.1-1)
REM options -cpp -mtune=generic -march=x86-64 -g -O0 -fpre-include=/usr/include/finclude/math-vector-fortran.h
REM seed 1300286135 163495849 -1803342077 464135662 -1373956249 544562336 1307008911 209003604 905614599 -1507494235 1221186479 -1267684975 -1597586165 -2097580400 1996622315 -1254997401 -899162016 -745634668 -84506691 -1058036741 783051283 -1461254280 1042065357 1179292507 -1169349709 793083666 1351087942 1515461344 -1045926300 -2073873904 2098154914 1064129168 925649331
REM
CELL 1.54180   50.00000   50.00000   50.00000   90.00000   90.00000   90.00000
LATT -1
SFAC C  
C      1  0.4901550000000  0.4797270000000  0.5716130000000 1.0
C      1  0.4873680000000  0.5186550000000  0.5716160000000 1.0
C      1  0.5224740000000  0.5016050000000  0.5716150000000 1.0
C      1  0.4377450000000  0.5124730000000  0.4598690000000 1.0
C      1  0.5419280000000  0.5476820000000  0.4598730000000 1.0
C      1  0.5203290000000  0.4398520000000  0.4598660000000 1.0
C      1  0.5000180000000  0.5380600000000  0.4982680000000 1.0
C      1  0.5329520000000  0.4809550000000  0.4982650000000 1.0
C      1  0.4670300000000  0.4809860000000  0.4982640000000 1.0
C      1  0.5370780000000  0.5278880000000  0.5708600000000 1.0
C      1  0.5056150000000  0.4539370000000  0.5708550000000 1.0
C      1  0.4573030000000  0.5181610000000  0.5708580000000 1.0
C      1  0.4313650000000  0.4628320000000  0.4976710000000 1.0
C      1  0.5021290000000  0.5780240000000  0.4976800000000 1.0
C      1  0.5665060000000  0.4591450000000  0.4976730000000 1.0
C      1  0.4595540000000  0.4778350000000  0.4284810000000 1.0
C      1  0.5010250000000  0.5461180000000  0.4284860000000 1.0
C      1  0.5394250000000  0.4760610000000  0.4284820000000 1.0
C      1  0.4493900000000  0.4855470000000  0.4540860000000 1.0
C      1  0.5127870000000  0.5510620000000  0.4540910000000 1.0
C      1  0.5378260000000  0.4634000000000  0.4540860000000 1.0
C      1  0.5612400000000  0.5301210000000  0.5008500000000 1.0
C      1  0.4954660000000  0.4319040000000  0.5008430000000 1.0
C      1  0.4432940000000  0.5379750000000  0.5008490000000 1.0
C      1  0.5736920000000  0.4839720000000  0.4873700000000 1.0
C      1  0.4492730000000  0.4441960000000  0.4873660000000 1.0
C      1  0.4770360000000  0.5718350000000  0.4873740000000 1.0
C      1  0.4940060000000  0.4374830000000  0.5500070000000 1.0
C      1  0.4488570000000  0.5364440000000  0.5500130000000 1.0
C      1  0.5571340000000  0.5260630000000  0.5500140000000 1.0
C      1  0.4381280000000  0.4897920000000  0.5069140000000 1.0
C      1  0.5220960000000  0.5586860000000  0.5069200000000 1.0
C      1  0.5397760000000  0.4515210000000  0.5069140000000 1.0
C      1  0.5620520000000  0.5091000000000  0.4807950000000 1.0
C      1  0.4768540000000  0.4417140000000  0.4807890000000 1.0
C      1  0.4610950000000  0.5491900000000  0.4807950000000 1.0
C      1  0.4487000000000  0.4975010000000  0.5489470000000 1.0
C      1  0.5234870000000  0.5456710000000  0.5489510000000 1.0
C      1  0.5278100000000  0.4568190000000  0.5489460000000 1.0
C      1  0.4911660000000  0.4460040000000  0.4552590000000 1.0
C      1  0.4576540000000  0.5346530000000  0.4552640000000 1.0
C      1  0.5511830000000  0.5193510000000  0.4552650000000 1.0
C      1  0.4888730000000  0.5213120000000  0.5218290000000 1.0
C      1  0.5240210000000  0.4989780000000  0.5218290000000 1.0
C      1  0.4871050000000  0.4797060000000  0.5218270000000 1.0
C      1  0.5356060000000  0.5034170000000  0.4363390000000 1.0
C      1  0.4851540000000  0.4674620000000  0.4363360000000 1.0
C      1  0.4792430000000  0.5291330000000  0.4363400000000 1.0
C      1  0.4993620000000  0.4507020000000  0.5238910000000 1.0
C      1  0.4576260000000  0.5251980000000  0.5238950000000 1.0
C      1  0.5430100000000  0.5240950000000  0.5238970000000 1.0
C      1  0.4722200000000  0.4797580000000  0.5476850000000 1.0
C      1  0.4963610000000  0.5341740000000  0.5476890000000 1.0
C      1  0.5314160000000  0.4860590000000  0.5476860000000 1.0
C      1  0.5230540000000  0.4320000000000  0.4899370000000 1.0
C      1  0.4295830000000  0.5140350000000  0.4899410000000 1.0
C      1  0.5473630000000  0.5539660000000  0.4899450000000 1.0
C      1  0.4992690000000  0.5300430000000  0.4693110000000 1.0
C      1  0.5263830000000  0.4856150000000  0.4693080000000 1.0
C      1  0.4743500000000  0.4843480000000  0.4693070000000 1.0
END
