TITL C-9267-1554-126 -6.78455896746172e-07 125000 -358.600247453854 0 0 60 (C5) n - 1
REM
REM in /home/bkarasulu/CARBON/AIRSS/Generating-Clusters/EDIP-Nigel-Params/Higher-Symm/Box-15A/Only-C60/SD-CG/HFTN-CG
REM
REM
REM
REM
REM
REM ./C.cell (414f73aa93bd7a1190c7fd0f31ff2f98)
REM
REM compiler GCC version 9.2.1 20190827 (Red Hat 9.2.1-1)
REM options -cpp -mtune=generic -march=x86-64 -g -O0 -fpre-include=/usr/include/finclude/math-vector-fortran.h
REM seed -2119548753 1819573094 394051447 -1629563533 -756644926 -1868125148 1744880677 -266846210 1624599117 533819012 -489486356 305667214 683726375 -216743878 -1420133068 -1523762471 -42761466 -1354031294 1691826603 1780468424 229423871 -1117844690 -974079821 -1028229276 1010447088 -1334143860 -428364562 1419625874 1192812340 614611486 -1626811820 292229133 -1337745696
REM
CELL 1.54180   50.00000   50.00000   50.00000   90.00000   90.00000   90.00000
LATT -1
SFAC C  
C      1  0.5539460000000  0.5187920000000  0.5359650000000 1.0
C      1  0.5345420000000  0.4545020000000  0.5359660000000 1.0
C      1  0.4674020000000  0.4530890000000  0.5359660000000 1.0
C      1  0.4453110000000  0.5165070000000  0.5359640000000 1.0
C      1  0.4987980000000  0.5571130000000  0.5359640000000 1.0
C      1  0.5509070000000  0.4785970000000  0.4728140000000 1.0
C      1  0.5360860000000  0.5418010000000  0.4728120000000 1.0
C      1  0.4713960000000  0.5472360000000  0.4728120000000 1.0
C      1  0.4462360000000  0.4873920000000  0.4728130000000 1.0
C      1  0.4953760000000  0.4449710000000  0.4728140000000 1.0
C      1  0.5157550000000  0.4767360000000  0.5196790000000 1.0
C      1  0.4827430000000  0.4778270000000  0.5196790000000 1.0
C      1  0.4735790000000  0.5095610000000  0.5196780000000 1.0
C      1  0.5009280000000  0.5280820000000  0.5196780000000 1.0
C      1  0.5269940000000  0.5077960000000  0.5196790000000 1.0
C      1  0.5171000000000  0.5196330000000  0.4819000000000 1.0
C      1  0.4866120000000  0.5223300000000  0.4819000000000 1.0
C      1  0.4746260000000  0.4941670000000  0.4819000000000 1.0
C      1  0.4977060000000  0.4740650000000  0.4819010000000 1.0
C      1  0.5239570000000  0.4898040000000  0.4819010000000 1.0
C      1  0.5636760000000  0.4837910000000  0.5208690000000 1.0
C      1  0.5042610000000  0.4344320000000  0.5208690000000 1.0
C      1  0.4389570000000  0.4756870000000  0.5208680000000 1.0
C      1  0.4580130000000  0.5505420000000  0.5208670000000 1.0
C      1  0.5350930000000  0.5555510000000  0.5208670000000 1.0
C      1  0.5653440000000  0.5049720000000  0.4696870000000 1.0
C      1  0.5154630000000  0.5636820000000  0.4696850000000 1.0
C      1  0.4442120000000  0.5343840000000  0.4696850000000 1.0
C      1  0.4500590000000  0.4575680000000  0.4696870000000 1.0
C      1  0.5249220000000  0.4393900000000  0.4696880000000 1.0
C      1  0.4857650000000  0.5221490000000  0.5603330000000 1.0
C      1  0.5166650000000  0.5203830000000  0.5603330000000 1.0
C      1  0.5245340000000  0.4904500000000  0.5603340000000 1.0
C      1  0.4984980000000  0.4737170000000  0.5603340000000 1.0
C      1  0.4745370000000  0.4933070000000  0.5603340000000 1.0
C      1  0.4865110000000  0.4778180000000  0.4392770000000 1.0
C      1  0.5169270000000  0.4803150000000  0.4392770000000 1.0
C      1  0.5239510000000  0.5100150000000  0.4392760000000 1.0
C      1  0.4978760000000  0.5258730000000  0.4392760000000 1.0
C      1  0.4747360000000  0.5059740000000  0.4392760000000 1.0
C      1  0.4732690000000  0.5480090000000  0.5481220000000 1.0
C      1  0.5373980000000  0.5402580000000  0.5481220000000 1.0
C      1  0.5498430000000  0.4768740000000  0.5481240000000 1.0
C      1  0.4934070000000  0.4454500000000  0.5481240000000 1.0
C      1  0.4460820000000  0.4894140000000  0.5481230000000 1.0
C      1  0.4739660000000  0.4524480000000  0.4514890000000 1.0
C      1  0.5371780000000  0.4605450000000  0.4514890000000 1.0
C      1  0.5490120000000  0.5231650000000  0.4514880000000 1.0
C      1  0.4931130000000  0.5537710000000  0.4514870000000 1.0
C      1  0.4467320000000  0.5100650000000  0.4514880000000 1.0
C      1  0.4334910000000  0.4954330000000  0.4986710000000 1.0
C      1  0.5511230000000  0.5427880000000  0.4986710000000 1.0
C      1  0.5564920000000  0.4646020000000  0.4986730000000 1.0
C      1  0.4751040000000  0.5618430000000  0.4986700000000 1.0
C      1  0.4837910000000  0.4353350000000  0.4986730000000 1.0
C      1  0.5351920000000  0.4432190000000  0.4985690000000 1.0
C      1  0.4568730000000  0.4489840000000  0.4985690000000 1.0
C      1  0.5049040000000  0.5666220000000  0.4985660000000 1.0
C      1  0.4381540000000  0.5252520000000  0.4985670000000 1.0
C      1  0.5648770000000  0.5159230000000  0.4985680000000 1.0
END
