TITL C-9266-5713-228 2.16125476616525e-06 125000 -357.588908941736 0 0 60 (C3) n - 1
REM
REM in /home/bkarasulu/CARBON/AIRSS/Generating-Clusters/EDIP-Nigel-Params/Higher-Symm/Box-15A/Only-C60/SD-CG/HFTN-CG
REM
REM
REM
REM
REM
REM ./C.cell (414f73aa93bd7a1190c7fd0f31ff2f98)
REM
REM compiler GCC version 9.2.1 20190827 (Red Hat 9.2.1-1)
REM options -cpp -mtune=generic -march=x86-64 -g -O0 -fpre-include=/usr/include/finclude/math-vector-fortran.h
REM seed 1657309440 -882189263 -252938189 -2131603866 1590007285 -972949419 1301201606 -1258598012 -841949590 -1795983348 2006716503 -677942107 -97041785 -606652922 625337674 -193069297 -512949980 -1211542782 -1633345177 1068535652 1866537954 509711856 1417633525 566230139 -383714188 704398469 -553860450 -1809807406 -780018739 338469985 -1446923468 -1679177318 -1120241262
REM
CELL 1.54180   50.00000   50.00000   50.00000   90.00000   90.00000   90.00000
LATT -1
SFAC C  
C      1  0.4699010000000  0.5130390000000  0.5708930000000 1.0
C      1  0.5283490000000  0.5190060000000  0.5702640000000 1.0
C      1  0.5042850000000  0.4654060000000  0.5699050000000 1.0
C      1  0.4201100000000  0.4911390000000  0.4894470000000 1.0
C      1  0.5319570000000  0.5737040000000  0.4891010000000 1.0
C      1  0.5475220000000  0.4355700000000  0.4872460000000 1.0
C      1  0.4665480000000  0.5030990000000  0.5032620000000 1.0
C      1  0.5194940000000  0.5273990000000  0.5029200000000 1.0
C      1  0.5140590000000  0.4694000000000  0.5022850000000 1.0
C      1  0.5552500000000  0.4533560000000  0.5096930000000 1.0
C      1  0.4322840000000  0.4753840000000  0.5114350000000 1.0
C      1  0.5128590000000  0.5708640000000  0.5116210000000 1.0
C      1  0.4427200000000  0.5412510000000  0.5257310000000 1.0
C      1  0.5650700000000  0.5287960000000  0.5241120000000 1.0
C      1  0.4930940000000  0.4290640000000  0.5237720000000 1.0
C      1  0.5249160000000  0.5471990000000  0.5287240000000 1.0
C      1  0.5292250000000  0.4546090000000  0.5275540000000 1.0
C      1  0.4468840000000  0.4971610000000  0.5290560000000 1.0
C      1  0.4499450000000  0.4588170000000  0.4959560000000 1.0
C      1  0.4892500000000  0.5639680000000  0.4967540000000 1.0
C      1  0.5606560000000  0.4773660000000  0.4948510000000 1.0
C      1  0.4809310000000  0.4556310000000  0.5274190000000 1.0
C      1  0.4719010000000  0.5384800000000  0.5285280000000 1.0
C      1  0.5481670000000  0.5048860000000  0.5272060000000 1.0
C      1  0.5341430000000  0.5445800000000  0.4808630000000 1.0
C      1  0.5209830000000  0.4482950000000  0.4798590000000 1.0
C      1  0.4441800000000  0.5078230000000  0.4815000000000 1.0
C      1  0.5774550000000  0.5307290000000  0.4991120000000 1.0
C      1  0.4878650000000  0.4175640000000  0.4988220000000 1.0
C      1  0.4346670000000  0.5517190000000  0.5010810000000 1.0
C      1  0.5357230000000  0.4983570000000  0.5523900000000 1.0
C      1  0.4822150000000  0.4694770000000  0.5526840000000 1.0
C      1  0.4839650000000  0.5302530000000  0.5533970000000 1.0
C      1  0.5696210000000  0.5364800000000  0.4499890000000 1.0
C      1  0.4953610000000  0.4218540000000  0.4494970000000 1.0
C      1  0.4332310000000  0.5434630000000  0.4517120000000 1.0
C      1  0.4363350000000  0.5359880000000  0.4784520000000 1.0
C      1  0.5623600000000  0.5373210000000  0.4769550000000 1.0
C      1  0.5004860000000  0.4275150000000  0.4763720000000 1.0
C      1  0.5462420000000  0.5430640000000  0.4360620000000 1.0
C      1  0.5123490000000  0.4389190000000  0.4352110000000 1.0
C      1  0.4391080000000  0.5203310000000  0.4370740000000 1.0
C      1  0.4632930000000  0.4911210000000  0.5542590000000 1.0
C      1  0.5122040000000  0.5358120000000  0.5542120000000 1.0
C      1  0.5264450000000  0.4711140000000  0.5532600000000 1.0
C      1  0.5216110000000  0.5714930000000  0.4456120000000 1.0
C      1  0.5495410000000  0.4459710000000  0.4437600000000 1.0
C      1  0.4268670000000  0.4845280000000  0.4456990000000 1.0
C      1  0.4882050000000  0.5352140000000  0.5022270000000 1.0
C      1  0.5364430000000  0.4926000000000  0.5011330000000 1.0
C      1  0.4754120000000  0.4721260000000  0.5016190000000 1.0
C      1  0.5533600000000  0.5521670000000  0.5341070000000 1.0
C      1  0.5194630000000  0.4274490000000  0.5330070000000 1.0
C      1  0.4284060000000  0.5191480000000  0.5352080000000 1.0
C      1  0.5230790000000  0.5890940000000  0.4671550000000 1.0
C      1  0.5646580000000  0.4357370000000  0.4648040000000 1.0
C      1  0.4110520000000  0.4763880000000  0.4671390000000 1.0
C      1  0.4503540000000  0.4992580000000  0.4532520000000 1.0
C      1  0.5228400000000  0.5437310000000  0.4529180000000 1.0
C      1  0.5251020000000  0.4587250000000  0.4518650000000 1.0
END
