TITL C-9258-7861-78 1.55740792371105e-06 125000 -369.701326857164 0 0 60 (C1) n - 1
REM
REM in /home/bkarasulu/CARBON/AIRSS/Generating-Clusters/EDIP-Nigel-Params/Higher-Symm/Box-15A/Only-C60/SD-CG/HFTN-CG
REM
REM
REM
REM
REM
REM ./C.cell (414f73aa93bd7a1190c7fd0f31ff2f98)
REM
REM compiler GCC version 9.2.1 20190827 (Red Hat 9.2.1-1)
REM options -cpp -mtune=generic -march=x86-64 -g -O0 -fpre-include=/usr/include/finclude/math-vector-fortran.h
REM seed -1015571457 -1372572950 1805269342 400678514 -1472839382 321869871 56775109 11309138 363055870 1021216622 335500285 564858291 -373732302 -1965508241 -1826980309 393933873 -271611353 -456385947 1559555975 -274179784 -48308776 2135025603 -342762379 -1722055537 -1984448139 -26301095 1712550354 -1482080071 1282208042 1467090877 1874055296 -2011256240 913995964
REM
CELL 1.54180   50.00000   50.00000   50.00000   90.00000   90.00000   90.00000
LATT -1
SFAC C  
C      1  0.5261860000000  0.5156940000000  0.4446760000000 1.0
C      1  0.4744430000000  0.5194930000000  0.4404640000000 1.0
C      1  0.4979640000000  0.4727070000000  0.4450310000000 1.0
C      1  0.5238530000000  0.4859530000000  0.4492520000000 1.0
C      1  0.4728530000000  0.4891490000000  0.4465150000000 1.0
C      1  0.5011730000000  0.5337270000000  0.4451780000000 1.0
C      1  0.5731280000000  0.4848540000000  0.5134920000000 1.0
C      1  0.4679960000000  0.5640730000000  0.5039860000000 1.0
C      1  0.4525740000000  0.4428370000000  0.5148020000000 1.0
C      1  0.5699370000000  0.5132050000000  0.5095590000000 1.0
C      1  0.4796400000000  0.4345310000000  0.5073910000000 1.0
C      1  0.4474950000000  0.5418220000000  0.5050390000000 1.0
C      1  0.4516640000000  0.5215070000000  0.4821330000000 1.0
C      1  0.5159210000000  0.4335660000000  0.4846380000000 1.0
C      1  0.5443520000000  0.5470190000000  0.4866920000000 1.0
C      1  0.4346560000000  0.4967120000000  0.4826210000000 1.0
C      1  0.5223760000000  0.5653390000000  0.4812300000000 1.0
C      1  0.5427470000000  0.4496510000000  0.4841590000000 1.0
C      1  0.5261230000000  0.5153280000000  0.5348180000000 1.0
C      1  0.4741810000000  0.5137700000000  0.5347710000000 1.0
C      1  0.5011290000000  0.4700290000000  0.5358100000000 1.0
C      1  0.5266490000000  0.4851260000000  0.5252380000000 1.0
C      1  0.4751560000000  0.4835810000000  0.5243380000000 1.0
C      1  0.4988220000000  0.5296120000000  0.5220450000000 1.0
C      1  0.5476270000000  0.4706690000000  0.4595220000000 1.0
C      1  0.4991870000000  0.5493690000000  0.4720920000000 1.0
C      1  0.4480670000000  0.4778950000000  0.4623750000000 1.0
C      1  0.5517210000000  0.5285560000000  0.4537060000000 1.0
C      1  0.4969160000000  0.4445410000000  0.4527720000000 1.0
C      1  0.4523280000000  0.5341660000000  0.4547950000000 1.0
C      1  0.5691910000000  0.5143370000000  0.4715490000000 1.0
C      1  0.4547560000000  0.5621230000000  0.4560550000000 1.0
C      1  0.4753010000000  0.4350620000000  0.4694490000000 1.0
C      1  0.5660170000000  0.4862290000000  0.4762170000000 1.0
C      1  0.4536950000000  0.4531510000000  0.4776450000000 1.0
C      1  0.4750240000000  0.5665380000000  0.4750670000000 1.0
C      1  0.5489500000000  0.5545110000000  0.5150290000000 1.0
C      1  0.4255240000000  0.5092380000000  0.5292890000000 1.0
C      1  0.5267130000000  0.4289100000000  0.5217240000000 1.0
C      1  0.5504050000000  0.4441080000000  0.5139170000000 1.0
C      1  0.4285060000000  0.4865550000000  0.5125790000000 1.0
C      1  0.5167140000000  0.5733180000000  0.5091860000000 1.0
C      1  0.5529640000000  0.4701720000000  0.5282090000000 1.0
C      1  0.4934170000000  0.5595880000000  0.5212090000000 1.0
C      1  0.4490010000000  0.4687810000000  0.5265510000000 1.0
C      1  0.5519380000000  0.5285280000000  0.5263590000000 1.0
C      1  0.5013850000000  0.4419000000000  0.5253900000000 1.0
C      1  0.4471490000000  0.5271180000000  0.5302610000000 1.0
C      1  0.4776860000000  0.4857960000000  0.5745420000000 1.0
C      1  0.5241640000000  0.4874210000000  0.5737470000000 1.0
C      1  0.5004680000000  0.5276270000000  0.5733700000000 1.0
C      1  0.4789290000000  0.5119930000000  0.5642890000000 1.0
C      1  0.5232910000000  0.5140430000000  0.5645170000000 1.0
C      1  0.5011450000000  0.4734020000000  0.5655320000000 1.0
C      1  0.5266550000000  0.4838900000000  0.4954250000000 1.0
C      1  0.5001370000000  0.5251780000000  0.4918480000000 1.0
C      1  0.4767670000000  0.4799610000000  0.4943370000000 1.0
C      1  0.5268630000000  0.5128750000000  0.4838490000000 1.0
C      1  0.5027180000000  0.4650150000000  0.4876960000000 1.0
C      1  0.4776630000000  0.5081510000000  0.4860240000000 1.0
END
