TITL C-9263-351-142 5.0573929797863e-05 125000 -356.112562514187 0 0 60 (C1) n - 1
REM
REM in /home/bkarasulu/CARBON/AIRSS/Generating-Clusters/EDIP-Nigel-Params/Higher-Symm/Box-15A/Only-C60/SD-CG/HFTN-CG
REM
REM
REM
REM
REM
REM ./C.cell (414f73aa93bd7a1190c7fd0f31ff2f98)
REM
REM compiler GCC version 9.2.1 20190827 (Red Hat 9.2.1-1)
REM options -cpp -mtune=generic -march=x86-64 -g -O0 -fpre-include=/usr/include/finclude/math-vector-fortran.h
REM seed 924652389 2098402067 -992962636 578397006 243232907 130467990 968199073 911386937 920007066 1398164385 756509000 1845911293 -928640885 1757794867 -1338840056 -1347800370 315824224 -334841685 -832843641 -1378542265 1807031434 -1614488325 -718655904 -1772811924 1093278001 535345512 -1945295113 887255158 -1926016762 386260623 -1345796300 1240071137 -39336633
REM
CELL 1.54180   50.00000   50.00000   50.00000   90.00000   90.00000   90.00000
LATT -1
SFAC C  
C      1  0.4931950000000  0.5770310000000  0.4712760000000 1.0
C      1  0.5721590000000  0.4828150000000  0.4738200000000 1.0
C      1  0.4478500000000  0.4450000000000  0.4750000000000 1.0
C      1  0.5095890000000  0.4419990000000  0.4576570000000 1.0
C      1  0.4478460000000  0.5142960000000  0.4691290000000 1.0
C      1  0.5448190000000  0.5350680000000  0.4700500000000 1.0
C      1  0.5132160000000  0.5787840000000  0.5491650000000 1.0
C      1  0.5538130000000  0.4516010000000  0.5435400000000 1.0
C      1  0.4297620000000  0.4743460000000  0.5523920000000 1.0
C      1  0.4252460000000  0.4902110000000  0.5296690000000 1.0
C      1  0.5354990000000  0.5741010000000  0.5321570000000 1.0
C      1  0.5413370000000  0.4363780000000  0.5230080000000 1.0
C      1  0.4897090000000  0.5312180000000  0.4568380000000 1.0
C      1  0.5508120000000  0.4874640000000  0.4521920000000 1.0
C      1  0.4599710000000  0.4418070000000  0.4477150000000 1.0
C      1  0.5352580000000  0.5261060000000  0.5498620000000 1.0
C      1  0.5016630000000  0.4609880000000  0.5367970000000 1.0
C      1  0.4634220000000  0.5206430000000  0.5449410000000 1.0
C      1  0.4389640000000  0.5166680000000  0.5292970000000 1.0
C      1  0.5502880000000  0.5479040000000  0.5360780000000 1.0
C      1  0.5117000000000  0.4357180000000  0.5246020000000 1.0
C      1  0.5316870000000  0.5085190000000  0.4629100000000 1.0
C      1  0.4933660000000  0.4599150000000  0.4410170000000 1.0
C      1  0.4636420000000  0.5209680000000  0.4459360000000 1.0
C      1  0.4240060000000  0.4756560000000  0.5055020000000 1.0
C      1  0.5283690000000  0.5742910000000  0.5030670000000 1.0
C      1  0.5445610000000  0.4496540000000  0.4964690000000 1.0
C      1  0.5600500000000  0.4753900000000  0.5006380000000 1.0
C      1  0.4465100000000  0.4697240000000  0.4898690000000 1.0
C      1  0.4993500000000  0.5751840000000  0.4982870000000 1.0
C      1  0.4323440000000  0.4381270000000  0.4520780000000 1.0
C      1  0.4935900000000  0.5591260000000  0.4513700000000 1.0
C      1  0.5685600000000  0.4645310000000  0.4517380000000 1.0
C      1  0.4982050000000  0.4210990000000  0.5039780000000 1.0
C      1  0.4320410000000  0.5353370000000  0.5100480000000 1.0
C      1  0.5685710000000  0.5407230000000  0.5151620000000 1.0
C      1  0.5168860000000  0.5020400000000  0.4896610000000 1.0
C      1  0.4991030000000  0.4786460000000  0.4880360000000 1.0
C      1  0.4922480000000  0.5249740000000  0.4880710000000 1.0
C      1  0.5400500000000  0.4962300000000  0.5100120000000 1.0
C      1  0.4713540000000  0.4822690000000  0.5013490000000 1.0
C      1  0.4940180000000  0.5471220000000  0.5090400000000 1.0
C      1  0.5189880000000  0.4778260000000  0.5522690000000 1.0
C      1  0.4730110000000  0.4951380000000  0.5530490000000 1.0
C      1  0.5086880000000  0.5331490000000  0.5581470000000 1.0
C      1  0.4892480000000  0.5662090000000  0.5552400000000 1.0
C      1  0.5572930000000  0.4777650000000  0.5526120000000 1.0
C      1  0.4537430000000  0.4615300000000  0.5481140000000 1.0
C      1  0.4975640000000  0.4213640000000  0.4757550000000 1.0
C      1  0.4360810000000  0.5359260000000  0.4831780000000 1.0
C      1  0.5685940000000  0.5361660000000  0.4873570000000 1.0
C      1  0.4674350000000  0.4998460000000  0.4274440000000 1.0
C      1  0.5093210000000  0.5124330000000  0.4440790000000 1.0
C      1  0.4925410000000  0.4891480000000  0.4348280000000 1.0
C      1  0.4654800000000  0.5124600000000  0.4947500000000 1.0
C      1  0.5315380000000  0.5446480000000  0.4963020000000 1.0
C      1  0.5160540000000  0.4544910000000  0.4846620000000 1.0
C      1  0.4861980000000  0.5410250000000  0.5396950000000 1.0
C      1  0.5383510000000  0.4973150000000  0.5401120000000 1.0
C      1  0.4752440000000  0.4738940000000  0.5329870000000 1.0
END
