TITL C-9258-7861-275 2.18625341097709e-05 125000 -362.689750395959 0 0 60 (C2h) n - 1
REM
REM in /home/bkarasulu/CARBON/AIRSS/Generating-Clusters/EDIP-Nigel-Params/Higher-Symm/Box-15A/Only-C60/SD-CG/HFTN-CG
REM
REM
REM
REM
REM
REM ./C.cell (414f73aa93bd7a1190c7fd0f31ff2f98)
REM
REM compiler GCC version 9.2.1 20190827 (Red Hat 9.2.1-1)
REM options -cpp -mtune=generic -march=x86-64 -g -O0 -fpre-include=/usr/include/finclude/math-vector-fortran.h
REM seed -1048886682 -1610757458 1863584614 -1383332243 1699024269 1422428544 -1377363554 775018410 -499177313 -969354751 -72042412 -345681989 191004629 -1271950747 1541429232 1670173869 -1555952997 -1726595050 520102113 362874738 -624522309 -123558789 1379640596 -1269891318 682580053 -1141840859 150723968 1082180215 -591622383 -137615959 2036941410 643071201 -1085574398
REM
CELL 1.54180   50.00000   50.00000   50.00000   90.00000   90.00000   90.00000
LATT -1
SFAC C  
C      1  0.5193390000000  0.5833150000000  0.5107530000000 1.0
C      1  0.4893130000000  0.5823270000000  0.5193180000000 1.0
C      1  0.4806600000000  0.5833150000000  0.4892480000000 1.0
C      1  0.5106860000000  0.5823280000000  0.4806830000000 1.0
C      1  0.5193400000000  0.4165950000000  0.5107520000000 1.0
C      1  0.4893140000000  0.4175820000000  0.5193170000000 1.0
C      1  0.4806610000000  0.4165950000000  0.4892470000000 1.0
C      1  0.5106870000000  0.4175820000000  0.4806820000000 1.0
C      1  0.5369080000000  0.5637150000000  0.5209130000000 1.0
C      1  0.4808940000000  0.5604450000000  0.5346110000000 1.0
C      1  0.4630920000000  0.5637150000000  0.4790870000000 1.0
C      1  0.5191050000000  0.5604450000000  0.4653890000000 1.0
C      1  0.5369080000000  0.4361950000000  0.5209130000000 1.0
C      1  0.4808950000000  0.4394650000000  0.5346110000000 1.0
C      1  0.4630920000000  0.4361950000000  0.4790870000000 1.0
C      1  0.5191060000000  0.4394650000000  0.4653890000000 1.0
C      1  0.5549120000000  0.4700160000000  0.4683940000000 1.0
C      1  0.5312100000000  0.4691940000000  0.5549920000000 1.0
C      1  0.4450880000000  0.4700150000000  0.5316060000000 1.0
C      1  0.4687910000000  0.4691940000000  0.4450080000000 1.0
C      1  0.5549120000000  0.5298940000000  0.4683940000000 1.0
C      1  0.5312090000000  0.5307160000000  0.5549920000000 1.0
C      1  0.4450880000000  0.5298940000000  0.5316060000000 1.0
C      1  0.4687900000000  0.5307160000000  0.4450080000000 1.0
C      1  0.4610910000000  0.5359480000000  0.4723560000000 1.0
C      1  0.5271900000000  0.5333840000000  0.4615740000000 1.0
C      1  0.5389090000000  0.5359480000000  0.5276440000000 1.0
C      1  0.4728100000000  0.5333830000000  0.5384270000000 1.0
C      1  0.4610910000000  0.4639610000000  0.4723560000000 1.0
C      1  0.5271900000000  0.4665270000000  0.4615730000000 1.0
C      1  0.5389090000000  0.4639620000000  0.5276440000000 1.0
C      1  0.4728100000000  0.4665260000000  0.5384260000000 1.0
C      1  0.4873820000000  0.4842790000000  0.5182770000000 1.0
C      1  0.4819010000000  0.4777390000000  0.4874800000000 1.0
C      1  0.5126180000000  0.4842790000000  0.4817230000000 1.0
C      1  0.5180990000000  0.4777390000000  0.5125190000000 1.0
C      1  0.4873820000000  0.5156310000000  0.5182770000000 1.0
C      1  0.4819010000000  0.5221700000000  0.4874810000000 1.0
C      1  0.5126180000000  0.5156310000000  0.4817230000000 1.0
C      1  0.5180990000000  0.5221700000000  0.5125200000000 1.0
C      1  0.4814780000000  0.5221730000000  0.5651110000000 1.0
C      1  0.4352060000000  0.5223310000000  0.4813710000000 1.0
C      1  0.5185220000000  0.5221740000000  0.4348890000000 1.0
C      1  0.5647930000000  0.5223320000000  0.5186290000000 1.0
C      1  0.4814780000000  0.4777360000000  0.5651110000000 1.0
C      1  0.4352070000000  0.4775780000000  0.4813710000000 1.0
C      1  0.5185220000000  0.4777370000000  0.4348890000000 1.0
C      1  0.5647940000000  0.4775790000000  0.5186290000000 1.0
C      1  0.5102500000000  0.5146330000000  0.5654050000000 1.0
C      1  0.4349360000000  0.5145380000000  0.5101630000000 1.0
C      1  0.4897500000000  0.5146330000000  0.4345950000000 1.0
C      1  0.5650640000000  0.5145390000000  0.4898370000000 1.0
C      1  0.5102500000000  0.4852770000000  0.5654050000000 1.0
C      1  0.4349360000000  0.4853710000000  0.5101630000000 1.0
C      1  0.4897500000000  0.4852770000000  0.4345950000000 1.0
C      1  0.5650640000000  0.4853710000000  0.4898370000000 1.0
C      1  0.5723980000000  0.4999550000000  0.5342330000000 1.0
C      1  0.4662170000000  0.4999550000000  0.5736630000000 1.0
C      1  0.5337830000000  0.4999550000000  0.4263370000000 1.0
C      1  0.4276020000000  0.4999550000000  0.4657670000000 1.0
END
