TITL C-9268-6400-209 -1.02239982840492e-06 125000 -380.775074972289 0 0 60 (Th) n - 1
REM
REM in /home/bkarasulu/CARBON/AIRSS/Generating-Clusters/EDIP-Nigel-Params/Higher-Symm/Box-15A/Only-C60/SD-CG/HFTN-CG
REM
REM
REM
REM
REM
REM ./C.cell (414f73aa93bd7a1190c7fd0f31ff2f98)
REM
REM compiler GCC version 9.2.1 20190827 (Red Hat 9.2.1-1)
REM options -cpp -mtune=generic -march=x86-64 -g -O0 -fpre-include=/usr/include/finclude/math-vector-fortran.h
REM seed -1970528954 651516984 -1441091478 1593492373 -1952555959 -1017105863 967088533 1397123141 -1928061877 -15062756 -328413046 -1583760517 -1023400505 955752354 -516108793 409238185 -492242238 551228630 72953101 -2037895370 90939235 -1057418207 1209407017 -159457347 915092943 922629907 810002168 1199963008 -993863649 2010924769 -642676181 -1351127992 1732777661
REM
CELL 1.54180   50.00000   50.00000   50.00000   90.00000   90.00000   90.00000
LATT -1
SFAC C  
C      1  0.4778340000000  0.5320330000000  0.5623220000000 1.0
C      1  0.5623260000000  0.4778340000000  0.5320260000000 1.0
C      1  0.5320260000000  0.5623220000000  0.4778230000000 1.0
C      1  0.5221660000000  0.5320220000000  0.4376720000000 1.0
C      1  0.4778270000000  0.4679670000000  0.4376810000000 1.0
C      1  0.5221740000000  0.4679780000000  0.5623250000000 1.0
C      1  0.4376750000000  0.4778270000000  0.4679780000000 1.0
C      1  0.5623210000000  0.5221670000000  0.4679670000000 1.0
C      1  0.4376780000000  0.5221720000000  0.5320290000000 1.0
C      1  0.4679730000000  0.5623250000000  0.5221660000000 1.0
C      1  0.5320290000000  0.4376790000000  0.5221730000000 1.0
C      1  0.4679720000000  0.4376740000000  0.4778380000000 1.0
C      1  0.4778340000000  0.4679780000000  0.5623280000000 1.0
C      1  0.5623250000000  0.5221730000000  0.5320220000000 1.0
C      1  0.5320270000000  0.4376750000000  0.4778340000000 1.0
C      1  0.5221660000000  0.4679670000000  0.4376780000000 1.0
C      1  0.4778260000000  0.5320220000000  0.4376750000000 1.0
C      1  0.5221730000000  0.5320330000000  0.5623190000000 1.0
C      1  0.4376740000000  0.5221660000000  0.4679740000000 1.0
C      1  0.5623220000000  0.4778280000000  0.4679710000000 1.0
C      1  0.4376790000000  0.4778330000000  0.5320330000000 1.0
C      1  0.4679740000000  0.4376780000000  0.5221770000000 1.0
C      1  0.5320280000000  0.5623260000000  0.5221620000000 1.0
C      1  0.4679710000000  0.5623210000000  0.4778270000000 1.0
C      1  0.5147220000000  0.4458780000000  0.4554880000000 1.0
C      1  0.4554810000000  0.5147190000000  0.4458830000000 1.0
C      1  0.4458830000000  0.4554850000000  0.5147310000000 1.0
C      1  0.4852790000000  0.4458860000000  0.5445220000000 1.0
C      1  0.5147260000000  0.5541220000000  0.5445100000000 1.0
C      1  0.4852730000000  0.5541140000000  0.4554800000000 1.0
C      1  0.5445190000000  0.5147290000000  0.5541140000000 1.0
C      1  0.4554880000000  0.4852810000000  0.5541220000000 1.0
C      1  0.5445130000000  0.4852710000000  0.4458810000000 1.0
C      1  0.5541170000000  0.4554830000000  0.4852770000000 1.0
C      1  0.4458810000000  0.5445140000000  0.4852750000000 1.0
C      1  0.5541190000000  0.5445170000000  0.5147170000000 1.0
C      1  0.5147210000000  0.5541140000000  0.4554780000000 1.0
C      1  0.4554810000000  0.4852710000000  0.4458860000000 1.0
C      1  0.4458830000000  0.5445170000000  0.5147230000000 1.0
C      1  0.4852780000000  0.5541220000000  0.5445120000000 1.0
C      1  0.5147270000000  0.4458860000000  0.5445200000000 1.0
C      1  0.4852740000000  0.4458780000000  0.4554900000000 1.0
C      1  0.5445190000000  0.4852810000000  0.5541170000000 1.0
C      1  0.4554870000000  0.5147290000000  0.5541190000000 1.0
C      1  0.5445120000000  0.5147190000000  0.4458780000000 1.0
C      1  0.5541170000000  0.5445150000000  0.4852690000000 1.0
C      1  0.4458810000000  0.4554830000000  0.4852830000000 1.0
C      1  0.5541190000000  0.4554860000000  0.5147250000000 1.0
C      1  0.4775980000000  0.5776960000000  0.4999940000000 1.0
C      1  0.5000050000000  0.4776060000000  0.5776980000000 1.0
C      1  0.5776950000000  0.4999990000000  0.4775940000000 1.0
C      1  0.5224010000000  0.5776960000000  0.4999920000000 1.0
C      1  0.4775990000000  0.4223040000000  0.5000080000000 1.0
C      1  0.5224020000000  0.4223040000000  0.5000060000000 1.0
C      1  0.4999960000000  0.4775910000000  0.4223060000000 1.0
C      1  0.4999950000000  0.5223940000000  0.4223020000000 1.0
C      1  0.5000040000000  0.5224090000000  0.5776940000000 1.0
C      1  0.4223050000000  0.5000010000000  0.5224060000000 1.0
C      1  0.5776970000000  0.5000030000000  0.5223970000000 1.0
C      1  0.4223030000000  0.4999970000000  0.4776030000000 1.0
END
