TITL C-9259-5960-168 1.85056789290991e-07 125000 -360.893964771565 0 0 60 (C1) n - 1
REM
REM in /home/bkarasulu/CARBON/AIRSS/Generating-Clusters/EDIP-Nigel-Params/Higher-Symm/Box-15A/Only-C60/SD-CG/HFTN-CG
REM
REM
REM
REM
REM
REM ./C.cell (414f73aa93bd7a1190c7fd0f31ff2f98)
REM
REM compiler GCC version 9.2.1 20190827 (Red Hat 9.2.1-1)
REM options -cpp -mtune=generic -march=x86-64 -g -O0 -fpre-include=/usr/include/finclude/math-vector-fortran.h
REM seed -915062926 127695353 1972243139 1112556060 -1375971881 294676263 3808701 1301859217 -1830787387 1605948937 2147297948 -659811855 1543956333 1697765123 -1755288078 1668932289 -789366908 910740916 -1932043526 1756716341 2082311477 -32875711 371239189 -1243361801 -1712187930 638935595 -1278324520 -987005893 -543129780 81966674 -2076014021 -1740737689 1128748301
REM
CELL 1.54180   50.00000   50.00000   50.00000   90.00000   90.00000   90.00000
LATT -1
SFAC C  
C      1  0.5229340000000  0.5572460000000  0.4975460000000 1.0
C      1  0.5082180000000  0.5598040000000  0.5225990000000 1.0
C      1  0.4796840000000  0.5611690000000  0.5163120000000 1.0
C      1  0.4774200000000  0.5580150000000  0.4872870000000 1.0
C      1  0.5042070000000  0.5595700000000  0.4754320000000 1.0
C      1  0.5248110000000  0.4410820000000  0.4982530000000 1.0
C      1  0.5093770000000  0.4415740000000  0.5232910000000 1.0
C      1  0.4812150000000  0.4422200000000  0.5156440000000 1.0
C      1  0.4795210000000  0.4408390000000  0.4865640000000 1.0
C      1  0.5065110000000  0.4381310000000  0.4756470000000 1.0
C      1  0.4945310000000  0.4833110000000  0.5247550000000 1.0
C      1  0.4757480000000  0.4828790000000  0.4988950000000 1.0
C      1  0.4954430000000  0.4802330000000  0.4736840000000 1.0
C      1  0.5257430000000  0.4829310000000  0.4833520000000 1.0
C      1  0.5251370000000  0.4819210000000  0.5151990000000 1.0
C      1  0.4900360000000  0.5199440000000  0.5267270000000 1.0
C      1  0.4728530000000  0.5139880000000  0.5009700000000 1.0
C      1  0.4914640000000  0.5176860000000  0.4763280000000 1.0
C      1  0.5216360000000  0.5146790000000  0.4858010000000 1.0
C      1  0.5207560000000  0.5179400000000  0.5180500000000 1.0
C      1  0.4347740000000  0.4889320000000  0.4506350000000 1.0
C      1  0.5278740000000  0.4856570000000  0.4216780000000 1.0
C      1  0.5826070000000  0.4855880000000  0.5000230000000 1.0
C      1  0.5271430000000  0.4875110000000  0.5795770000000 1.0
C      1  0.4331550000000  0.4869670000000  0.5491850000000 1.0
C      1  0.4319210000000  0.5159060000000  0.4515780000000 1.0
C      1  0.5246970000000  0.5126750000000  0.4212440000000 1.0
C      1  0.5814530000000  0.5126770000000  0.5002520000000 1.0
C      1  0.5229500000000  0.5143200000000  0.5808030000000 1.0
C      1  0.4312440000000  0.5140330000000  0.5476290000000 1.0
C      1  0.5324720000000  0.5295650000000  0.5591830000000 1.0
C      1  0.4545480000000  0.5293110000000  0.5514710000000 1.0
C      1  0.4348350000000  0.5322790000000  0.4741040000000 1.0
C      1  0.5049120000000  0.5290120000000  0.4326080000000 1.0
C      1  0.5640710000000  0.5270970000000  0.4838260000000 1.0
C      1  0.5359980000000  0.4708540000000  0.5588140000000 1.0
C      1  0.4556440000000  0.4702510000000  0.5505870000000 1.0
C      1  0.4406430000000  0.4737030000000  0.4733470000000 1.0
C      1  0.5072840000000  0.4697550000000  0.4324140000000 1.0
C      1  0.5676600000000  0.4686490000000  0.4834590000000 1.0
C      1  0.5105840000000  0.5506060000000  0.4495730000000 1.0
C      1  0.5490340000000  0.5482050000000  0.4939680000000 1.0
C      1  0.5179540000000  0.5501920000000  0.5470190000000 1.0
C      1  0.4612830000000  0.5512150000000  0.5350870000000 1.0
C      1  0.4531660000000  0.5534560000000  0.4741410000000 1.0
C      1  0.5119160000000  0.4482430000000  0.4499320000000 1.0
C      1  0.5513060000000  0.4488220000000  0.4944550000000 1.0
C      1  0.5200700000000  0.4503210000000  0.5478280000000 1.0
C      1  0.4601090000000  0.4491040000000  0.5327620000000 1.0
C      1  0.4578000000000  0.4517350000000  0.4728120000000 1.0
C      1  0.5464890000000  0.4868400000000  0.5364310000000 1.0
C      1  0.4804950000000  0.4857370000000  0.5527930000000 1.0
C      1  0.4378960000000  0.4880550000000  0.4979430000000 1.0
C      1  0.4834150000000  0.4848700000000  0.4376580000000 1.0
C      1  0.5569750000000  0.4829810000000  0.4610030000000 1.0
C      1  0.5505330000000  0.5152380000000  0.5422690000000 1.0
C      1  0.4763350000000  0.5135000000000  0.5618410000000 1.0
C      1  0.4348780000000  0.5167740000000  0.4982810000000 1.0
C      1  0.4846110000000  0.5129720000000  0.4463730000000 1.0
C      1  0.5520200000000  0.5112340000000  0.4630780000000 1.0
END
