TITL C-9267-1554-140 -3.80817166148467e-06 125000 -362.905948220255 0 0 60 (C1) n - 1
REM
REM in /home/bkarasulu/CARBON/AIRSS/Generating-Clusters/EDIP-Nigel-Params/Higher-Symm/Box-15A/Only-C60/SD-CG/HFTN-CG
REM
REM
REM
REM
REM
REM ./C.cell (414f73aa93bd7a1190c7fd0f31ff2f98)
REM
REM compiler GCC version 9.2.1 20190827 (Red Hat 9.2.1-1)
REM options -cpp -mtune=generic -march=x86-64 -g -O0 -fpre-include=/usr/include/finclude/math-vector-fortran.h
REM seed -139684748 -1402511968 -68447706 1019627027 -487541031 -1633924609 -674005883 1459037895 1484668141 1844017345 1461161294 1084041695 1410738218 1294931520 1599689152 -1465229369 2123378551 951724462 -1985239319 -743749894 -166446039 -1795583780 -940205899 -920429422 1891730937 -1208019348 -782272116 1251960680 1429069498 -1411193661 -1036507062 -431410989 -655246987
REM
CELL 1.54180   50.00000   50.00000   50.00000   90.00000   90.00000   90.00000
LATT -1
SFAC C  
C      1  0.4496500000000  0.5016990000000  0.4461290000000 1.0
C      1  0.4794280000000  0.5026420000000  0.5698470000000 1.0
C      1  0.5699120000000  0.4955410000000  0.4870210000000 1.0
C      1  0.4540570000000  0.5040040000000  0.5535980000000 1.0
C      1  0.4748360000000  0.5040290000000  0.4307420000000 1.0
C      1  0.5710970000000  0.4970810000000  0.5168590000000 1.0
C      1  0.4878240000000  0.5621470000000  0.5236450000000 1.0
C      1  0.5283410000000  0.5551380000000  0.4973220000000 1.0
C      1  0.4837200000000  0.5581930000000  0.4742940000000 1.0
C      1  0.4847600000000  0.4441480000000  0.4741950000000 1.0
C      1  0.5262420000000  0.4388900000000  0.5015610000000 1.0
C      1  0.4812790000000  0.4394410000000  0.5255820000000 1.0
C      1  0.5529490000000  0.4630390000000  0.4519560000000 1.0
C      1  0.4306990000000  0.4610680000000  0.4719460000000 1.0
C      1  0.5159780000000  0.4652770000000  0.5748740000000 1.0
C      1  0.5573310000000  0.5357350000000  0.5493280000000 1.0
C      1  0.4336700000000  0.5351210000000  0.5178300000000 1.0
C      1  0.5086340000000  0.5422970000000  0.4253100000000 1.0
C      1  0.5097170000000  0.4728710000000  0.5242840000000 1.0
C      1  0.5130430000000  0.4765000000000  0.4828930000000 1.0
C      1  0.4883090000000  0.4828150000000  0.5021440000000 1.0
C      1  0.5094710000000  0.5165250000000  0.4872460000000 1.0
C      1  0.5111550000000  0.5122840000000  0.5212480000000 1.0
C      1  0.4801970000000  0.5244260000000  0.5022160000000 1.0
C      1  0.4719090000000  0.5621060000000  0.4999450000000 1.0
C      1  0.5155840000000  0.5660680000000  0.5199190000000 1.0
C      1  0.5133610000000  0.5577560000000  0.4719220000000 1.0
C      1  0.4673050000000  0.4396210000000  0.4981830000000 1.0
C      1  0.5129360000000  0.4385160000000  0.4759620000000 1.0
C      1  0.5099940000000  0.4341450000000  0.5251620000000 1.0
C      1  0.5251700000000  0.5445450000000  0.4479130000000 1.0
C      1  0.4309970000000  0.5253980000000  0.4917550000000 1.0
C      1  0.5320790000000  0.5390160000000  0.5599550000000 1.0
C      1  0.5401990000000  0.4650230000000  0.5609630000000 1.0
C      1  0.4416920000000  0.4554360000000  0.4974190000000 1.0
C      1  0.5310550000000  0.4708020000000  0.4374140000000 1.0
C      1  0.4916830000000  0.4755800000000  0.5642880000000 1.0
C      1  0.5564910000000  0.4708620000000  0.4787090000000 1.0
C      1  0.4509530000000  0.4759570000000  0.4594150000000 1.0
C      1  0.4848910000000  0.5310390000000  0.4350980000000 1.0
C      1  0.5596110000000  0.5238970000000  0.5238270000000 1.0
C      1  0.4532690000000  0.5282590000000  0.5368890000000 1.0
C      1  0.5159770000000  0.4882700000000  0.4540480000000 1.0
C      1  0.4538160000000  0.4803840000000  0.5090320000000 1.0
C      1  0.5358490000000  0.4805350000000  0.5384650000000 1.0
C      1  0.5164510000000  0.5182020000000  0.5508160000000 1.0
C      1  0.4554730000000  0.5080380000000  0.4895720000000 1.0
C      1  0.5323560000000  0.5190220000000  0.4619010000000 1.0
C      1  0.4430670000000  0.5285290000000  0.4595770000000 1.0
C      1  0.4940340000000  0.5295630000000  0.5642150000000 1.0
C      1  0.5586280000000  0.5212030000000  0.4765520000000 1.0
C      1  0.4515410000000  0.4784110000000  0.5388820000000 1.0
C      1  0.4925770000000  0.4794780000000  0.4361960000000 1.0
C      1  0.5601190000000  0.4700280000000  0.5273950000000 1.0
C      1  0.4676430000000  0.5457640000000  0.4532710000000 1.0
C      1  0.4776550000000  0.5425000000000  0.5424810000000 1.0
C      1  0.5532820000000  0.5390010000000  0.4995150000000 1.0
C      1  0.4735980000000  0.4604180000000  0.5464670000000 1.0
C      1  0.4747610000000  0.4614530000000  0.4524860000000 1.0
C      1  0.5516920000000  0.4542610000000  0.5023190000000 1.0
END
