TITL C-9267-1554-13 3.85575788849082e-05 125000 -364.378148962996 0 0 60 (C1) n - 1
REM
REM in /home/bkarasulu/CARBON/AIRSS/Generating-Clusters/EDIP-Nigel-Params/Higher-Symm/Box-15A/Only-C60/SD-CG/HFTN-CG
REM
REM
REM
REM
REM
REM ./C.cell (414f73aa93bd7a1190c7fd0f31ff2f98)
REM
REM compiler GCC version 9.2.1 20190827 (Red Hat 9.2.1-1)
REM options -cpp -mtune=generic -march=x86-64 -g -O0 -fpre-include=/usr/include/finclude/math-vector-fortran.h
REM seed -743391410 342488696 902157747 -873519815 1544948036 1149813095 420262634 1776066472 940236713 -1021830284 -837853811 1333536626 1875171450 1455731144 -23281186 813265113 -1315019464 -166982558 -82776202 -883266980 1681423946 1342424615 1937613906 567069123 992720595 1841336555 -1897493466 -1268717525 1963115490 -956095657 649270816 1247797510 -1248041945
REM
CELL 1.54180   50.00000   50.00000   50.00000   90.00000   90.00000   90.00000
LATT -1
SFAC C  
C      1  0.4840390000000  0.4616300000000  0.4326600000000 1.0
C      1  0.4631580000000  0.4556760000000  0.4807600000000 1.0
C      1  0.4331050000000  0.4810160000000  0.4515280000000 1.0
C      1  0.5134480000000  0.5246540000000  0.4474890000000 1.0
C      1  0.4796590000000  0.5400860000000  0.5475520000000 1.0
C      1  0.5267190000000  0.4646920000000  0.5662430000000 1.0
C      1  0.5353070000000  0.5450450000000  0.4845800000000 1.0
C      1  0.4499530000000  0.5720160000000  0.5240190000000 1.0
C      1  0.5501890000000  0.4335430000000  0.5327570000000 1.0
C      1  0.5615630000000  0.5104640000000  0.4603420000000 1.0
C      1  0.4324400000000  0.5217900000000  0.5391230000000 1.0
C      1  0.5622600000000  0.4822690000000  0.5354730000000 1.0
C      1  0.4631970000000  0.4808480000000  0.4283740000000 1.0
C      1  0.4354220000000  0.4623460000000  0.4740010000000 1.0
C      1  0.4835240000000  0.4523330000000  0.4606060000000 1.0
C      1  0.5377770000000  0.5077230000000  0.4409480000000 1.0
C      1  0.5470480000000  0.4853590000000  0.5598390000000 1.0
C      1  0.4615930000000  0.5182320000000  0.5409350000000 1.0
C      1  0.5611670000000  0.5332780000000  0.4804680000000 1.0
C      1  0.5712820000000  0.4563000000000  0.5269880000000 1.0
C      1  0.4250310000000  0.5443140000000  0.5216690000000 1.0
C      1  0.5188190000000  0.5496560000000  0.4614890000000 1.0
C      1  0.5263840000000  0.4401700000000  0.5495660000000 1.0
C      1  0.4724290000000  0.5693020000000  0.5423450000000 1.0
C      1  0.4212440000000  0.4981310000000  0.5270670000000 1.0
C      1  0.4932680000000  0.5072260000000  0.4627290000000 1.0
C      1  0.5420770000000  0.4343100000000  0.5023510000000 1.0
C      1  0.5757350000000  0.5050740000000  0.5238260000000 1.0
C      1  0.4437760000000  0.5082170000000  0.4575300000000 1.0
C      1  0.5663780000000  0.4850320000000  0.4735140000000 1.0
C      1  0.5093060000000  0.4699360000000  0.4225940000000 1.0
C      1  0.5000420000000  0.4763150000000  0.5666850000000 1.0
C      1  0.5057200000000  0.5364410000000  0.5347570000000 1.0
C      1  0.4567680000000  0.5630510000000  0.4966360000000 1.0
C      1  0.5323870000000  0.5641460000000  0.5047460000000 1.0
C      1  0.4703230000000  0.4489050000000  0.5070010000000 1.0
C      1  0.5009720000000  0.4315850000000  0.5395890000000 1.0
C      1  0.5285690000000  0.4789690000000  0.4410660000000 1.0
C      1  0.4363010000000  0.5422680000000  0.4939970000000 1.0
C      1  0.4952510000000  0.5817530000000  0.5299060000000 1.0
C      1  0.5080800000000  0.4431540000000  0.4703840000000 1.0
C      1  0.4948360000000  0.5631520000000  0.4667920000000 1.0
C      1  0.4691650000000  0.5052850000000  0.4431750000000 1.0
C      1  0.4715490000000  0.4918760000000  0.5456100000000 1.0
C      1  0.5353250000000  0.5107440000000  0.5597500000000 1.0
C      1  0.5648830000000  0.4541520000000  0.4967390000000 1.0
C      1  0.5733640000000  0.5276340000000  0.5065740000000 1.0
C      1  0.4215850000000  0.4731950000000  0.4967630000000 1.0
C      1  0.4390110000000  0.4936670000000  0.5053480000000 1.0
C      1  0.4803810000000  0.5208140000000  0.4872620000000 1.0
C      1  0.5167760000000  0.4481220000000  0.4970700000000 1.0
C      1  0.5399680000000  0.5085220000000  0.5091410000000 1.0
C      1  0.4497170000000  0.5156910000000  0.4866990000000 1.0
C      1  0.5407110000000  0.4837700000000  0.4893620000000 1.0
C      1  0.5158740000000  0.4809360000000  0.4686410000000 1.0
C      1  0.4986650000000  0.4833760000000  0.5373510000000 1.0
C      1  0.4847350000000  0.5512180000000  0.4911720000000 1.0
C      1  0.4963410000000  0.4522450000000  0.5193170000000 1.0
C      1  0.5055410000000  0.5587310000000  0.5146820000000 1.0
C      1  0.5198670000000  0.5096130000000  0.5344180000000 1.0
END
