TITL C-9265-7156-343 -2.52188422451183e-06 125000 -364.005109050039 0 0 60 (C1) n - 1
REM
REM in /home/bkarasulu/CARBON/AIRSS/Generating-Clusters/EDIP-Nigel-Params/Higher-Symm/Box-15A/Only-C60/SD-CG/HFTN-CG
REM
REM
REM
REM
REM
REM ./C.cell (414f73aa93bd7a1190c7fd0f31ff2f98)
REM
REM compiler GCC version 9.2.1 20190827 (Red Hat 9.2.1-1)
REM options -cpp -mtune=generic -march=x86-64 -g -O0 -fpre-include=/usr/include/finclude/math-vector-fortran.h
REM seed -128035339 -1921634247 -1788853433 -2051537638 2122719141 862124318 -152219630 1262080971 1291229887 531341171 1989293301 -568131449 -461077763 1442432742 -115085148 -1794367484 -1410781520 -246900583 -133502620 -862728555 1412276808 1169590482 1667799537 -721033971 -716351241 -419174481 -1757945528 -395527689 1830366825 1012716313 -873817816 1851561408 1934107060
REM
CELL 1.54180   50.00000   50.00000   50.00000   90.00000   90.00000   90.00000
LATT -1
SFAC C  
C      1  0.5470420000000  0.4931730000000  0.5361370000000 1.0
C      1  0.5421790000000  0.5066820000000  0.4664390000000 1.0
C      1  0.4490050000000  0.4908830000000  0.4611990000000 1.0
C      1  0.4539920000000  0.5068920000000  0.5338070000000 1.0
C      1  0.5411880000000  0.5328090000000  0.4949670000000 1.0
C      1  0.5452290000000  0.4670220000000  0.5073800000000 1.0
C      1  0.4527220000000  0.4666830000000  0.4916090000000 1.0
C      1  0.4510050000000  0.5362850000000  0.5080740000000 1.0
C      1  0.5192080000000  0.5394570000000  0.5608450000000 1.0
C      1  0.5174090000000  0.4589670000000  0.4394050000000 1.0
C      1  0.4822560000000  0.5422720000000  0.4361870000000 1.0
C      1  0.4827430000000  0.4591710000000  0.5607760000000 1.0
C      1  0.5185840000000  0.5592040000000  0.5399180000000 1.0
C      1  0.5181580000000  0.4384950000000  0.4596280000000 1.0
C      1  0.4825600000000  0.4392810000000  0.5401460000000 1.0
C      1  0.4820270000000  0.5623660000000  0.4572930000000 1.0
C      1  0.4698900000000  0.5477450000000  0.5298870000000 1.0
C      1  0.4686540000000  0.4468120000000  0.4711840000000 1.0
C      1  0.5306770000000  0.5497080000000  0.4703210000000 1.0
C      1  0.5327980000000  0.4478940000000  0.5302780000000 1.0
C      1  0.4707200000000  0.5273020000000  0.5524480000000 1.0
C      1  0.4682290000000  0.4689250000000  0.4501430000000 1.0
C      1  0.5325530000000  0.4685810000000  0.5531570000000 1.0
C      1  0.5303110000000  0.5288730000000  0.4479670000000 1.0
C      1  0.5453330000000  0.5315180000000  0.5678730000000 1.0
C      1  0.5426530000000  0.4695370000000  0.4322600000000 1.0
C      1  0.4564710000000  0.5312490000000  0.4311340000000 1.0
C      1  0.4573570000000  0.4694290000000  0.5675360000000 1.0
C      1  0.5439820000000  0.5674850000000  0.5303050000000 1.0
C      1  0.5439060000000  0.4324610000000  0.4696330000000 1.0
C      1  0.4573500000000  0.4321890000000  0.5295060000000 1.0
C      1  0.4564960000000  0.5677680000000  0.4686900000000 1.0
C      1  0.5533120000000  0.4578280000000  0.4785500000000 1.0
C      1  0.5551140000000  0.5428920000000  0.5209650000000 1.0
C      1  0.4467850000000  0.4571810000000  0.5209790000000 1.0
C      1  0.4485810000000  0.5421380000000  0.4781900000000 1.0
C      1  0.5527620000000  0.4790770000000  0.4570690000000 1.0
C      1  0.5562160000000  0.5221920000000  0.5433240000000 1.0
C      1  0.4494260000000  0.5210500000000  0.4568750000000 1.0
C      1  0.4470200000000  0.4781630000000  0.5425910000000 1.0
C      1  0.4978140000000  0.5200860000000  0.5620120000000 1.0
C      1  0.4943870000000  0.4761970000000  0.4379850000000 1.0
C      1  0.5034240000000  0.5226320000000  0.4373320000000 1.0
C      1  0.5056740000000  0.4764600000000  0.5631030000000 1.0
C      1  0.4947210000000  0.5628680000000  0.5239050000000 1.0
C      1  0.4957290000000  0.4357030000000  0.4775140000000 1.0
C      1  0.5060870000000  0.4351810000000  0.5240510000000 1.0
C      1  0.5046920000000  0.5635030000000  0.4753380000000 1.0
C      1  0.4763710000000  0.4837250000000  0.4948400000000 1.0
C      1  0.4867410000000  0.5281530000000  0.4942000000000 1.0
C      1  0.5195190000000  0.4813530000000  0.5042600000000 1.0
C      1  0.5151780000000  0.5267480000000  0.5109050000000 1.0
C      1  0.4854560000000  0.5023710000000  0.4719550000000 1.0
C      1  0.4791670000000  0.5031440000000  0.5162250000000 1.0
C      1  0.5164320000000  0.4995460000000  0.4818230000000 1.0
C      1  0.5158890000000  0.4998720000000  0.5271850000000 1.0
C      1  0.5012300000000  0.4206360000000  0.5005090000000 1.0
C      1  0.4991370000000  0.5761510000000  0.4997150000000 1.0
C      1  0.4983850000000  0.4992590000000  0.4227090000000 1.0
C      1  0.5020660000000  0.4987730000000  0.5797590000000 1.0
END
