TITL C-9269-7444-188 3.21175227474406e-05 125000 -366.515393515959 0 0 60 (C1) n - 1
REM
REM in /home/bkarasulu/CARBON/AIRSS/Generating-Clusters/EDIP-Nigel-Params/Higher-Symm/Box-15A/Only-C60/SD-CG/HFTN-CG
REM
REM
REM
REM
REM
REM ./C.cell (414f73aa93bd7a1190c7fd0f31ff2f98)
REM
REM compiler GCC version 9.2.1 20190827 (Red Hat 9.2.1-1)
REM options -cpp -mtune=generic -march=x86-64 -g -O0 -fpre-include=/usr/include/finclude/math-vector-fortran.h
REM seed 886759523 108818581 -142973946 -156273577 1332001586 -1216220730 -1501090212 1528924287 1979432622 -1933816588 161167288 529658863 1489393574 -280696267 1582176177 507429127 -1835682235 -761924310 -695570669 -809965114 -746090140 1762448018 -208837783 2116193243 1761960977 1502501233 377173143 1532238283 577014373 1050894759 1063066339 1505648008 -2111928262
REM
CELL 1.54180   50.00000   50.00000   50.00000   90.00000   90.00000   90.00000
LATT -1
SFAC C  
C      1  0.5328290000000  0.4844250000000  0.5477580000000 1.0
C      1  0.5282230000000  0.4577000000000  0.5352460000000 1.0
C      1  0.5023460000000  0.4479500000000  0.5407840000000 1.0
C      1  0.4766740000000  0.4519890000000  0.5300630000000 1.0
C      1  0.4608540000000  0.4735060000000  0.5422270000000 1.0
C      1  0.4480820000000  0.4983140000000  0.5316380000000 1.0
C      1  0.4619890000000  0.5212700000000  0.5441850000000 1.0
C      1  0.4822290000000  0.5396620000000  0.5338700000000 1.0
C      1  0.5099730000000  0.5356130000000  0.5394210000000 1.0
C      1  0.5348010000000  0.5309360000000  0.5261410000000 1.0
C      1  0.5469860000000  0.5032710000000  0.5292550000000 1.0
C      1  0.4466330000000  0.4368690000000  0.4665460000000 1.0
C      1  0.4200880000000  0.4776960000000  0.4670070000000 1.0
C      1  0.4221500000000  0.5221590000000  0.4676600000000 1.0
C      1  0.4462620000000  0.5610270000000  0.4651450000000 1.0
C      1  0.4870380000000  0.5785570000000  0.4632950000000 1.0
C      1  0.5330490000000  0.5714370000000  0.4646200000000 1.0
C      1  0.5691730000000  0.5458330000000  0.4608120000000 1.0
C      1  0.5783190000000  0.5031580000000  0.4670260000000 1.0
C      1  0.5678530000000  0.4605490000000  0.4728230000000 1.0
C      1  0.5364780000000  0.4289900000000  0.4704310000000 1.0
C      1  0.4901770000000  0.4228140000000  0.4667640000000 1.0
C      1  0.4471190000000  0.5000450000000  0.5009070000000 1.0
C      1  0.4600680000000  0.5273610000000  0.4898980000000 1.0
C      1  0.4765200000000  0.5501930000000  0.5063450000000 1.0
C      1  0.5048010000000  0.5480410000000  0.4894230000000 1.0
C      1  0.5333570000000  0.5364080000000  0.4960910000000 1.0
C      1  0.5334550000000  0.5073460000000  0.4835890000000 1.0
C      1  0.5483640000000  0.4890490000000  0.5026430000000 1.0
C      1  0.5344550000000  0.4609980000000  0.5057980000000 1.0
C      1  0.5079240000000  0.4564710000000  0.4893850000000 1.0
C      1  0.4778580000000  0.4521820000000  0.4999720000000 1.0
C      1  0.4584770000000  0.4733060000000  0.4884690000000 1.0
C      1  0.5244980000000  0.4522880000000  0.4543510000000 1.0
C      1  0.4924180000000  0.4472790000000  0.4495550000000 1.0
C      1  0.4630960000000  0.4591270000000  0.4517810000000 1.0
C      1  0.4433200000000  0.4845860000000  0.4485190000000 1.0
C      1  0.4452360000000  0.5148040000000  0.4505160000000 1.0
C      1  0.4599930000000  0.5414960000000  0.4475870000000 1.0
C      1  0.4906880000000  0.5526060000000  0.4479470000000 1.0
C      1  0.5229060000000  0.5487210000000  0.4488240000000 1.0
C      1  0.5473670000000  0.5316670000000  0.4441910000000 1.0
C      1  0.5493270000000  0.5033430000000  0.4573550000000 1.0
C      1  0.5480590000000  0.4719690000000  0.4521540000000 1.0
C      1  0.4675230000000  0.4265640000000  0.4846710000000 1.0
C      1  0.4316300000000  0.4559880000000  0.4829400000000 1.0
C      1  0.4186490000000  0.5002350000000  0.4866550000000 1.0
C      1  0.4281860000000  0.5464330000000  0.4810580000000 1.0
C      1  0.4645680000000  0.5764280000000  0.4806040000000 1.0
C      1  0.5109390000000  0.5835220000000  0.4779090000000 1.0
C      1  0.5525220000000  0.5578200000000  0.4822560000000 1.0
C      1  0.5889230000000  0.5285780000000  0.4716800000000 1.0
C      1  0.5760670000000  0.4842210000000  0.4893980000000 1.0
C      1  0.5535600000000  0.4418260000000  0.4906840000000 1.0
C      1  0.5131920000000  0.4190770000000  0.4830420000000 1.0
C      1  0.5047420000000  0.4996250000000  0.4836200000000 1.0
C      1  0.4985340000000  0.4931300000000  0.5101620000000 1.0
C      1  0.4890430000000  0.5234600000000  0.4745570000000 1.0
C      1  0.4912560000000  0.4968100000000  0.5380230000000 1.0
C      1  0.5100570000000  0.4950700000000  0.5602590000000 1.0
END
