TITL C-9259-5960-130 -7.1883183936219e-06 125000 -358.240059542719 0 0 60 (C1) n - 1
REM
REM in /home/bkarasulu/CARBON/AIRSS/Generating-Clusters/EDIP-Nigel-Params/Higher-Symm/Box-15A/Only-C60/SD-CG/HFTN-CG
REM
REM
REM
REM
REM
REM ./C.cell (414f73aa93bd7a1190c7fd0f31ff2f98)
REM
REM compiler GCC version 9.2.1 20190827 (Red Hat 9.2.1-1)
REM options -cpp -mtune=generic -march=x86-64 -g -O0 -fpre-include=/usr/include/finclude/math-vector-fortran.h
REM seed -68125223 956826424 820794283 -1874766751 -721939710 1105474618 1372901305 1085374616 -715759305 1795308781 -929298278 -1098335013 -277035676 -2093964471 706369476 1785873955 -2053032 935080225 698245552 1312948532 1942971061 72646171 1536259852 -547693849 -895515675 -80982568 -91543213 1080274 -1256032776 -1057003513 453324226 -1934411644 -140391454
REM
CELL 1.54180   50.00000   50.00000   50.00000   90.00000   90.00000   90.00000
LATT -1
SFAC C  
C      1  0.5510420000000  0.4815950000000  0.4702410000000 1.0
C      1  0.4991980000000  0.4837130000000  0.5558710000000 1.0
C      1  0.4534540000000  0.4844430000000  0.4723500000000 1.0
C      1  0.5497380000000  0.5132760000000  0.4707960000000 1.0
C      1  0.4979330000000  0.5154210000000  0.5551360000000 1.0
C      1  0.4515950000000  0.5173800000000  0.4718340000000 1.0
C      1  0.5488520000000  0.4856390000000  0.5287210000000 1.0
C      1  0.5016420000000  0.4838970000000  0.4417650000000 1.0
C      1  0.4521960000000  0.4844040000000  0.5273660000000 1.0
C      1  0.5493460000000  0.5170250000000  0.5293070000000 1.0
C      1  0.4996010000000  0.5148610000000  0.4424180000000 1.0
C      1  0.4517510000000  0.5164050000000  0.5278920000000 1.0
C      1  0.5250920000000  0.5246880000000  0.5136750000000 1.0
C      1  0.4736860000000  0.5345310000000  0.5134870000000 1.0
C      1  0.5022220000000  0.5292130000000  0.4693710000000 1.0
C      1  0.5239490000000  0.4803020000000  0.5134430000000 1.0
C      1  0.4750380000000  0.4674480000000  0.5130310000000 1.0
C      1  0.5028950000000  0.4694360000000  0.4692370000000 1.0
C      1  0.5242020000000  0.5185390000000  0.4854990000000 1.0
C      1  0.4764580000000  0.5278400000000  0.4845380000000 1.0
C      1  0.5012670000000  0.5329950000000  0.5294950000000 1.0
C      1  0.5268690000000  0.4742640000000  0.4853850000000 1.0
C      1  0.4790860000000  0.4775400000000  0.4855310000000 1.0
C      1  0.5020100000000  0.4681170000000  0.5292150000000 1.0
C      1  0.4750950000000  0.4742180000000  0.5681240000000 1.0
C      1  0.4559400000000  0.4749470000000  0.4452870000000 1.0
C      1  0.5738280000000  0.4726360000000  0.4856810000000 1.0
C      1  0.4734550000000  0.5233300000000  0.5672340000000 1.0
C      1  0.4515810000000  0.5257500000000  0.4443120000000 1.0
C      1  0.5708240000000  0.5229690000000  0.4878130000000 1.0
C      1  0.4776030000000  0.4740920000000  0.4290990000000 1.0
C      1  0.4518990000000  0.4750070000000  0.5545070000000 1.0
C      1  0.5705570000000  0.4759430000000  0.5123780000000 1.0
C      1  0.4747440000000  0.5231320000000  0.4309210000000 1.0
C      1  0.4496320000000  0.5249930000000  0.5552650000000 1.0
C      1  0.5724860000000  0.5260960000000  0.5145940000000 1.0
C      1  0.4646610000000  0.4403250000000  0.5099300000000 1.0
C      1  0.5062680000000  0.4415470000000  0.4614830000000 1.0
C      1  0.5338060000000  0.4444710000000  0.5526620000000 1.0
C      1  0.4611750000000  0.5606790000000  0.5132530000000 1.0
C      1  0.5120810000000  0.5549000000000  0.4589030000000 1.0
C      1  0.5364970000000  0.5583450000000  0.5533250000000 1.0
C      1  0.4435300000000  0.4418400000000  0.4926130000000 1.0
C      1  0.5109690000000  0.4416580000000  0.5368460000000 1.0
C      1  0.5300100000000  0.4424300000000  0.4459380000000 1.0
C      1  0.4371570000000  0.5572660000000  0.4989480000000 1.0
C      1  0.5103330000000  0.5572510000000  0.5433410000000 1.0
C      1  0.5385260000000  0.5566200000000  0.4496660000000 1.0
C      1  0.4289230000000  0.5313240000000  0.4868870000000 1.0
C      1  0.5486490000000  0.5293590000000  0.4445530000000 1.0
C      1  0.5205290000000  0.5275310000000  0.5706520000000 1.0
C      1  0.4336510000000  0.4679030000000  0.4887090000000 1.0
C      1  0.5476810000000  0.4665040000000  0.4436370000000 1.0
C      1  0.5230000000000  0.4764040000000  0.5716150000000 1.0
C      1  0.4263700000000  0.5236040000000  0.5147910000000 1.0
C      1  0.5470660000000  0.5310370000000  0.5564080000000 1.0
C      1  0.5226630000000  0.5281060000000  0.4287820000000 1.0
C      1  0.4271310000000  0.4782730000000  0.5139250000000 1.0
C      1  0.5468760000000  0.4707860000000  0.5555080000000 1.0
C      1  0.5256790000000  0.4757480000000  0.4268040000000 1.0
END
