TITL C-9270-2362-99 5.34392682317691e-06 125000 -342.445771677243 0 0 60 (C1) n - 1
REM
REM in /home/bkarasulu/CARBON/AIRSS/Generating-Clusters/EDIP-Nigel-Params/Higher-Symm/Box-15A/Only-C60/SD-CG/HFTN-CG
REM
REM
REM
REM
REM
REM ./C.cell (414f73aa93bd7a1190c7fd0f31ff2f98)
REM
REM compiler GCC version 9.2.1 20190827 (Red Hat 9.2.1-1)
REM options -cpp -mtune=generic -march=x86-64 -g -O0 -fpre-include=/usr/include/finclude/math-vector-fortran.h
REM seed -1458359216 1517496080 -776174502 1863821101 2008926340 -1087733377 2085383790 -871991465 -1544732725 1261510120 2086201390 -1321468180 -40132880 870648701 2117887452 -1041816932 -1053246634 1058803133 -1304055114 -1684908066 -2078567673 -246300156 1129632651 -165528219 1477746664 1450457826 -1615847636 1734511071 462229670 135767818 646042244 -511958712 627570913
REM
CELL 1.54180   50.00000   50.00000   50.00000   90.00000   90.00000   90.00000
LATT -1
SFAC C  
C      1  0.4742560000000  0.4211550000000  0.5048040000000 1.0
C      1  0.5243980000000  0.5760490000000  0.5059170000000 1.0
C      1  0.5283500000000  0.4201600000000  0.5019520000000 1.0
C      1  0.4677530000000  0.5753500000000  0.5006650000000 1.0
C      1  0.5259040000000  0.4638280000000  0.5066000000000 1.0
C      1  0.4864790000000  0.5353250000000  0.5018210000000 1.0
C      1  0.4794700000000  0.4645720000000  0.5104680000000 1.0
C      1  0.5224320000000  0.5292430000000  0.4947280000000 1.0
C      1  0.5411590000000  0.4551070000000  0.5413660000000 1.0
C      1  0.4619960000000  0.5503340000000  0.5415200000000 1.0
C      1  0.4646450000000  0.4619720000000  0.5465700000000 1.0
C      1  0.5238020000000  0.5378600000000  0.5410820000000 1.0
C      1  0.4821780000000  0.5392050000000  0.5861270000000 1.0
C      1  0.5180320000000  0.4605770000000  0.5842210000000 1.0
C      1  0.5047280000000  0.5249630000000  0.5846440000000 1.0
C      1  0.4915370000000  0.4655680000000  0.5863630000000 1.0
C      1  0.4694530000000  0.5270090000000  0.5253810000000 1.0
C      1  0.5518060000000  0.4737540000000  0.5192070000000 1.0
C      1  0.5385650000000  0.5249440000000  0.5194780000000 1.0
C      1  0.4540410000000  0.4770010000000  0.5226110000000 1.0
C      1  0.5424030000000  0.4854450000000  0.4575700000000 1.0
C      1  0.4601640000000  0.5181600000000  0.4598820000000 1.0
C      1  0.4581590000000  0.4873650000000  0.4606730000000 1.0
C      1  0.5413900000000  0.5164180000000  0.4570410000000 1.0
C      1  0.5306030000000  0.4371640000000  0.4566090000000 1.0
C      1  0.4719990000000  0.5661820000000  0.4531170000000 1.0
C      1  0.4680300000000  0.4386630000000  0.4597640000000 1.0
C      1  0.5304850000000  0.5660120000000  0.4570310000000 1.0
C      1  0.4847320000000  0.5715540000000  0.4772810000000 1.0
C      1  0.5149360000000  0.4311710000000  0.4790070000000 1.0
C      1  0.5136570000000  0.5639960000000  0.4806820000000 1.0
C      1  0.4855860000000  0.4324140000000  0.4806810000000 1.0
C      1  0.5545120000000  0.4161230000000  0.4997630000000 1.0
C      1  0.4438150000000  0.5868700000000  0.4986780000000 1.0
C      1  0.4477990000000  0.4186170000000  0.5052830000000 1.0
C      1  0.5506200000000  0.5779330000000  0.5094870000000 1.0
C      1  0.5183470000000  0.4348750000000  0.5258410000000 1.0
C      1  0.4788730000000  0.5702650000000  0.5276180000000 1.0
C      1  0.4867530000000  0.4371960000000  0.5263790000000 1.0
C      1  0.5075340000000  0.5580510000000  0.5239060000000 1.0
C      1  0.4643510000000  0.5496840000000  0.5692070000000 1.0
C      1  0.5271800000000  0.4723230000000  0.5606220000000 1.0
C      1  0.5096230000000  0.5183440000000  0.5578370000000 1.0
C      1  0.4830060000000  0.4777430000000  0.5627170000000 1.0
C      1  0.4748070000000  0.4644360000000  0.4517060000000 1.0
C      1  0.5274480000000  0.5401310000000  0.4462120000000 1.0
C      1  0.5241610000000  0.4633500000000  0.4498130000000 1.0
C      1  0.4771310000000  0.5393020000000  0.4477060000000 1.0
C      1  0.5512980000000  0.5007620000000  0.5245770000000 1.0
C      1  0.4535380000000  0.5045300000000  0.5244210000000 1.0
C      1  0.4838410000000  0.5003950000000  0.4271650000000 1.0
C      1  0.5157870000000  0.4991990000000  0.4252020000000 1.0
C      1  0.5020610000000  0.5344960000000  0.4321410000000 1.0
C      1  0.4989040000000  0.4650700000000  0.4340000000000 1.0
C      1  0.5631920000000  0.5019420000000  0.4686860000000 1.0
C      1  0.4386760000000  0.5045130000000  0.4730180000000 1.0
C      1  0.5004540000000  0.4998200000000  0.4575560000000 1.0
C      1  0.5011510000000  0.5065920000000  0.4900180000000 1.0
C      1  0.5033440000000  0.4832850000000  0.5131970000000 1.0
C      1  0.5062990000000  0.4895840000000  0.5478690000000 1.0
END
