TITL C-9268-6400-258 -1.67016258840036e-06 125000 -362.968946449758 0 0 60 (C1) n - 1
REM
REM in /home/bkarasulu/CARBON/AIRSS/Generating-Clusters/EDIP-Nigel-Params/Higher-Symm/Box-15A/Only-C60/SD-CG/HFTN-CG
REM
REM
REM
REM
REM
REM ./C.cell (414f73aa93bd7a1190c7fd0f31ff2f98)
REM
REM compiler GCC version 9.2.1 20190827 (Red Hat 9.2.1-1)
REM options -cpp -mtune=generic -march=x86-64 -g -O0 -fpre-include=/usr/include/finclude/math-vector-fortran.h
REM seed -1699212133 194234594 -1595803136 1719255680 -463873027 -1722878760 -4495397 -1116129149 -976940999 1870739669 2087439653 1344103026 -2098955908 239472910 1108857538 -1741550223 -149470603 1085935279 12940484 1854961806 1685930211 -659948667 167503838 -616989180 2111415412 -823841976 -280749081 -1997231563 -2008112756 2136910935 -631611109 -904501657 -952563835
REM
CELL 1.54180   50.00000   50.00000   50.00000   90.00000   90.00000   90.00000
LATT -1
SFAC C  
C      1  0.5310470000000  0.4423450000000  0.5284690000000 1.0
C      1  0.4855850000000  0.4713010000000  0.5035300000000 1.0
C      1  0.5099700000000  0.4275630000000  0.4869480000000 1.0
C      1  0.5517100000000  0.5315210000000  0.5147930000000 1.0
C      1  0.4409300000000  0.5158000000000  0.4739950000000 1.0
C      1  0.4465660000000  0.4567590000000  0.5442100000000 1.0
C      1  0.5375260000000  0.5569360000000  0.5231360000000 1.0
C      1  0.4430270000000  0.5314200000000  0.5225350000000 1.0
C      1  0.5150720000000  0.5345920000000  0.5618830000000 1.0
C      1  0.4341970000000  0.4917800000000  0.4922100000000 1.0
C      1  0.5141400000000  0.4979140000000  0.4759460000000 1.0
C      1  0.4584980000000  0.4428750000000  0.4839250000000 1.0
C      1  0.4828470000000  0.5485480000000  0.4549000000000 1.0
C      1  0.5313790000000  0.5757380000000  0.5025910000000 1.0
C      1  0.5136260000000  0.4753170000000  0.4945040000000 1.0
C      1  0.5526930000000  0.5085910000000  0.5328790000000 1.0
C      1  0.4880020000000  0.5693350000000  0.4741940000000 1.0
C      1  0.4560670000000  0.4744410000000  0.4782380000000 1.0
C      1  0.4775180000000  0.5247010000000  0.5585260000000 1.0
C      1  0.4830110000000  0.4466210000000  0.5210000000000 1.0
C      1  0.5589190000000  0.5268980000000  0.4868310000000 1.0
C      1  0.5015890000000  0.5157190000000  0.5397150000000 1.0
C      1  0.5491910000000  0.5226360000000  0.4593750000000 1.0
C      1  0.5051200000000  0.5401300000000  0.4389650000000 1.0
C      1  0.4657600000000  0.4993810000000  0.4583350000000 1.0
C      1  0.4846750000000  0.4339210000000  0.4707340000000 1.0
C      1  0.5322200000000  0.4722510000000  0.5193240000000 1.0
C      1  0.4539280000000  0.5378490000000  0.4947710000000 1.0
C      1  0.5070010000000  0.4286490000000  0.5167760000000 1.0
C      1  0.5325590000000  0.5460850000000  0.4501550000000 1.0
C      1  0.5347470000000  0.5068770000000  0.5574190000000 1.0
C      1  0.4419880000000  0.4858390000000  0.5473740000000 1.0
C      1  0.5685860000000  0.4727970000000  0.4994260000000 1.0
C      1  0.4891110000000  0.5141220000000  0.4706830000000 1.0
C      1  0.4630490000000  0.5443960000000  0.5410120000000 1.0
C      1  0.4709270000000  0.5653880000000  0.4980700000000 1.0
C      1  0.5510150000000  0.4717360000000  0.4557800000000 1.0
C      1  0.5188840000000  0.5585730000000  0.5450880000000 1.0
C      1  0.4756770000000  0.4532290000000  0.5492270000000 1.0
C      1  0.4857610000000  0.5583310000000  0.5245330000000 1.0
C      1  0.5175660000000  0.4800570000000  0.5598920000000 1.0
C      1  0.5198340000000  0.5401870000000  0.4866640000000 1.0
C      1  0.5288060000000  0.4541950000000  0.5547590000000 1.0
C      1  0.4731170000000  0.4962790000000  0.5128170000000 1.0
C      1  0.5337640000000  0.4960810000000  0.4541560000000 1.0
C      1  0.5000240000000  0.5167880000000  0.4217490000000 1.0
C      1  0.5007100000000  0.5335590000000  0.5133200000000 1.0
C      1  0.4445700000000  0.5003070000000  0.5203510000000 1.0
C      1  0.4951520000000  0.4692110000000  0.4286130000000 1.0
C      1  0.4773990000000  0.4944530000000  0.4289730000000 1.0
C      1  0.4564350000000  0.4365220000000  0.5127980000000 1.0
C      1  0.4657390000000  0.4969800000000  0.5635280000000 1.0
C      1  0.5171710000000  0.4922650000000  0.4273670000000 1.0
C      1  0.4919470000000  0.4499810000000  0.4486430000000 1.0
C      1  0.4877620000000  0.4780590000000  0.5584260000000 1.0
C      1  0.5240190000000  0.4536630000000  0.4770840000000 1.0
C      1  0.5182960000000  0.5700450000000  0.4768990000000 1.0
C      1  0.5560110000000  0.4565490000000  0.4798330000000 1.0
C      1  0.4796520000000  0.5203120000000  0.4978500000000 1.0
C      1  0.5679110000000  0.4856000000000  0.5242700000000 1.0
END
