TITL C-9265-7156-29 1.24793763230941e-05 125000 -373.364137999311 0 0 60 (C1) n - 1
REM
REM in /home/bkarasulu/CARBON/AIRSS/Generating-Clusters/EDIP-Nigel-Params/Higher-Symm/Box-15A/Only-C60/SD-CG/HFTN-CG
REM
REM
REM
REM
REM
REM ./C.cell (414f73aa93bd7a1190c7fd0f31ff2f98)
REM
REM compiler GCC version 9.2.1 20190827 (Red Hat 9.2.1-1)
REM options -cpp -mtune=generic -march=x86-64 -g -O0 -fpre-include=/usr/include/finclude/math-vector-fortran.h
REM seed -1162302860 -1645524569 -521226088 711956839 -1773341084 -1272437585 1697700527 -1845039769 2020967934 -674135176 1570339202 -389353043 -1842311980 1774804158 931239849 -756769400 7298797 -1061202187 -953229506 1095292520 -1578627923 1177926795 -1211408281 305004815 286801768 1517904286 -774320899 -1491468130 -701422992 1822003814 -1870711328 -833199807 1502219051
REM
CELL 1.54180   50.00000   50.00000   50.00000   90.00000   90.00000   90.00000
LATT -1
SFAC C  
C      1  0.4873470000000  0.5648730000000  0.4715500000000 1.0
C      1  0.5801310000000  0.4822720000000  0.4817050000000 1.0
C      1  0.4717440000000  0.4835210000000  0.5656850000000 1.0
C      1  0.5081790000000  0.5719060000000  0.5241220000000 1.0
C      1  0.5178210000000  0.4259500000000  0.4740760000000 1.0
C      1  0.4933510000000  0.4294300000000  0.5229700000000 1.0
C      1  0.4232070000000  0.4855480000000  0.5143660000000 1.0
C      1  0.4239580000000  0.5349060000000  0.4896740000000 1.0
C      1  0.5721750000000  0.5176320000000  0.5194280000000 1.0
C      1  0.5258730000000  0.4814650000000  0.4419020000000 1.0
C      1  0.5147900000000  0.5157900000000  0.5635180000000 1.0
C      1  0.4761310000000  0.5069740000000  0.4297000000000 1.0
C      1  0.4888840000000  0.4249860000000  0.4764600000000 1.0
C      1  0.5758950000000  0.5253850000000  0.4917940000000 1.0
C      1  0.4687250000000  0.5124440000000  0.5684810000000 1.0
C      1  0.5214500000000  0.4344610000000  0.5176220000000 1.0
C      1  0.5155000000000  0.5594350000000  0.4783500000000 1.0
C      1  0.4800590000000  0.5760060000000  0.5187210000000 1.0
C      1  0.4266850000000  0.5296540000000  0.5181450000000 1.0
C      1  0.4254220000000  0.4888600000000  0.4856820000000 1.0
C      1  0.5799860000000  0.4749500000000  0.5096810000000 1.0
C      1  0.5267020000000  0.5074000000000  0.4290840000000 1.0
C      1  0.5188160000000  0.4871290000000  0.5662530000000 1.0
C      1  0.4779110000000  0.4816720000000  0.4435340000000 1.0
C      1  0.5404280000000  0.4510890000000  0.5316680000000 1.0
C      1  0.4419280000000  0.5437280000000  0.5381910000000 1.0
C      1  0.5347680000000  0.5300430000000  0.4426820000000 1.0
C      1  0.4712420000000  0.4381880000000  0.4595080000000 1.0
C      1  0.4591430000000  0.5647250000000  0.5328540000000 1.0
C      1  0.5373650000000  0.5471190000000  0.4641710000000 1.0
C      1  0.5603490000000  0.5445130000000  0.4792710000000 1.0
C      1  0.5650310000000  0.4537180000000  0.5192800000000 1.0
C      1  0.4376530000000  0.4706060000000  0.4689360000000 1.0
C      1  0.4472350000000  0.5280490000000  0.5603920000000 1.0
C      1  0.4591250000000  0.4624760000000  0.4536250000000 1.0
C      1  0.5336800000000  0.4712380000000  0.5493210000000 1.0
C      1  0.5192750000000  0.5600760000000  0.5466690000000 1.0
C      1  0.4395320000000  0.4692500000000  0.5295440000000 1.0
C      1  0.5453180000000  0.4611400000000  0.4475840000000 1.0
C      1  0.4662300000000  0.5467190000000  0.4636130000000 1.0
C      1  0.4780160000000  0.4434770000000  0.5410950000000 1.0
C      1  0.5322210000000  0.4372450000000  0.4531320000000 1.0
C      1  0.5681610000000  0.4669560000000  0.4620180000000 1.0
C      1  0.5543040000000  0.5296760000000  0.5367150000000 1.0
C      1  0.4418620000000  0.5511570000000  0.4760970000000 1.0
C      1  0.4619960000000  0.4655560000000  0.5452020000000 1.0
C      1  0.4669290000000  0.5298300000000  0.4419050000000 1.0
C      1  0.5316580000000  0.5356870000000  0.5513390000000 1.0
C      1  0.5864240000000  0.4951440000000  0.5279610000000 1.0
C      1  0.5900960000000  0.5076490000000  0.4754670000000 1.0
C      1  0.5012220000000  0.5100280000000  0.4173790000000 1.0
C      1  0.4144810000000  0.5126030000000  0.4754020000000 1.0
C      1  0.4120720000000  0.5075590000000  0.5275690000000 1.0
C      1  0.4960800000000  0.4747750000000  0.5768260000000 1.0
C      1  0.5015220000000  0.4706520000000  0.4337360000000 1.0
C      1  0.4797620000000  0.4173100000000  0.5017720000000 1.0
C      1  0.4920710000000  0.5252420000000  0.5771110000000 1.0
C      1  0.5321960000000  0.4188930000000  0.4969460000000 1.0
C      1  0.5236100000000  0.5739300000000  0.5009530000000 1.0
C      1  0.4762720000000  0.5813050000000  0.4915610000000 1.0
END
