TITL C-9256-7861-97 0.00291889744075576 125000 -371.594368810688 0 0 60 (C1) n - 1
REM
REM in /home/bkarasulu/CARBON/AIRSS/Generating-Clusters/EDIP-Nigel-Params/Higher-Symm/Box-15A/Only-C60/SD-CG/HFTN-CG
REM
REM
REM
REM
REM
REM ./C.cell (414f73aa93bd7a1190c7fd0f31ff2f98)
REM
REM compiler GCC version 9.2.1 20190827 (Red Hat 9.2.1-1)
REM options -cpp -mtune=generic -march=x86-64 -g -O0 -fpre-include=/usr/include/finclude/math-vector-fortran.h
REM seed 2081616695 172181835 -1567273978 810306225 -1876017094 1307228355 2037373695 -22811068 -523971963 676906598 425924677 -1241095448 1527501515 53245466 1295535489 508501688 -273316028 -94919016 -833852304 -1728326766 -776037463 -1061847268 1531992250 545514155 282868363 -644753269 -905535426 624025009 -1356079477 -1654979901 719599775 -1313003887 -1317175736
REM
CELL 1.54180   50.00000   50.00000   50.00000   90.00000   90.00000   90.00000
LATT -1
SFAC C  
C      1  0.5369100000000  0.5480320000000  0.5372370000000 1.0
C      1  0.5416270000000  0.5535580000000  0.4672210000000 1.0
C      1  0.5419660000000  0.4861330000000  0.4414000000000 1.0
C      1  0.5442930000000  0.4367720000000  0.4954000000000 1.0
C      1  0.5395190000000  0.4738920000000  0.5557320000000 1.0
C      1  0.5333640000000  0.4232380000000  0.5396350000000 1.0
C      1  0.5077700000000  0.5077460000000  0.5666580000000 1.0
C      1  0.5275420000000  0.5830300000000  0.5065240000000 1.0
C      1  0.5278320000000  0.5347270000000  0.4260830000000 1.0
C      1  0.5277480000000  0.4398020000000  0.4456520000000 1.0
C      1  0.5472810000000  0.4593050000000  0.4518870000000 1.0
C      1  0.5517310000000  0.4379460000000  0.5239930000000 1.0
C      1  0.5355450000000  0.5028630000000  0.5587610000000 1.0
C      1  0.5468540000000  0.5642340000000  0.5148360000000 1.0
C      1  0.5484280000000  0.5350120000000  0.4455310000000 1.0
C      1  0.4669380000000  0.4788630000000  0.5704150000000 1.0
C      1  0.4634020000000  0.5579220000000  0.5201770000000 1.0
C      1  0.4669500000000  0.5481940000000  0.4515420000000 1.0
C      1  0.4673820000000  0.4747950000000  0.4416330000000 1.0
C      1  0.4693090000000  0.4420290000000  0.5116230000000 1.0
C      1  0.4453220000000  0.4535780000000  0.5085440000000 1.0
C      1  0.4473210000000  0.4843670000000  0.5532950000000 1.0
C      1  0.4404360000000  0.5464330000000  0.5271520000000 1.0
C      1  0.4441400000000  0.5362470000000  0.4582670000000 1.0
C      1  0.4666080000000  0.4839280000000  0.4675280000000 1.0
C      1  0.5540180000000  0.4659810000000  0.5318220000000 1.0
C      1  0.5477360000000  0.5207060000000  0.5391520000000 1.0
C      1  0.5554050000000  0.5473880000000  0.4926460000000 1.0
C      1  0.5546140000000  0.5083470000000  0.4556800000000 1.0
C      1  0.5552260000000  0.4592850000000  0.4796760000000 1.0
C      1  0.5742640000000  0.4830050000000  0.5191510000000 1.0
C      1  0.5719770000000  0.5125190000000  0.5239800000000 1.0
C      1  0.5754790000000  0.5259000000000  0.4971660000000 1.0
C      1  0.5758470000000  0.5046290000000  0.4759420000000 1.0
C      1  0.5758210000000  0.4780380000000  0.4897540000000 1.0
C      1  0.4980600000000  0.5332730000000  0.5605800000000 1.0
C      1  0.5041260000000  0.5716020000000  0.4951780000000 1.0
C      1  0.5059650000000  0.5173730000000  0.4282620000000 1.0
C      1  0.5067320000000  0.4387140000000  0.4641150000000 1.0
C      1  0.5084970000000  0.4366910000000  0.5419770000000 1.0
C      1  0.5144290000000  0.4336210000000  0.4917690000000 1.0
C      1  0.5127190000000  0.4610870000000  0.5597650000000 1.0
C      1  0.5075260000000  0.5514060000000  0.5414000000000 1.0
C      1  0.5121330000000  0.5568490000000  0.4702340000000 1.0
C      1  0.5137140000000  0.4900770000000  0.4343410000000 1.0
C      1  0.4968910000000  0.4409110000000  0.5147440000000 1.0
C      1  0.4933280000000  0.4827100000000  0.5634530000000 1.0
C      1  0.4908980000000  0.5568360000000  0.5173780000000 1.0
C      1  0.4944530000000  0.5468350000000  0.4488760000000 1.0
C      1  0.4950400000000  0.4693120000000  0.4444890000000 1.0
C      1  0.4055110000000  0.5189900000000  0.4857920000000 1.0
C      1  0.3955340000000  0.4924600000000  0.4785930000000 1.0
C      1  0.4019680000000  0.4781320000000  0.5025380000000 1.0
C      1  0.3891920000000  0.4939050000000  0.5227820000000 1.0
C      1  0.4005080000000  0.5199880000000  0.5162560000000 1.0
C      1  0.4343780000000  0.5198170000000  0.4784240000000 1.0
C      1  0.4427370000000  0.4921580000000  0.4803840000000 1.0
C      1  0.4325170000000  0.4791460000000  0.5056440000000 1.0
C      1  0.4404450000000  0.4967980000000  0.5295100000000 1.0
C      1  0.4260950000000  0.5228640000000  0.5318210000000 1.0
END
