TITL C-9268-6400-92 -3.90865191454597e-07 125000 -369.67892743821 0 0 60 (C3i) n - 1
REM
REM in /home/bkarasulu/CARBON/AIRSS/Generating-Clusters/EDIP-Nigel-Params/Higher-Symm/Box-15A/Only-C60/SD-CG/HFTN-CG
REM
REM
REM
REM
REM
REM ./C.cell (414f73aa93bd7a1190c7fd0f31ff2f98)
REM
REM compiler GCC version 9.2.1 20190827 (Red Hat 9.2.1-1)
REM options -cpp -mtune=generic -march=x86-64 -g -O0 -fpre-include=/usr/include/finclude/math-vector-fortran.h
REM seed 1305261008 1185594656 1953349732 -1253541638 2022217982 1978349572 -1762964426 -1737721384 -1513724772 -1055529748 -916771963 1289095216 -1623996409 -2146074672 93557373 -162442814 1808777184 854937108 1869150170 -2115683432 -687433686 -884295948 -1761255057 -2130235487 871913452 871263738 1784975266 -1141462291 1630232344 -1005399885 1400801442 -1403258902 614541519
REM
CELL 1.54180   50.00000   50.00000   50.00000   90.00000   90.00000   90.00000
LATT -1
SFAC C  
C      1  0.5118910000000  0.5253320000000  0.4626130000000 1.0
C      1  0.5286660000000  0.5025340000000  0.5367800000000 1.0
C      1  0.5157480000000  0.4762740000000  0.4629870000000 1.0
C      1  0.4881090000000  0.4746680000000  0.5373870000000 1.0
C      1  0.4713340000000  0.4974660000000  0.4632200000000 1.0
C      1  0.4842520000000  0.5237260000000  0.5370130000000 1.0
C      1  0.5631130000000  0.5363730000000  0.4810580000000 1.0
C      1  0.5634410000000  0.4636080000000  0.5177730000000 1.0
C      1  0.4998280000000  0.4267830000000  0.4825570000000 1.0
C      1  0.4368870000000  0.4636270000000  0.5189420000000 1.0
C      1  0.4365590000000  0.5363920000000  0.4822270000000 1.0
C      1  0.5001720000000  0.5732170000000  0.5174430000000 1.0
C      1  0.4689880000000  0.5487030000000  0.5453450000000 1.0
C      1  0.5257110000000  0.5510010000000  0.4538720000000 1.0
C      1  0.5579830000000  0.5034350000000  0.5449000000000 1.0
C      1  0.5310120000000  0.4512970000000  0.4546550000000 1.0
C      1  0.4742890000000  0.4489990000000  0.5461280000000 1.0
C      1  0.4420170000000  0.4965650000000  0.4551000000000 1.0
C      1  0.4312610000000  0.5217640000000  0.5386290000000 1.0
C      1  0.4836680000000  0.5702380000000  0.4613900000000 1.0
C      1  0.5534660000000  0.5494300000000  0.5372680000000 1.0
C      1  0.5687390000000  0.4782360000000  0.4613710000000 1.0
C      1  0.5163320000000  0.4297620000000  0.5386100000000 1.0
C      1  0.4465340000000  0.4505700000000  0.4627320000000 1.0
C      1  0.4841710000000  0.5229820000000  0.4536090000000 1.0
C      1  0.5129640000000  0.5254070000000  0.5460140000000 1.0
C      1  0.5275090000000  0.5012650000000  0.4533900000000 1.0
C      1  0.5158290000000  0.4770180000000  0.5463910000000 1.0
C      1  0.4870360000000  0.4745930000000  0.4539860000000 1.0
C      1  0.4724910000000  0.4987350000000  0.5466100000000 1.0
C      1  0.4913430000000  0.4715040000000  0.5062350000000 1.0
C      1  0.4708680000000  0.4932240000000  0.4944090000000 1.0
C      1  0.4796890000000  0.5218690000000  0.5059230000000 1.0
C      1  0.5086570000000  0.5284960000000  0.4937650000000 1.0
C      1  0.5291320000000  0.5067760000000  0.5055910000000 1.0
C      1  0.5203110000000  0.4781310000000  0.4940770000000 1.0
C      1  0.4720880000000  0.4509880000000  0.4533590000000 1.0
C      1  0.4445950000000  0.4998830000000  0.5478210000000 1.0
C      1  0.4711950000000  0.5477110000000  0.4525600000000 1.0
C      1  0.5279120000000  0.5490120000000  0.5466410000000 1.0
C      1  0.5554050000000  0.5001170000000  0.4521790000000 1.0
C      1  0.5288050000000  0.4522890000000  0.5474400000000 1.0
C      1  0.5668320000000  0.5262160000000  0.5282700000000 1.0
C      1  0.5555100000000  0.4550960000000  0.4707550000000 1.0
C      1  0.4894850000000  0.4296090000000  0.5297910000000 1.0
C      1  0.4331680000000  0.4737840000000  0.4717300000000 1.0
C      1  0.4444900000000  0.5449040000000  0.5292450000000 1.0
C      1  0.5105150000000  0.5703910000000  0.4702090000000 1.0
C      1  0.4422930000000  0.4823470000000  0.4988170000000 1.0
C      1  0.4558940000000  0.5411590000000  0.5019280000000 1.0
C      1  0.5135490000000  0.5587650000000  0.4975210000000 1.0
C      1  0.5577070000000  0.5176530000000  0.5011830000000 1.0
C      1  0.5441060000000  0.4588410000000  0.4980720000000 1.0
C      1  0.4864510000000  0.4412350000000  0.5024790000000 1.0
C      1  0.5710190000000  0.4796790000000  0.5379960000000 1.0
C      1  0.5171050000000  0.4281620000000  0.4619580000000 1.0
C      1  0.4471520000000  0.4494460000000  0.5393930000000 1.0
C      1  0.4289810000000  0.5203210000000  0.4620040000000 1.0
C      1  0.4828950000000  0.5718380000000  0.5380420000000 1.0
C      1  0.5528480000000  0.5505540000000  0.4606070000000 1.0
END
