TITL C-9265-7156-363 -2.98237684481853e-05 125000 -356.449297540364 0 0 60 (C1) n - 1
REM
REM in /home/bkarasulu/CARBON/AIRSS/Generating-Clusters/EDIP-Nigel-Params/Higher-Symm/Box-15A/Only-C60/SD-CG/HFTN-CG
REM
REM
REM
REM
REM
REM ./C.cell (414f73aa93bd7a1190c7fd0f31ff2f98)
REM
REM compiler GCC version 9.2.1 20190827 (Red Hat 9.2.1-1)
REM options -cpp -mtune=generic -march=x86-64 -g -O0 -fpre-include=/usr/include/finclude/math-vector-fortran.h
REM seed -35936259 -1455096246 11631123 -898011771 -948905227 -592481568 1822564664 -803070031 216070167 -1498453567 -773615635 12215288 383044280 1861399117 613580758 -76577663 595591414 -639899936 1126771351 -140703296 -124288249 1652544837 691187635 1761616056 -1314515195 1036422375 1658490809 350534035 -1084792565 1007172208 -1977545730 -688262418 144899978
REM
CELL 1.54180   50.00000   50.00000   50.00000   90.00000   90.00000   90.00000
LATT -1
SFAC C  
C      1  0.4699380000000  0.4677910000000  0.4520450000000 1.0
C      1  0.4992880000000  0.4696630000000  0.4434330000000 1.0
C      1  0.5304160000000  0.4687100000000  0.4511250000000 1.0
C      1  0.5495120000000  0.4709300000000  0.4753820000000 1.0
C      1  0.5545790000000  0.4698390000000  0.5062130000000 1.0
C      1  0.5414050000000  0.4702760000000  0.5344490000000 1.0
C      1  0.5151140000000  0.4715160000000  0.5518940000000 1.0
C      1  0.4844080000000  0.4735220000000  0.5518640000000 1.0
C      1  0.4581890000000  0.4740110000000  0.5356760000000 1.0
C      1  0.4434070000000  0.4709110000000  0.5091440000000 1.0
C      1  0.4487050000000  0.4704320000000  0.4781890000000 1.0
C      1  0.5769230000000  0.5022870000000  0.5334600000000 1.0
C      1  0.5447480000000  0.5016640000000  0.5656770000000 1.0
C      1  0.5016540000000  0.5057100000000  0.5827820000000 1.0
C      1  0.4571750000000  0.5050960000000  0.5675860000000 1.0
C      1  0.4231150000000  0.5051100000000  0.5345870000000 1.0
C      1  0.4168540000000  0.5050410000000  0.4879150000000 1.0
C      1  0.4358510000000  0.5011140000000  0.4465280000000 1.0
C      1  0.4761130000000  0.5065340000000  0.4242440000000 1.0
C      1  0.5214840000000  0.5035330000000  0.4250190000000 1.0
C      1  0.5615550000000  0.5056170000000  0.4445850000000 1.0
C      1  0.5782370000000  0.5025340000000  0.4876300000000 1.0
C      1  0.4730680000000  0.5151490000000  0.5421710000000 1.0
C      1  0.4468870000000  0.5207960000000  0.5228190000000 1.0
C      1  0.4435850000000  0.5218250000000  0.4909530000000 1.0
C      1  0.4640360000000  0.5059420000000  0.4726580000000 1.0
C      1  0.4851750000000  0.5198170000000  0.4519520000000 1.0
C      1  0.5144600000000  0.5100050000000  0.4534310000000 1.0
C      1  0.5404770000000  0.5219720000000  0.4647520000000 1.0
C      1  0.5501060000000  0.5118500000000  0.4926190000000 1.0
C      1  0.5490180000000  0.5246150000000  0.5211440000000 1.0
C      1  0.5294960000000  0.5123110000000  0.5420760000000 1.0
C      1  0.5032080000000  0.5220080000000  0.5549580000000 1.0
C      1  0.4982000000000  0.4874850000000  0.4186950000000 1.0
C      1  0.5442260000000  0.4863140000000  0.4300380000000 1.0
C      1  0.5729110000000  0.4864850000000  0.4640090000000 1.0
C      1  0.5805480000000  0.4849960000000  0.5105390000000 1.0
C      1  0.5626190000000  0.4842630000000  0.5510740000000 1.0
C      1  0.5231610000000  0.4859430000000  0.5775040000000 1.0
C      1  0.4786550000000  0.4882330000000  0.5773290000000 1.0
C      1  0.4384240000000  0.4881580000000  0.5530510000000 1.0
C      1  0.4182020000000  0.4874540000000  0.5115930000000 1.0
C      1  0.4248540000000  0.4860120000000  0.4674310000000 1.0
C      1  0.4562920000000  0.4869330000000  0.4333960000000 1.0
C      1  0.5414900000000  0.5619340000000  0.4906330000000 1.0
C      1  0.5406750000000  0.5535730000000  0.5171810000000 1.0
C      1  0.5188510000000  0.5616640000000  0.5325700000000 1.0
C      1  0.4982950000000  0.5509720000000  0.5482810000000 1.0
C      1  0.4705350000000  0.5538020000000  0.5394170000000 1.0
C      1  0.4486040000000  0.5589070000000  0.5210030000000 1.0
C      1  0.4507110000000  0.5523000000000  0.4921850000000 1.0
C      1  0.4796280000000  0.5518780000000  0.4853290000000 1.0
C      1  0.4863870000000  0.5501680000000  0.4565540000000 1.0
C      1  0.5128060000000  0.5594940000000  0.4530090000000 1.0
C      1  0.5370210000000  0.5519380000000  0.4650500000000 1.0
C      1  0.4970280000000  0.4768950000000  0.5002370000000 1.0
C      1  0.4915120000000  0.5029880000000  0.5045530000000 1.0
C      1  0.4983470000000  0.4502690000000  0.4998360000000 1.0
C      1  0.4907500000000  0.5292750000000  0.4980690000000 1.0
C      1  0.5015550000000  0.4250260000000  0.4968560000000 1.0
END
