TITL C-9256-7861-194 -4.36842411251896e-05 125000 -357.458454096089 0 0 60 (C1) n - 1
REM
REM in /home/bkarasulu/CARBON/AIRSS/Generating-Clusters/EDIP-Nigel-Params/Higher-Symm/Box-15A/Only-C60/SD-CG/HFTN-CG
REM
REM
REM
REM
REM
REM ./C.cell (414f73aa93bd7a1190c7fd0f31ff2f98)
REM
REM compiler GCC version 9.2.1 20190827 (Red Hat 9.2.1-1)
REM options -cpp -mtune=generic -march=x86-64 -g -O0 -fpre-include=/usr/include/finclude/math-vector-fortran.h
REM seed 1157066260 -1042837052 1755072409 1060390590 -215369982 2073648816 1258743731 191191218 -90947465 -881308434 -71929830 1111716645 -1231181627 100185501 366875896 -371839341 1666620283 1073830362 820435094 -640231080 -1381239373 268922630 -1382674875 332429014 2005763060 1245260192 1355625282 900123200 572466165 -1525469449 1732187151 1055650667 -562908211
REM
CELL 1.54180   50.00000   50.00000   50.00000   90.00000   90.00000   90.00000
LATT -1
SFAC C  
C      1  0.5115480000000  0.4250870000000  0.4771260000000 1.0
C      1  0.5253910000000  0.4249570000000  0.5037540000000 1.0
C      1  0.5043590000000  0.4251010000000  0.5248820000000 1.0
C      1  0.4776830000000  0.4250240000000  0.5116050000000 1.0
C      1  0.4822450000000  0.4248570000000  0.4820140000000 1.0
C      1  0.5198060000000  0.5193360000000  0.4382240000000 1.0
C      1  0.5661300000000  0.5209850000000  0.5005290000000 1.0
C      1  0.5198130000000  0.5198790000000  0.5634080000000 1.0
C      1  0.4462670000000  0.5189850000000  0.5386430000000 1.0
C      1  0.4463420000000  0.5226660000000  0.4628760000000 1.0
C      1  0.5219550000000  0.4884900000000  0.4302050000000 1.0
C      1  0.5732530000000  0.4897710000000  0.4993990000000 1.0
C      1  0.5235040000000  0.4881230000000  0.5688750000000 1.0
C      1  0.4409040000000  0.4881270000000  0.5432750000000 1.0
C      1  0.4404180000000  0.4848950000000  0.4575670000000 1.0
C      1  0.4684380000000  0.4546560000000  0.5115220000000 1.0
C      1  0.4784630000000  0.4543750000000  0.4741280000000 1.0
C      1  0.5187220000000  0.4547260000000  0.4719870000000 1.0
C      1  0.5323180000000  0.4549790000000  0.5082880000000 1.0
C      1  0.5025420000000  0.4546880000000  0.5329210000000 1.0
C      1  0.4747330000000  0.5273230000000  0.5418030000000 1.0
C      1  0.4488040000000  0.5351210000000  0.4895760000000 1.0
C      1  0.4948930000000  0.5284540000000  0.4525120000000 1.0
C      1  0.5453370000000  0.5308350000000  0.4807710000000 1.0
C      1  0.5317760000000  0.5309200000000  0.5377330000000 1.0
C      1  0.4967380000000  0.4821550000000  0.4453360000000 1.0
C      1  0.5500200000000  0.4845060000000  0.4810180000000 1.0
C      1  0.5340410000000  0.4843860000000  0.5409710000000 1.0
C      1  0.4705930000000  0.4825620000000  0.5454230000000 1.0
C      1  0.4486000000000  0.4848260000000  0.4859960000000 1.0
C      1  0.5245300000000  0.5811580000000  0.4880940000000 1.0
C      1  0.5163400000000  0.5846970000000  0.5175270000000 1.0
C      1  0.4899340000000  0.5954690000000  0.5176490000000 1.0
C      1  0.4785870000000  0.5843380000000  0.4939310000000 1.0
C      1  0.4996840000000  0.5879420000000  0.4738740000000 1.0
C      1  0.5154050000000  0.5523180000000  0.5215350000000 1.0
C      1  0.4860850000000  0.5463930000000  0.5230180000000 1.0
C      1  0.4739670000000  0.5532800000000  0.4963570000000 1.0
C      1  0.4967530000000  0.5487190000000  0.4748090000000 1.0
C      1  0.5232010000000  0.5506240000000  0.4898030000000 1.0
C      1  0.4866460000000  0.4911220000000  0.5203160000000 1.0
C      1  0.4755720000000  0.4937310000000  0.4930570000000 1.0
C      1  0.4985160000000  0.4909900000000  0.4748790000000 1.0
C      1  0.5235350000000  0.4937720000000  0.4909550000000 1.0
C      1  0.5162230000000  0.4939170000000  0.5191340000000 1.0
C      1  0.5044440000000  0.4620220000000  0.5643450000000 1.0
C      1  0.4390040000000  0.4625290000000  0.5226170000000 1.0
C      1  0.4584740000000  0.4612320000000  0.4500480000000 1.0
C      1  0.5359270000000  0.4626800000000  0.4456650000000 1.0
C      1  0.5630010000000  0.4626990000000  0.5164850000000 1.0
C      1  0.5545420000000  0.4881440000000  0.4515130000000 1.0
C      1  0.5634040000000  0.4885740000000  0.5367380000000 1.0
C      1  0.4847530000000  0.4866510000000  0.5716810000000 1.0
C      1  0.4276150000000  0.4882910000000  0.5067780000000 1.0
C      1  0.4701310000000  0.4880310000000  0.4330290000000 1.0
C      1  0.4685380000000  0.5166670000000  0.4449850000000 1.0
C      1  0.5452600000000  0.5184310000000  0.4529010000000 1.0
C      1  0.5587710000000  0.5191890000000  0.5290710000000 1.0
C      1  0.4904640000000  0.5168940000000  0.5652250000000 1.0
C      1  0.4350590000000  0.5186970000000  0.5116150000000 1.0
END
