TITL C-9260-5597-256 -2.41201752001135e-05 125000 -359.238164359389 0 0 60 (C1) n - 1
REM
REM in /home/bkarasulu/CARBON/AIRSS/Generating-Clusters/EDIP-Nigel-Params/Higher-Symm/Box-15A/Only-C60/SD-CG/HFTN-CG
REM
REM
REM
REM
REM
REM ./C.cell (414f73aa93bd7a1190c7fd0f31ff2f98)
REM
REM compiler GCC version 9.2.1 20190827 (Red Hat 9.2.1-1)
REM options -cpp -mtune=generic -march=x86-64 -g -O0 -fpre-include=/usr/include/finclude/math-vector-fortran.h
REM seed -1742956477 1709531746 -1990679526 262827197 1340761631 -1600838831 -1055005173 1337577957 136166800 567761869 783209952 -354678291 116575046 -478837980 1691230896 1840708810 -108544350 -938660959 -568255924 1470870399 -719533561 -1261936797 2082004062 -919639658 -166061959 71065151 1654191480 995438227 1652004281 576738594 1106622956 -1492147872 -1814471852
REM
CELL 1.54180   50.00000   50.00000   50.00000   90.00000   90.00000   90.00000
LATT -1
SFAC C  
C      1  0.5520960000000  0.5678870000000  0.4896540000000 1.0
C      1  0.5513340000000  0.4755450000000  0.5662580000000 1.0
C      1  0.5491880000000  0.4520600000000  0.4460160000000 1.0
C      1  0.5518060000000  0.5686370000000  0.5166510000000 1.0
C      1  0.5515520000000  0.4766030000000  0.4353580000000 1.0
C      1  0.5525060000000  0.4536020000000  0.5504740000000 1.0
C      1  0.4310960000000  0.5490000000000  0.5135550000000 1.0
C      1  0.4333730000000  0.4624120000000  0.5379430000000 1.0
C      1  0.4299470000000  0.4852950000000  0.4498190000000 1.0
C      1  0.4311710000000  0.5487920000000  0.4849470000000 1.0
C      1  0.4319250000000  0.4625800000000  0.4670860000000 1.0
C      1  0.4349540000000  0.4879140000000  0.5506880000000 1.0
C      1  0.4516580000000  0.5638480000000  0.5249410000000 1.0
C      1  0.4549290000000  0.4456720000000  0.5433490000000 1.0
C      1  0.4500260000000  0.4864160000000  0.4305240000000 1.0
C      1  0.4514050000000  0.5641080000000  0.4734790000000 1.0
C      1  0.4534750000000  0.4458700000000  0.4617270000000 1.0
C      1  0.4574390000000  0.4913870000000  0.5666970000000 1.0
C      1  0.4959270000000  0.4715980000000  0.4724100000000 1.0
C      1  0.4960870000000  0.5420090000000  0.4835760000000 1.0
C      1  0.4983040000000  0.4925910000000  0.5371500000000 1.0
C      1  0.4962170000000  0.4664690000000  0.5227760000000 1.0
C      1  0.4958120000000  0.5414360000000  0.5139300000000 1.0
C      1  0.4942670000000  0.4951600000000  0.4530500000000 1.0
C      1  0.4167120000000  0.5309280000000  0.5285630000000 1.0
C      1  0.4169860000000  0.4582310000000  0.5161790000000 1.0
C      1  0.4156410000000  0.5077570000000  0.4570230000000 1.0
C      1  0.4162080000000  0.5309350000000  0.4701930000000 1.0
C      1  0.4163460000000  0.4593190000000  0.4895670000000 1.0
C      1  0.4186280000000  0.5088780000000  0.5433900000000 1.0
C      1  0.5417880000000  0.4901330000000  0.4756620000000 1.0
C      1  0.5527000000000  0.5251690000000  0.5106750000000 1.0
C      1  0.5573820000000  0.4810650000000  0.5156660000000 1.0
C      1  0.5639680000000  0.5057150000000  0.5280350000000 1.0
C      1  0.5337780000000  0.5146200000000  0.4916860000000 1.0
C      1  0.5671090000000  0.4823980000000  0.4885570000000 1.0
C      1  0.4769140000000  0.4786410000000  0.4334580000000 1.0
C      1  0.4778360000000  0.5665540000000  0.5151290000000 1.0
C      1  0.4817490000000  0.4532880000000  0.5469940000000 1.0
C      1  0.4833260000000  0.4814820000000  0.5619200000000 1.0
C      1  0.4776660000000  0.5670210000000  0.4831870000000 1.0
C      1  0.4790530000000  0.4539310000000  0.4533470000000 1.0
C      1  0.5527690000000  0.5237510000000  0.5719890000000 1.0
C      1  0.5486300000000  0.4245290000000  0.4853370000000 1.0
C      1  0.5609440000000  0.5467650000000  0.4473670000000 1.0
C      1  0.5626250000000  0.5235620000000  0.4339110000000 1.0
C      1  0.5507660000000  0.4240290000000  0.5120090000000 1.0
C      1  0.5539750000000  0.5482560000000  0.5607050000000 1.0
C      1  0.5225790000000  0.5335180000000  0.4722530000000 1.0
C      1  0.5263850000000  0.5035950000000  0.5375950000000 1.0
C      1  0.5237930000000  0.4660720000000  0.4825010000000 1.0
C      1  0.5214630000000  0.5346970000000  0.5289870000000 1.0
C      1  0.5199740000000  0.5108840000000  0.4504170000000 1.0
C      1  0.5257050000000  0.4659710000000  0.5144710000000 1.0
C      1  0.5428410000000  0.5550210000000  0.4667060000000 1.0
C      1  0.5389780000000  0.5005810000000  0.5646850000000 1.0
C      1  0.5363070000000  0.4428280000000  0.4687350000000 1.0
C      1  0.5392130000000  0.5568760000000  0.5386570000000 1.0
C      1  0.5437830000000  0.5031800000000  0.4338650000000 1.0
C      1  0.5389840000000  0.4429300000000  0.5285180000000 1.0
END
