TITL C-9263-351-143 -1.57162114009857e-05 125000 -368.719720283124 0 0 60 (D2) n - 1
REM
REM in /home/bkarasulu/CARBON/AIRSS/Generating-Clusters/EDIP-Nigel-Params/Higher-Symm/Box-15A/Only-C60/SD-CG/HFTN-CG
REM
REM
REM
REM
REM
REM ./C.cell (414f73aa93bd7a1190c7fd0f31ff2f98)
REM
REM compiler GCC version 9.2.1 20190827 (Red Hat 9.2.1-1)
REM options -cpp -mtune=generic -march=x86-64 -g -O0 -fpre-include=/usr/include/finclude/math-vector-fortran.h
REM seed -1568753906 -1728729887 857743078 -328733481 -1682096640 -508447491 -1507791681 107172810 -1238816063 1536467785 -1989626776 1262605885 794153232 1934442779 -1152497024 1142792533 -1821708619 -445444296 254101125 1811319661 -1975525218 1182083484 1232269051 2085468495 1277060584 1037448362 580305144 -1873897207 1223905876 1187029585 731435263 938057295 -1010558781
REM
CELL 1.54180   50.00000   50.00000   50.00000   90.00000   90.00000   90.00000
LATT -1
SFAC C  
C      1  0.5445770000000  0.4587930000000  0.5442980000000 1.0
C      1  0.5437550000000  0.5410870000000  0.4547810000000 1.0
C      1  0.4563510000000  0.5418620000000  0.5446070000000 1.0
C      1  0.4553170000000  0.4582570000000  0.4563140000000 1.0
C      1  0.4730500000000  0.5274070000000  0.5629500000000 1.0
C      1  0.4716690000000  0.4726670000000  0.4376260000000 1.0
C      1  0.5282620000000  0.4735190000000  0.5627710000000 1.0
C      1  0.5270190000000  0.5264060000000  0.4366520000000 1.0
C      1  0.4902110000000  0.4245490000000  0.4584140000000 1.0
C      1  0.4912850000000  0.5754760000000  0.5417790000000 1.0
C      1  0.5089070000000  0.5748280000000  0.4571110000000 1.0
C      1  0.5095970000000  0.4251470000000  0.5426960000000 1.0
C      1  0.4644060000000  0.5669110000000  0.4792150000000 1.0
C      1  0.4646660000000  0.4331850000000  0.5215240000000 1.0
C      1  0.5351630000000  0.4327850000000  0.4794650000000 1.0
C      1  0.5357650000000  0.5671190000000  0.5197950000000 1.0
C      1  0.4738560000000  0.4858360000000  0.5173390000000 1.0
C      1  0.4735390000000  0.5142350000000  0.4832090000000 1.0
C      1  0.5264980000000  0.5144140000000  0.5165790000000 1.0
C      1  0.5261070000000  0.4855150000000  0.4828720000000 1.0
C      1  0.5343680000000  0.5668650000000  0.4657290000000 1.0
C      1  0.5348940000000  0.4330410000000  0.5335480000000 1.0
C      1  0.4649340000000  0.4326420000000  0.4674430000000 1.0
C      1  0.4658030000000  0.5674510000000  0.5332790000000 1.0
C      1  0.5399560000000  0.5729700000000  0.4925480000000 1.0
C      1  0.5399060000000  0.4269220000000  0.5066190000000 1.0
C      1  0.4599080000000  0.4269340000000  0.4944600000000 1.0
C      1  0.4602300000000  0.5731740000000  0.5063730000000 1.0
C      1  0.5239500000000  0.4831550000000  0.5143220000000 1.0
C      1  0.5236920000000  0.5167800000000  0.4851810000000 1.0
C      1  0.4763520000000  0.5170580000000  0.5145690000000 1.0
C      1  0.4760070000000  0.4830070000000  0.4859280000000 1.0
C      1  0.5544850000000  0.5232080000000  0.5236740000000 1.0
C      1  0.5539160000000  0.4766450000000  0.4751960000000 1.0
C      1  0.4460250000000  0.4771520000000  0.5251460000000 1.0
C      1  0.4455740000000  0.5229950000000  0.4759850000000 1.0
C      1  0.5028710000000  0.5272700000000  0.5295750000000 1.0
C      1  0.5021800000000  0.4727230000000  0.4703730000000 1.0
C      1  0.4977510000000  0.4731690000000  0.5300270000000 1.0
C      1  0.4971980000000  0.5268380000000  0.4700260000000 1.0
C      1  0.5597350000000  0.5257080000000  0.4736720000000 1.0
C      1  0.5602010000000  0.4741300000000  0.5250780000000 1.0
C      1  0.4397330000000  0.4739160000000  0.4753060000000 1.0
C      1  0.4403310000000  0.5262470000000  0.5259450000000 1.0
C      1  0.4973200000000  0.4844550000000  0.4425500000000 1.0
C      1  0.4985600000000  0.5155500000000  0.5574920000000 1.0
C      1  0.5014780000000  0.5146960000000  0.4422840000000 1.0
C      1  0.5026420000000  0.4852980000000  0.5576730000000 1.0
C      1  0.4449000000000  0.4501720000000  0.5314770000000 1.0
C      1  0.4443900000000  0.5499770000000  0.4696770000000 1.0
C      1  0.5557370000000  0.5502780000000  0.5295830000000 1.0
C      1  0.5549720000000  0.4495730000000  0.4692630000000 1.0
C      1  0.4919490000000  0.4426840000000  0.5292370000000 1.0
C      1  0.4914970000000  0.5573380000000  0.4709360000000 1.0
C      1  0.5086500000000  0.5577390000000  0.5282140000000 1.0
C      1  0.5079040000000  0.4422380000000  0.4716130000000 1.0
C      1  0.4295990000000  0.5151950000000  0.5003150000000 1.0
C      1  0.4295670000000  0.4849960000000  0.5011530000000 1.0
C      1  0.5703940000000  0.4848010000000  0.4990700000000 1.0
C      1  0.5704390000000  0.5150090000000  0.4994620000000 1.0
END
