TITL C-9264-7143-64 -1.44418148655853e-05 125000 -352.153206734937 0 0 60 (C1) n - 1
REM
REM in /home/bkarasulu/CARBON/AIRSS/Generating-Clusters/EDIP-Nigel-Params/Higher-Symm/Box-15A/Only-C60/SD-CG/HFTN-CG
REM
REM
REM
REM
REM
REM ./C.cell (414f73aa93bd7a1190c7fd0f31ff2f98)
REM
REM compiler GCC version 9.2.1 20190827 (Red Hat 9.2.1-1)
REM options -cpp -mtune=generic -march=x86-64 -g -O0 -fpre-include=/usr/include/finclude/math-vector-fortran.h
REM seed 781871573 -1240980265 1796266265 -622312986 -2022285359 1974880116 -1096711544 2025650926 1168840928 -1461064656 356613496 1075886520 -1540059528 295502508 -1725447962 1318230327 1104613574 -1937053844 133276095 310846114 1678295103 1775983577 -469760617 -937337379 306044550 1951539445 606348575 -1411425069 -1046426087 710556190 -2025993544 -3627180 1894884775
REM
CELL 1.54180   50.00000   50.00000   50.00000   90.00000   90.00000   90.00000
LATT -1
SFAC C  
C      1  0.5072620000000  0.4761870000000  0.4176770000000 1.0
C      1  0.4283780000000  0.4929200000000  0.4756230000000 1.0
C      1  0.4658150000000  0.4252250000000  0.4908500000000 1.0
C      1  0.5036800000000  0.5339120000000  0.5771790000000 1.0
C      1  0.4971690000000  0.5291990000000  0.4298520000000 1.0
C      1  0.4919010000000  0.4757360000000  0.5703160000000 1.0
C      1  0.4235710000000  0.4977910000000  0.5379940000000 1.0
C      1  0.5747730000000  0.4975830000000  0.4698510000000 1.0
C      1  0.5717400000000  0.4975290000000  0.5341470000000 1.0
C      1  0.4673130000000  0.5751420000000  0.4984990000000 1.0
C      1  0.5334650000000  0.5815280000000  0.5009630000000 1.0
C      1  0.5305920000000  0.4206760000000  0.4935460000000 1.0
C      1  0.5151120000000  0.4983540000000  0.5359220000000 1.0
C      1  0.5318660000000  0.5111790000000  0.4886570000000 1.0
C      1  0.4912920000000  0.5361920000000  0.5117430000000 1.0
C      1  0.5193150000000  0.5021720000000  0.4622700000000 1.0
C      1  0.4894840000000  0.5149830000000  0.5348190000000 1.0
C      1  0.4935820000000  0.4874080000000  0.4619060000000 1.0
C      1  0.5296670000000  0.4882360000000  0.5113220000000 1.0
C      1  0.4654600000000  0.4784210000000  0.5016410000000 1.0
C      1  0.4654660000000  0.5063120000000  0.5148670000000 1.0
C      1  0.4883610000000  0.4678080000000  0.4843860000000 1.0
C      1  0.5142710000000  0.4646580000000  0.5004520000000 1.0
C      1  0.5185960000000  0.5366370000000  0.4987480000000 1.0
C      1  0.5224160000000  0.5214340000000  0.4397450000000 1.0
C      1  0.4385610000000  0.5164990000000  0.5236100000000 1.0
C      1  0.5191300000000  0.4379660000000  0.5125040000000 1.0
C      1  0.5173680000000  0.4822470000000  0.5605900000000 1.0
C      1  0.4849540000000  0.4783740000000  0.4348100000000 1.0
C      1  0.4815930000000  0.5273980000000  0.5614220000000 1.0
C      1  0.4387400000000  0.4714920000000  0.4905710000000 1.0
C      1  0.5570200000000  0.4787580000000  0.5198070000000 1.0
C      1  0.5607340000000  0.5177280000000  0.4829380000000 1.0
C      1  0.5238390000000  0.5616260000000  0.4836600000000 1.0
C      1  0.4809220000000  0.5632270000000  0.5197260000000 1.0
C      1  0.4804850000000  0.4407410000000  0.4728560000000 1.0
C      1  0.4613410000000  0.5135210000000  0.5750070000000 1.0
C      1  0.5713610000000  0.4653630000000  0.5000660000000 1.0
C      1  0.5008160000000  0.5699330000000  0.4698300000000 1.0
C      1  0.4639500000000  0.4939930000000  0.4239410000000 1.0
C      1  0.5340390000000  0.4940890000000  0.5800580000000 1.0
C      1  0.5400600000000  0.5122850000000  0.4195500000000 1.0
C      1  0.5743620000000  0.5298430000000  0.5039550000000 1.0
C      1  0.4247750000000  0.5281150000000  0.5023210000000 1.0
C      1  0.4214950000000  0.4628150000000  0.5109540000000 1.0
C      1  0.4956140000000  0.4272740000000  0.5235040000000 1.0
C      1  0.5012620000000  0.4267230000000  0.4605520000000 1.0
C      1  0.5006630000000  0.5795070000000  0.5310110000000 1.0
C      1  0.4688350000000  0.4877170000000  0.5769270000000 1.0
C      1  0.5808980000000  0.4719610000000  0.4756980000000 1.0
C      1  0.4752700000000  0.5781410000000  0.4729030000000 1.0
C      1  0.4730880000000  0.5194250000000  0.4227050000000 1.0
C      1  0.5246620000000  0.5189590000000  0.5849120000000 1.0
C      1  0.5297410000000  0.4890610000000  0.4102450000000 1.0
C      1  0.5808750000000  0.5224110000000  0.5290640000000 1.0
C      1  0.4198110000000  0.5184400000000  0.4776390000000 1.0
C      1  0.4134260000000  0.4730060000000  0.5346280000000 1.0
C      1  0.4710390000000  0.4185170000000  0.5165050000000 1.0
C      1  0.5243680000000  0.4148750000000  0.4678880000000 1.0
C      1  0.5243550000000  0.5907470000000  0.5246690000000 1.0
END
