TITL C-9269-7444-293 -1.68385885824692e-07 125000 -359.582018964534 0 0 60 (C3) n - 1
REM
REM in /home/bkarasulu/CARBON/AIRSS/Generating-Clusters/EDIP-Nigel-Params/Higher-Symm/Box-15A/Only-C60/SD-CG/HFTN-CG
REM
REM
REM
REM
REM
REM ./C.cell (414f73aa93bd7a1190c7fd0f31ff2f98)
REM
REM compiler GCC version 9.2.1 20190827 (Red Hat 9.2.1-1)
REM options -cpp -mtune=generic -march=x86-64 -g -O0 -fpre-include=/usr/include/finclude/math-vector-fortran.h
REM seed -49650801 -635817716 471632310 -739269325 1462185848 -768691820 1705394109 139884455 71647833 -1556091146 -308811711 -2112484703 1640274547 -689810892 -1758399529 -2017138868 79362870 2127169477 -1919715253 -1711076119 596466498 -1571072666 1982328164 1359507871 -1986809553 -982140952 601130927 -935538680 1618459671 -1967776615 393734104 -78464227 -258434132
REM
CELL 1.54180   50.00000   50.00000   50.00000   90.00000   90.00000   90.00000
LATT -1
SFAC C  
C      1  0.4752640000000  0.5403630000000  0.5701070000000 1.0
C      1  0.5700990000000  0.4754540000000  0.5404930000000 1.0
C      1  0.5403710000000  0.5701750000000  0.4754700000000 1.0
C      1  0.5242620000000  0.5411380000000  0.4288810000000 1.0
C      1  0.4769450000000  0.4540650000000  0.4299120000000 1.0
C      1  0.5239720000000  0.4603800000000  0.5698640000000 1.0
C      1  0.4300390000000  0.4767520000000  0.4539680000000 1.0
C      1  0.5698720000000  0.5241060000000  0.4604760000000 1.0
C      1  0.4287590000000  0.5241260000000  0.5410060000000 1.0
C      1  0.4602760000000  0.5697970000000  0.5239940000000 1.0
C      1  0.5411320000000  0.4288700000000  0.5242420000000 1.0
C      1  0.4541670000000  0.4299170000000  0.4767270000000 1.0
C      1  0.5707300000000  0.5472470000000  0.4772470000000 1.0
C      1  0.5471000000000  0.4771660000000  0.5708020000000 1.0
C      1  0.4770080000000  0.5707110000000  0.5471610000000 1.0
C      1  0.4309120000000  0.5456050000000  0.5223720000000 1.0
C      1  0.4290740000000  0.4585810000000  0.4759230000000 1.0
C      1  0.5710460000000  0.4524450000000  0.5236290000000 1.0
C      1  0.4587610000000  0.4760090000000  0.4289400000000 1.0
C      1  0.4522650000000  0.5234820000000  0.5709740000000 1.0
C      1  0.5457490000000  0.5225150000000  0.4310530000000 1.0
C      1  0.5235420000000  0.5710670000000  0.4524340000000 1.0
C      1  0.5224580000000  0.4309950000000  0.5456890000000 1.0
C      1  0.4761540000000  0.4289900000000  0.4585910000000 1.0
C      1  0.5047860000000  0.5611460000000  0.5446930000000 1.0
C      1  0.5445840000000  0.5049310000000  0.5612140000000 1.0
C      1  0.5611030000000  0.5447280000000  0.5049990000000 1.0
C      1  0.4953640000000  0.5628320000000  0.4543240000000 1.0
C      1  0.5021550000000  0.4411140000000  0.4638030000000 1.0
C      1  0.4955870000000  0.4420000000000  0.5414340000000 1.0
C      1  0.4638930000000  0.5020310000000  0.4410540000000 1.0
C      1  0.5415370000000  0.4956420000000  0.4420700000000 1.0
C      1  0.4542340000000  0.4953020000000  0.5627620000000 1.0
C      1  0.4419810000000  0.5414010000000  0.4955200000000 1.0
C      1  0.5628750000000  0.4543750000000  0.4954350000000 1.0
C      1  0.4411340000000  0.4637590000000  0.5019610000000 1.0
C      1  0.5347430000000  0.5567390000000  0.5009100000000 1.0
C      1  0.5566580000000  0.5008940000000  0.5348750000000 1.0
C      1  0.5007390000000  0.5347840000000  0.5567160000000 1.0
C      1  0.4668080000000  0.5561570000000  0.4988830000000 1.0
C      1  0.4573100000000  0.4397720000000  0.5042390000000 1.0
C      1  0.5373450000000  0.4405090000000  0.4977480000000 1.0
C      1  0.4398680000000  0.5042660000000  0.4571780000000 1.0
C      1  0.4404250000000  0.4976470000000  0.5372040000000 1.0
C      1  0.5562340000000  0.4989760000000  0.4669350000000 1.0
C      1  0.4977580000000  0.5372980000000  0.4404790000000 1.0
C      1  0.4988690000000  0.4668440000000  0.5561790000000 1.0
C      1  0.5044340000000  0.4572780000000  0.4398090000000 1.0
C      1  0.4814070000000  0.5666500000000  0.4780100000000 1.0
C      1  0.5234210000000  0.4290830000000  0.4767700000000 1.0
C      1  0.4768300000000  0.5233180000000  0.4290290000000 1.0
C      1  0.4779450000000  0.4814020000000  0.5666270000000 1.0
C      1  0.5179380000000  0.4814780000000  0.4384830000000 1.0
C      1  0.5189950000000  0.5661960000000  0.5213950000000 1.0
C      1  0.5212440000000  0.5190900000000  0.5662170000000 1.0
C      1  0.5661370000000  0.5214100000000  0.5191820000000 1.0
C      1  0.4814790000000  0.4384410000000  0.5177970000000 1.0
C      1  0.4384720000000  0.5177840000000  0.4813660000000 1.0
C      1  0.5667080000000  0.4780860000000  0.4815250000000 1.0
C      1  0.4290450000000  0.4766830000000  0.5232200000000 1.0
END
