TITL C-9262-5533-182 -4.18242729866867e-06 125000 -360.073414159894 0 0 60 (C1) n - 1
REM
REM in /home/bkarasulu/CARBON/AIRSS/Generating-Clusters/EDIP-Nigel-Params/Higher-Symm/Box-15A/Only-C60/SD-CG/HFTN-CG
REM
REM
REM
REM
REM
REM ./C.cell (414f73aa93bd7a1190c7fd0f31ff2f98)
REM
REM compiler GCC version 9.2.1 20190827 (Red Hat 9.2.1-1)
REM options -cpp -mtune=generic -march=x86-64 -g -O0 -fpre-include=/usr/include/finclude/math-vector-fortran.h
REM seed -1244246832 -2116656517 928165790 -36105121 -424466399 -694140051 -473322411 909140870 817487299 -688200027 1205944039 857573451 428121187 -766608217 -851747775 523709972 -963206834 280245582 -1308701691 -1290274688 -1860020861 -1762066824 -626193682 -1736745694 800964313 1156995957 -1473697570 381814575 1392787586 -279814799 -634448405 935456017 -1211696256
REM
CELL 1.54180   50.00000   50.00000   50.00000   90.00000   90.00000   90.00000
LATT -1
SFAC C  
C      1  0.5301020000000  0.4573660000000  0.4844450000000 1.0
C      1  0.5584600000000  0.4701270000000  0.4799290000000 1.0
C      1  0.5632130000000  0.4990090000000  0.4884020000000 1.0
C      1  0.5643640000000  0.5238650000000  0.4715550000000 1.0
C      1  0.5388950000000  0.5384390000000  0.4721030000000 1.0
C      1  0.4906000000000  0.5630690000000  0.4672460000000 1.0
C      1  0.4614430000000  0.5614420000000  0.4678190000000 1.0
C      1  0.4179390000000  0.5254380000000  0.4754330000000 1.0
C      1  0.4158450000000  0.4964500000000  0.4731980000000 1.0
C      1  0.4549150000000  0.4551460000000  0.4669430000000 1.0
C      1  0.4774220000000  0.4369250000000  0.4641300000000 1.0
C      1  0.4186810000000  0.4944250000000  0.5217740000000 1.0
C      1  0.4545340000000  0.4476070000000  0.5172530000000 1.0
C      1  0.4743850000000  0.4267930000000  0.5135310000000 1.0
C      1  0.5382990000000  0.4418650000000  0.5251170000000 1.0
C      1  0.5639290000000  0.4562080000000  0.5218440000000 1.0
C      1  0.5629080000000  0.4842080000000  0.5300750000000 1.0
C      1  0.5725140000000  0.5464540000000  0.5099190000000 1.0
C      1  0.5457140000000  0.5528230000000  0.5171060000000 1.0
C      1  0.4908580000000  0.5663400000000  0.5184630000000 1.0
C      1  0.4633360000000  0.5689960000000  0.5160580000000 1.0
C      1  0.4339520000000  0.5181660000000  0.5236520000000 1.0
C      1  0.4998480000000  0.4437210000000  0.4486910000000 1.0
C      1  0.5234340000000  0.4578770000000  0.4554160000000 1.0
C      1  0.5522560000000  0.4684420000000  0.4479600000000 1.0
C      1  0.5577260000000  0.4918820000000  0.4340060000000 1.0
C      1  0.5616050000000  0.5184820000000  0.4405690000000 1.0
C      1  0.5305680000000  0.5398590000000  0.4449140000000 1.0
C      1  0.5066190000000  0.5547790000000  0.4453690000000 1.0
C      1  0.4467300000000  0.5512700000000  0.4463750000000 1.0
C      1  0.4280720000000  0.5309250000000  0.4483030000000 1.0
C      1  0.4293860000000  0.4929810000000  0.4474780000000 1.0
C      1  0.4452240000000  0.4702880000000  0.4456820000000 1.0
C      1  0.5762410000000  0.4522660000000  0.4958580000000 1.0
C      1  0.5768240000000  0.5018010000000  0.5131760000000 1.0
C      1  0.5838190000000  0.5417100000000  0.4849640000000 1.0
C      1  0.5314570000000  0.5568760000000  0.4924090000000 1.0
C      1  0.5037540000000  0.5627370000000  0.4929750000000 1.0
C      1  0.4489140000000  0.5587490000000  0.4944330000000 1.0
C      1  0.4351530000000  0.5334260000000  0.4981520000000 1.0
C      1  0.4264640000000  0.4834190000000  0.4969920000000 1.0
C      1  0.4443780000000  0.4610650000000  0.4934500000000 1.0
C      1  0.4818270000000  0.4222060000000  0.4872860000000 1.0
C      1  0.5293780000000  0.4330230000000  0.4995530000000 1.0
C      1  0.4657690000000  0.4610600000000  0.5408220000000 1.0
C      1  0.4905390000000  0.4443330000000  0.5427780000000 1.0
C      1  0.5173450000000  0.4553390000000  0.5410040000000 1.0
C      1  0.5219470000000  0.4795510000000  0.5568140000000 1.0
C      1  0.5466010000000  0.4944540000000  0.5521040000000 1.0
C      1  0.5420660000000  0.5223070000000  0.5547240000000 1.0
C      1  0.5289770000000  0.5408830000000  0.5382090000000 1.0
C      1  0.4996860000000  0.5481170000000  0.5393910000000 1.0
C      1  0.4767260000000  0.5338560000000  0.5497520000000 1.0
C      1  0.4561050000000  0.5145550000000  0.5431700000000 1.0
C      1  0.4585870000000  0.4871490000000  0.5511100000000 1.0
C      1  0.4956850000000  0.5000430000000  0.4980300000000 1.0
C      1  0.4945500000000  0.5017810000000  0.5247770000000 1.0
C      1  0.4886220000000  0.5036170000000  0.4728190000000 1.0
C      1  0.4857120000000  0.5055480000000  0.4474580000000 1.0
C      1  0.5005860000000  0.4974920000000  0.5517630000000 1.0
END
