TITL C-9267-1554-121 -1.12101915721552e-06 125000 -361.822907253586 0 0 60 (Ci) n - 1
REM
REM in /home/bkarasulu/CARBON/AIRSS/Generating-Clusters/EDIP-Nigel-Params/Higher-Symm/Box-15A/Only-C60/SD-CG/HFTN-CG
REM
REM
REM
REM
REM
REM ./C.cell (414f73aa93bd7a1190c7fd0f31ff2f98)
REM
REM compiler GCC version 9.2.1 20190827 (Red Hat 9.2.1-1)
REM options -cpp -mtune=generic -march=x86-64 -g -O0 -fpre-include=/usr/include/finclude/math-vector-fortran.h
REM seed -742599268 2040694787 -1562538238 -1557977624 -1962432898 -2018316021 -175899248 1546130575 -1011340739 361592554 627272378 1254983218 2135759158 1599372783 882604811 1359290515 253383135 675184952 25478987 205425175 -1963444171 1496177766 1731720280 1527054079 409724790 2053720070 -468593389 1569548685 -2098113559 -305167425 -2095027182 1566679537 -57863138
REM
CELL 1.54180   50.00000   50.00000   50.00000   90.00000   90.00000   90.00000
LATT -1
SFAC C  
C      1  0.5275850000000  0.5415970000000  0.5042200000000 1.0
C      1  0.4724150000000  0.4584030000000  0.4957800000000 1.0
C      1  0.4760350000000  0.5528780000000  0.5414020000000 1.0
C      1  0.5239650000000  0.4471220000000  0.4585980000000 1.0
C      1  0.4704170000000  0.5114960000000  0.5664720000000 1.0
C      1  0.5295830000000  0.4885040000000  0.4335280000000 1.0
C      1  0.4901450000000  0.4896470000000  0.5676210000000 1.0
C      1  0.5098550000000  0.5103530000000  0.4323790000000 1.0
C      1  0.5148540000000  0.4211590000000  0.4979180000000 1.0
C      1  0.4851460000000  0.5788410000000  0.5020820000000 1.0
C      1  0.4505940000000  0.5064200000000  0.5450300000000 1.0
C      1  0.5494060000000  0.4935800000000  0.4549700000000 1.0
C      1  0.4802860000000  0.5204720000000  0.4892650000000 1.0
C      1  0.5197140000000  0.4795280000000  0.5107350000000 1.0
C      1  0.5293480000000  0.5267290000000  0.5655760000000 1.0
C      1  0.4706520000000  0.4732710000000  0.4344240000000 1.0
C      1  0.4791170000000  0.4448780000000  0.5225770000000 1.0
C      1  0.5208830000000  0.5551220000000  0.4774230000000 1.0
C      1  0.4615160000000  0.4464350000000  0.4681830000000 1.0
C      1  0.5384840000000  0.5535650000000  0.5318170000000 1.0
C      1  0.5626580000000  0.4734030000000  0.4708550000000 1.0
C      1  0.4373420000000  0.5265970000000  0.5291450000000 1.0
C      1  0.4285140000000  0.4841360000000  0.4923750000000 1.0
C      1  0.5714860000000  0.5158640000000  0.5076250000000 1.0
C      1  0.4604200000000  0.5622220000000  0.4986970000000 1.0
C      1  0.5395800000000  0.4377780000000  0.5013030000000 1.0
C      1  0.4750260000000  0.4635960000000  0.5455050000000 1.0
C      1  0.5249740000000  0.5364040000000  0.4544950000000 1.0
C      1  0.4969620000000  0.5653170000000  0.5257430000000 1.0
C      1  0.5030380000000  0.4346830000000  0.4742570000000 1.0
C      1  0.4524680000000  0.4780150000000  0.5062260000000 1.0
C      1  0.5475320000000  0.5219850000000  0.4937740000000 1.0
C      1  0.4995980000000  0.5283350000000  0.5138550000000 1.0
C      1  0.5004020000000  0.4716650000000  0.4861450000000 1.0
C      1  0.4333450000000  0.4891800000000  0.4652990000000 1.0
C      1  0.5666550000000  0.5108200000000  0.5347010000000 1.0
C      1  0.5173130000000  0.4624880000000  0.4355370000000 1.0
C      1  0.4826870000000  0.5375120000000  0.5644630000000 1.0
C      1  0.4674360000000  0.5526730000000  0.4713090000000 1.0
C      1  0.5325640000000  0.4473270000000  0.5286910000000 1.0
C      1  0.5373110000000  0.4805780000000  0.5586550000000 1.0
C      1  0.4626890000000  0.5194220000000  0.4413450000000 1.0
C      1  0.4485980000000  0.5328050000000  0.4610710000000 1.0
C      1  0.5514020000000  0.4671950000000  0.5389290000000 1.0
C      1  0.5467190000000  0.5204210000000  0.4652570000000 1.0
C      1  0.4532810000000  0.4795790000000  0.5347430000000 1.0
C      1  0.5409630000000  0.4572440000000  0.4789070000000 1.0
C      1  0.4590370000000  0.5427560000000  0.5210930000000 1.0
C      1  0.5003220000000  0.4258040000000  0.5227300000000 1.0
C      1  0.4996780000000  0.5741960000000  0.4772700000000 1.0
C      1  0.5546720000000  0.5328140000000  0.5490650000000 1.0
C      1  0.4453280000000  0.4671860000000  0.4509350000000 1.0
C      1  0.4835520000000  0.4997480000000  0.4440370000000 1.0
C      1  0.5164480000000  0.5002520000000  0.5559630000000 1.0
C      1  0.4470410000000  0.5175040000000  0.4876200000000 1.0
C      1  0.5529590000000  0.4824960000000  0.5123800000000 1.0
C      1  0.5088060000000  0.5022530000000  0.5269700000000 1.0
C      1  0.4911940000000  0.4977470000000  0.4730300000000 1.0
C      1  0.5170580000000  0.5538380000000  0.5573900000000 1.0
C      1  0.4829420000000  0.4461620000000  0.4426100000000 1.0
END
