TITL C-9257-5531-289 2.29956949558288e-06 125000 -368.381420240414 0 0 60 (C1) n - 1
REM
REM in /home/bkarasulu/CARBON/AIRSS/Generating-Clusters/EDIP-Nigel-Params/Higher-Symm/Box-15A/Only-C60/SD-CG/HFTN-CG
REM
REM
REM
REM
REM
REM ./C.cell (414f73aa93bd7a1190c7fd0f31ff2f98)
REM
REM compiler GCC version 9.2.1 20190827 (Red Hat 9.2.1-1)
REM options -cpp -mtune=generic -march=x86-64 -g -O0 -fpre-include=/usr/include/finclude/math-vector-fortran.h
REM seed 1073038393 -1705689389 -635321193 1799811936 -1595171863 -1557555323 -1732083041 -1316242719 -702479912 -275031926 -217611099 1334915464 -532014034 545195312 -1113618199 -2102752814 121881352 334941651 1972160621 784048253 -409553577 -203484618 -345681745 1587092846 -1079761097 -148652627 -87879728 1231385153 1306059456 -1974784096 597819745 1576589896 -1684655306
REM
CELL 1.54180   50.00000   50.00000   50.00000   90.00000   90.00000   90.00000
LATT -1
SFAC C  
C      1  0.4364370000000  0.5097980000000  0.4837300000000 1.0
C      1  0.5171340000000  0.5121590000000  0.5637460000000 1.0
C      1  0.5481310000000  0.5108130000000  0.4530760000000 1.0
C      1  0.4996780000000  0.4696270000000  0.4455890000000 1.0
C      1  0.4527830000000  0.4706950000000  0.5285140000000 1.0
C      1  0.5485950000000  0.4711610000000  0.5269540000000 1.0
C      1  0.5663090000000  0.5400180000000  0.5118080000000 1.0
C      1  0.4783060000000  0.5386400000000  0.4382970000000 1.0
C      1  0.4583740000000  0.5397680000000  0.5512360000000 1.0
C      1  0.4596600000000  0.5099550000000  0.5544980000000 1.0
C      1  0.5680020000000  0.5102030000000  0.5096160000000 1.0
C      1  0.4752360000000  0.5088470000000  0.4382880000000 1.0
C      1  0.4599880000000  0.5466200000000  0.4609130000000 1.0
C      1  0.4868610000000  0.5493050000000  0.5557700000000 1.0
C      1  0.5555950000000  0.5480190000000  0.4846670000000 1.0
C      1  0.5378390000000  0.4486150000000  0.4850490000000 1.0
C      1  0.4690240000000  0.4468880000000  0.4770050000000 1.0
C      1  0.4991430000000  0.4538820000000  0.5258840000000 1.0
C      1  0.5148390000000  0.4216760000000  0.4336160000000 1.0
C      1  0.4332840000000  0.4229640000000  0.5242300000000 1.0
C      1  0.5346500000000  0.4271360000000  0.5430180000000 1.0
C      1  0.5479370000000  0.4704090000000  0.4981730000000 1.0
C      1  0.4757530000000  0.4689890000000  0.4619200000000 1.0
C      1  0.4798180000000  0.4697140000000  0.5394080000000 1.0
C      1  0.5456390000000  0.5450910000000  0.5337920000000 1.0
C      1  0.5076400000000  0.5436160000000  0.4455580000000 1.0
C      1  0.4493820000000  0.5439280000000  0.5221750000000 1.0
C      1  0.4742280000000  0.5553720000000  0.5093400000000 1.0
C      1  0.5222730000000  0.5571320000000  0.5186270000000 1.0
C      1  0.5058920000000  0.5566330000000  0.4734970000000 1.0
C      1  0.5024930000000  0.5851030000000  0.4856590000000 1.0
C      1  0.4798060000000  0.5844590000000  0.5049190000000 1.0
C      1  0.5174430000000  0.5858890000000  0.5113560000000 1.0
C      1  0.5077820000000  0.4473820000000  0.4312300000000 1.0
C      1  0.4360320000000  0.4487400000000  0.5309160000000 1.0
C      1  0.5516400000000  0.4480070000000  0.5422170000000 1.0
C      1  0.4675920000000  0.4976830000000  0.4661610000000 1.0
C      1  0.4869090000000  0.4979000000000  0.5473140000000 1.0
C      1  0.5482680000000  0.4987820000000  0.4887200000000 1.0
C      1  0.5022170000000  0.4965990000000  0.4340140000000 1.0
C      1  0.4418570000000  0.4974780000000  0.5339380000000 1.0
C      1  0.5579430000000  0.4978260000000  0.5350490000000 1.0
C      1  0.5384460000000  0.5180000000000  0.5442160000000 1.0
C      1  0.5202230000000  0.5165100000000  0.4462950000000 1.0
C      1  0.4423340000000  0.5168820000000  0.5116800000000 1.0
C      1  0.4802120000000  0.5425380000000  0.4827320000000 1.0
C      1  0.4960940000000  0.5445480000000  0.5277210000000 1.0
C      1  0.5266820000000  0.5438010000000  0.4914920000000 1.0
C      1  0.5196250000000  0.4143070000000  0.4589190000000 1.0
C      1  0.4524400000000  0.4147730000000  0.5074030000000 1.0
C      1  0.5082890000000  0.4280870000000  0.5341410000000 1.0
C      1  0.5017400000000  0.5333970000000  0.5732850000000 1.0
C      1  0.5635300000000  0.5313460000000  0.4636910000000 1.0
C      1  0.4379760000000  0.5297260000000  0.4644570000000 1.0
C      1  0.5201080000000  0.5136960000000  0.4939690000000 1.0
C      1  0.4861820000000  0.5127450000000  0.4869080000000 1.0
C      1  0.4998420000000  0.5143250000000  0.5232380000000 1.0
C      1  0.5230930000000  0.4254600000000  0.4839630000000 1.0
C      1  0.4735610000000  0.4243380000000  0.4923800000000 1.0
C      1  0.5012130000000  0.4220030000000  0.5040230000000 1.0
END
