TITL C-9269-7444-220 3.8858903713512e-07 125000 -343.119828022165 0 0 60 (Oh) n - 1
REM
REM in /home/bkarasulu/CARBON/AIRSS/Generating-Clusters/EDIP-Nigel-Params/Higher-Symm/Box-15A/Only-C60/SD-CG/HFTN-CG
REM
REM
REM
REM
REM
REM ./C.cell (414f73aa93bd7a1190c7fd0f31ff2f98)
REM
REM compiler GCC version 9.2.1 20190827 (Red Hat 9.2.1-1)
REM options -cpp -mtune=generic -march=x86-64 -g -O0 -fpre-include=/usr/include/finclude/math-vector-fortran.h
REM seed -618473081 -659276789 -91880973 1887050680 264382075 991727002 984770234 1786757104 227174479 -787010880 -1621765098 -1218870155 -1837108099 1179786086 -802878313 44624696 -1722342999 195594881 -1488725173 558859494 -581374497 567222396 603694990 735544067 -729511531 -754890459 1630866186 1939031586 610193935 -1047226258 -878663596 -1798348203 -125647904
REM
CELL 1.54180   50.00000   50.00000   50.00000   90.00000   90.00000   90.00000
LATT -1
SFAC C  
C      1  0.5241710000000  0.4758290000000  0.5551770000000 1.0
C      1  0.4758290000000  0.5551770000000  0.5241710000000 1.0
C      1  0.5551770000000  0.5241710000000  0.4758290000000 1.0
C      1  0.4758290000000  0.4758290000000  0.4448220000000 1.0
C      1  0.4758290000000  0.5241710000000  0.5551780000000 1.0
C      1  0.5241710000000  0.5241710000000  0.4448220000000 1.0
C      1  0.5241710000000  0.5551780000000  0.4758290000000 1.0
C      1  0.5241720000000  0.4448230000000  0.5241710000000 1.0
C      1  0.4758290000000  0.4448220000000  0.4758290000000 1.0
C      1  0.4448220000000  0.5241710000000  0.5241710000000 1.0
C      1  0.4448220000000  0.4758290000000  0.4758290000000 1.0
C      1  0.5551780000000  0.4758290000000  0.5241710000000 1.0
C      1  0.5241710000000  0.5241710000000  0.5551780000000 1.0
C      1  0.4758290000000  0.4448220000000  0.5241710000000 1.0
C      1  0.5551780000000  0.4758290000000  0.4758290000000 1.0
C      1  0.4758290000000  0.5241710000000  0.4448230000000 1.0
C      1  0.4758290000000  0.4758290000000  0.5551780000000 1.0
C      1  0.5241710000000  0.4758290000000  0.4448220000000 1.0
C      1  0.5241710000000  0.4448230000000  0.4758290000000 1.0
C      1  0.5241710000000  0.5551780000000  0.5241710000000 1.0
C      1  0.4758280000000  0.5551770000000  0.4758290000000 1.0
C      1  0.4448230000000  0.4758290000000  0.5241710000000 1.0
C      1  0.4448220000000  0.5241710000000  0.4758290000000 1.0
C      1  0.5551780000000  0.5241710000000  0.5241710000000 1.0
C      1  0.5822040000000  0.4844260000000  0.4844250000000 1.0
C      1  0.4844260000000  0.4844250000000  0.5822040000000 1.0
C      1  0.4844250000000  0.5822040000000  0.4844260000000 1.0
C      1  0.4177960000000  0.4844250000000  0.5155750000000 1.0
C      1  0.4177960000000  0.5155740000000  0.4844260000000 1.0
C      1  0.5822040000000  0.5155750000000  0.5155740000000 1.0
C      1  0.5155740000000  0.4844260000000  0.4177960000000 1.0
C      1  0.5155750000000  0.5155740000000  0.5822040000000 1.0
C      1  0.4844250000000  0.5155750000000  0.4177960000000 1.0
C      1  0.5155740000000  0.5822040000000  0.5155750000000 1.0
C      1  0.5155750000000  0.4177960000000  0.4844250000000 1.0
C      1  0.4844260000000  0.4177960000000  0.5155740000000 1.0
C      1  0.5822040000000  0.5155750000000  0.4844250000000 1.0
C      1  0.4844260000000  0.5155740000000  0.5822040000000 1.0
C      1  0.4844260000000  0.4177960000000  0.4844250000000 1.0
C      1  0.4177960000000  0.5155740000000  0.5155750000000 1.0
C      1  0.4177960000000  0.4844250000000  0.4844260000000 1.0
C      1  0.5822040000000  0.4844260000000  0.5155740000000 1.0
C      1  0.5155740000000  0.5155750000000  0.4177960000000 1.0
C      1  0.5155750000000  0.4844250000000  0.5822040000000 1.0
C      1  0.4844250000000  0.4844260000000  0.4177960000000 1.0
C      1  0.5155750000000  0.4177960000000  0.5155740000000 1.0
C      1  0.5155740000000  0.5822040000000  0.4844260000000 1.0
C      1  0.4844250000000  0.5822040000000  0.5155750000000 1.0
C      1  0.5000000000000  0.5397480000000  0.4602520000000 1.0
C      1  0.5000000000000  0.4602520000000  0.4602520000000 1.0
C      1  0.5000000000000  0.4602520000000  0.5397480000000 1.0
C      1  0.5000000000000  0.5397480000000  0.5397480000000 1.0
C      1  0.5397480000000  0.5397480000000  0.5000000000000 1.0
C      1  0.5397480000000  0.5000000000000  0.5397480000000 1.0
C      1  0.4602520000000  0.5397480000000  0.5000000000000 1.0
C      1  0.4602520000000  0.4602520000000  0.5000000000000 1.0
C      1  0.5397480000000  0.4602520000000  0.5000000000000 1.0
C      1  0.4602520000000  0.5000000000000  0.4602520000000 1.0
C      1  0.4602520000000  0.5000000000000  0.5397480000000 1.0
C      1  0.5397480000000  0.5000000000000  0.4602520000000 1.0
END
