TITL C-9259-5960-9 -4.43533161669421e-06 125000 -361.530218423088 0 0 60 (C1) n - 1
REM
REM in /home/bkarasulu/CARBON/AIRSS/Generating-Clusters/EDIP-Nigel-Params/Higher-Symm/Box-15A/Only-C60/SD-CG/HFTN-CG
REM
REM
REM
REM
REM
REM ./C.cell (414f73aa93bd7a1190c7fd0f31ff2f98)
REM
REM compiler GCC version 9.2.1 20190827 (Red Hat 9.2.1-1)
REM options -cpp -mtune=generic -march=x86-64 -g -O0 -fpre-include=/usr/include/finclude/math-vector-fortran.h
REM seed 962891571 -1973376643 1010821869 -88091246 912067978 -947990677 553003051 -448996021 -579506272 2096120768 -1872977516 1381915443 900048926 -793216158 695123867 1581909273 1444181020 -1268132243 -80551660 -560208206 -721587838 -881093141 1693639796 1536367335 943140660 1577054126 1981421826 1457233314 -26258762 1587166616 748837516 -808350912 2124063628
REM
CELL 1.54180   50.00000   50.00000   50.00000   90.00000   90.00000   90.00000
LATT -1
SFAC C  
C      1  0.4955120000000  0.5103740000000  0.5224880000000 1.0
C      1  0.4793460000000  0.5031340000000  0.4345510000000 1.0
C      1  0.4802570000000  0.4362640000000  0.5342870000000 1.0
C      1  0.5105080000000  0.5188440000000  0.4820750000000 1.0
C      1  0.4308140000000  0.4809790000000  0.5230490000000 1.0
C      1  0.5094950000000  0.5597040000000  0.5567790000000 1.0
C      1  0.5247480000000  0.5691450000000  0.5111660000000 1.0
C      1  0.5536460000000  0.4734750000000  0.5471850000000 1.0
C      1  0.4642020000000  0.5377990000000  0.5376890000000 1.0
C      1  0.4961470000000  0.4490800000000  0.4879980000000 1.0
C      1  0.4713080000000  0.4989740000000  0.5677970000000 1.0
C      1  0.4309170000000  0.5103540000000  0.4817230000000 1.0
C      1  0.5517200000000  0.4597210000000  0.5226210000000 1.0
C      1  0.5083730000000  0.5326010000000  0.5645880000000 1.0
C      1  0.5315060000000  0.4396820000000  0.5287450000000 1.0
C      1  0.5057300000000  0.5655140000000  0.4655950000000 1.0
C      1  0.5132670000000  0.4726700000000  0.5753830000000 1.0
C      1  0.5663370000000  0.5271180000000  0.5199990000000 1.0
C      1  0.5079090000000  0.4907530000000  0.4656700000000 1.0
C      1  0.5478360000000  0.4710360000000  0.4403320000000 1.0
C      1  0.5323230000000  0.4519610000000  0.4537850000000 1.0
C      1  0.5097840000000  0.4398700000000  0.4418310000000 1.0
C      1  0.5616540000000  0.4935460000000  0.4837250000000 1.0
C      1  0.4682920000000  0.4579280000000  0.5510550000000 1.0
C      1  0.5655380000000  0.5221450000000  0.4921930000000 1.0
C      1  0.4676080000000  0.5576280000000  0.4927030000000 1.0
C      1  0.4840030000000  0.4730410000000  0.5716490000000 1.0
C      1  0.5077520000000  0.5010990000000  0.4297920000000 1.0
C      1  0.4793540000000  0.4953160000000  0.4840100000000 1.0
C      1  0.4467560000000  0.4778750000000  0.5472550000000 1.0
C      1  0.5198080000000  0.5270320000000  0.4357940000000 1.0
C      1  0.4825600000000  0.5757550000000  0.4773400000000 1.0
C      1  0.4866690000000  0.4413030000000  0.4585160000000 1.0
C      1  0.5485860000000  0.5392010000000  0.4744380000000 1.0
C      1  0.4302420000000  0.5088930000000  0.5124120000000 1.0
C      1  0.4995370000000  0.4298570000000  0.5120810000000 1.0
C      1  0.5165250000000  0.5311540000000  0.5122800000000 1.0
C      1  0.5331800000000  0.5170020000000  0.5568680000000 1.0
C      1  0.5063340000000  0.4820350000000  0.5180210000000 1.0
C      1  0.4406820000000  0.4598730000000  0.4633750000000 1.0
C      1  0.5105330000000  0.4599870000000  0.5388500000000 1.0
C      1  0.5020460000000  0.5368670000000  0.4581570000000 1.0
C      1  0.4411900000000  0.4660450000000  0.5009100000000 1.0
C      1  0.4849960000000  0.5194320000000  0.5511190000000 1.0
C      1  0.5220640000000  0.4650900000000  0.4783430000000 1.0
C      1  0.5456540000000  0.5232020000000  0.4492100000000 1.0
C      1  0.4758960000000  0.5594700000000  0.5213960000000 1.0
C      1  0.4663340000000  0.4787530000000  0.4322420000000 1.0
C      1  0.4847010000000  0.4727740000000  0.5013550000000 1.0
C      1  0.4484140000000  0.4853650000000  0.4786270000000 1.0
C      1  0.4741150000000  0.5264400000000  0.4530840000000 1.0
C      1  0.5349310000000  0.4877050000000  0.5630630000000 1.0
C      1  0.5418420000000  0.4768550000000  0.4999850000000 1.0
C      1  0.5401000000000  0.5216950000000  0.5283750000000 1.0
C      1  0.5511440000000  0.4946560000000  0.4560540000000 1.0
C      1  0.4555770000000  0.5321230000000  0.4770620000000 1.0
C      1  0.4625740000000  0.4545390000000  0.4457800000000 1.0
C      1  0.4588810000000  0.5195610000000  0.5137150000000 1.0
C      1  0.5030090000000  0.5680100000000  0.5305530000000 1.0
C      1  0.5292320000000  0.5616940000000  0.4832770000000 1.0
END
