TITL C-9259-5960-362 -1.44727549448069e-06 125000 -342.507470502713 0 0 60 (C5) n - 1
REM
REM in /home/bkarasulu/CARBON/AIRSS/Generating-Clusters/EDIP-Nigel-Params/Higher-Symm/Box-15A/Only-C60/SD-CG/HFTN-CG
REM
REM
REM
REM
REM
REM ./C.cell (414f73aa93bd7a1190c7fd0f31ff2f98)
REM
REM compiler GCC version 9.2.1 20190827 (Red Hat 9.2.1-1)
REM options -cpp -mtune=generic -march=x86-64 -g -O0 -fpre-include=/usr/include/finclude/math-vector-fortran.h
REM seed -984059211 -668139671 -313600182 1210046442 -832954015 -1247651795 -1859679469 -1651956984 581138093 771285584 -1816827432 1546114704 -1813382395 -1402194797 133396742 -1638150789 -559481510 2108463302 1274995634 -1162843816 1740431478 1299856076 145260607 1362499751 -1860636590 1980100753 -1428687124 -1139155916 -1211769256 -202795571 -1091108171 625876695 806879655
REM
CELL 1.54180   50.00000   50.00000   50.00000   90.00000   90.00000   90.00000
LATT -1
SFAC C  
C      1  0.4435900000000  0.5275350000000  0.4645600000000 1.0
C      1  0.4488630000000  0.5275350000000  0.5426980000000 1.0
C      1  0.5248060000000  0.5275350000000  0.5618290000000 1.0
C      1  0.5664680000000  0.5275350000000  0.4955150000000 1.0
C      1  0.5162740000000  0.5275350000000  0.4353990000000 1.0
C      1  0.4435900000000  0.4724650000000  0.4645600000000 1.0
C      1  0.4488630000000  0.4724650000000  0.5426980000000 1.0
C      1  0.5248060000000  0.4724650000000  0.5618290000000 1.0
C      1  0.5664680000000  0.4724650000000  0.4955150000000 1.0
C      1  0.5162740000000  0.4724650000000  0.4353990000000 1.0
C      1  0.4953050000000  0.5310450000000  0.5651440000000 1.0
C      1  0.5605050000000  0.5310450000000  0.5245960000000 1.0
C      1  0.5420890000000  0.5310450000000  0.4500570000000 1.0
C      1  0.4655080000000  0.5310450000000  0.4445370000000 1.0
C      1  0.4365930000000  0.5310450000000  0.5156650000000 1.0
C      1  0.4953050000000  0.4689550000000  0.5651440000000 1.0
C      1  0.5605050000000  0.4689550000000  0.5245960000000 1.0
C      1  0.5420900000000  0.4689550000000  0.4500570000000 1.0
C      1  0.4655080000000  0.4689550000000  0.4445370000000 1.0
C      1  0.4365930000000  0.4689550000000  0.5156650000000 1.0
C      1  0.4489170000000  0.5163470000000  0.4917170000000 1.0
C      1  0.4763370000000  0.5163470000000  0.5460240000000 1.0
C      1  0.5364590000000  0.5163470000000  0.5367270000000 1.0
C      1  0.5461960000000  0.5163470000000  0.4766750000000 1.0
C      1  0.4920920000000  0.5163470000000  0.4488570000000 1.0
C      1  0.4489170000000  0.4836530000000  0.4917170000000 1.0
C      1  0.4763370000000  0.4836530000000  0.5460240000000 1.0
C      1  0.5364590000000  0.4836530000000  0.5367270000000 1.0
C      1  0.5461960000000  0.4836530000000  0.4766750000000 1.0
C      1  0.4920920000000  0.4836530000000  0.4488570000000 1.0
C      1  0.5014250000000  0.4317920000000  0.4710780000000 1.0
C      1  0.4729340000000  0.4317920000000  0.4897070000000 1.0
C      1  0.4818470000000  0.4317920000000  0.5225610000000 1.0
C      1  0.5158470000000  0.4317920000000  0.5242360000000 1.0
C      1  0.5279470000000  0.4317920000000  0.4924180000000 1.0
C      1  0.5014250000000  0.5682080000000  0.4710780000000 1.0
C      1  0.4729340000000  0.5682080000000  0.4897070000000 1.0
C      1  0.4818470000000  0.5682080000000  0.5225610000000 1.0
C      1  0.5158470000000  0.5682080000000  0.5242360000000 1.0
C      1  0.5279470000000  0.5682080000000  0.4924180000000 1.0
C      1  0.4652770000000  0.5589280000000  0.4586720000000 1.0
C      1  0.4499650000000  0.5589280000000  0.5202520000000 1.0
C      1  0.5037990000000  0.5589280000000  0.5538440000000 1.0
C      1  0.5523830000000  0.5589280000000  0.5130250000000 1.0
C      1  0.5285750000000  0.5589280000000  0.4542060000000 1.0
C      1  0.4652780000000  0.4410720000000  0.4586720000000 1.0
C      1  0.4499650000000  0.4410720000000  0.5202520000000 1.0
C      1  0.5037990000000  0.4410720000000  0.5538440000000 1.0
C      1  0.5523830000000  0.4410720000000  0.5130250000000 1.0
C      1  0.5285750000000  0.4410720000000  0.4542060000000 1.0
C      1  0.4963380000000  0.4753230000000  0.4762250000000 1.0
C      1  0.4762570000000  0.4753230000000  0.4961360000000 1.0
C      1  0.4889890000000  0.4753230000000  0.5213870000000 1.0
C      1  0.5169380000000  0.4753230000000  0.5170810000000 1.0
C      1  0.5214790000000  0.4753230000000  0.4891700000000 1.0
C      1  0.4963370000000  0.5246770000000  0.4762250000000 1.0
C      1  0.4762570000000  0.5246770000000  0.4961360000000 1.0
C      1  0.4889890000000  0.5246770000000  0.5213870000000 1.0
C      1  0.5169370000000  0.5246770000000  0.5170810000000 1.0
C      1  0.5214790000000  0.5246770000000  0.4891700000000 1.0
END
