TITL C-9259-5960-363 4.17708964072915e-05 125000 -354.192878392434 0 0 60 (C1) n - 1
REM
REM in /home/bkarasulu/CARBON/AIRSS/Generating-Clusters/EDIP-Nigel-Params/Higher-Symm/Box-15A/Only-C60/SD-CG/HFTN-CG
REM
REM
REM
REM
REM
REM ./C.cell (414f73aa93bd7a1190c7fd0f31ff2f98)
REM
REM compiler GCC version 9.2.1 20190827 (Red Hat 9.2.1-1)
REM options -cpp -mtune=generic -march=x86-64 -g -O0 -fpre-include=/usr/include/finclude/math-vector-fortran.h
REM seed 1659332482 -1099588403 -816481075 -71486701 560630450 -563492998 -1101873349 -58264502 1914999521 -553992758 627601653 -1303384325 1451217772 159859488 -1314056381 -1960158974 1237108045 1415031571 1447057535 -13539124 347221010 -111776401 1644336558 -1962442224 366292836 1276167427 1691583253 637311269 760668490 1620747218 1411614308 1758324812 528566332
REM
CELL 1.54180   50.00000   50.00000   50.00000   90.00000   90.00000   90.00000
LATT -1
SFAC C  
C      1  0.4690020000000  0.4680160000000  0.5478690000000 1.0
C      1  0.5596930000000  0.4697730000000  0.5020370000000 1.0
C      1  0.4740090000000  0.4703570000000  0.4486660000000 1.0
C      1  0.4692550000000  0.5304750000000  0.5487700000000 1.0
C      1  0.5591950000000  0.5306090000000  0.5020000000000 1.0
C      1  0.4738970000000  0.5292160000000  0.4483770000000 1.0
C      1  0.4581700000000  0.5163850000000  0.5245810000000 1.0
C      1  0.5450400000000  0.5158510000000  0.5241350000000 1.0
C      1  0.4994910000000  0.5152970000000  0.4554040000000 1.0
C      1  0.4576770000000  0.4793440000000  0.5224210000000 1.0
C      1  0.5453240000000  0.4840690000000  0.5243090000000 1.0
C      1  0.4994620000000  0.4846390000000  0.4554610000000 1.0
C      1  0.4757050000000  0.4466150000000  0.4661950000000 1.0
C      1  0.4826720000000  0.4443280000000  0.5374360000000 1.0
C      1  0.5448670000000  0.4445890000000  0.4970050000000 1.0
C      1  0.4754550000000  0.5541120000000  0.4641690000000 1.0
C      1  0.4822950000000  0.5538040000000  0.5366810000000 1.0
C      1  0.5441380000000  0.5555230000000  0.4967360000000 1.0
C      1  0.5255830000000  0.4653090000000  0.5637240000000 1.0
C      1  0.5430570000000  0.4653380000000  0.4457650000000 1.0
C      1  0.4303560000000  0.4674030000000  0.4901820000000 1.0
C      1  0.5259960000000  0.5359320000000  0.5627300000000 1.0
C      1  0.5431260000000  0.5347330000000  0.4452250000000 1.0
C      1  0.4303110000000  0.5339530000000  0.4889900000000 1.0
C      1  0.4276570000000  0.4859210000000  0.5151660000000 1.0
C      1  0.5484650000000  0.4825790000000  0.5544640000000 1.0
C      1  0.5213690000000  0.4824760000000  0.4345110000000 1.0
C      1  0.4293010000000  0.5174540000000  0.5146980000000 1.0
C      1  0.5488360000000  0.5191690000000  0.5538090000000 1.0
C      1  0.5213650000000  0.5173310000000  0.4343490000000 1.0
C      1  0.5030000000000  0.4376480000000  0.4702850000000 1.0
C      1  0.4694490000000  0.4380060000000  0.5131690000000 1.0
C      1  0.5289140000000  0.4378210000000  0.5192990000000 1.0
C      1  0.5029510000000  0.5624730000000  0.4684650000000 1.0
C      1  0.4699130000000  0.5594120000000  0.5119190000000 1.0
C      1  0.5278850000000  0.5622350000000  0.5187860000000 1.0
C      1  0.4784210000000  0.4867800000000  0.4989410000000 1.0
C      1  0.5148430000000  0.4839600000000  0.5164520000000 1.0
C      1  0.5069740000000  0.4755340000000  0.4855060000000 1.0
C      1  0.4788170000000  0.5171980000000  0.5004100000000 1.0
C      1  0.5141240000000  0.5151040000000  0.5169520000000 1.0
C      1  0.5076950000000  0.5247160000000  0.4849600000000 1.0
C      1  0.5312990000000  0.5547930000000  0.4688620000000 1.0
C      1  0.4566620000000  0.5528110000000  0.4878900000000 1.0
C      1  0.5122450000000  0.5523270000000  0.5399220000000 1.0
C      1  0.5312700000000  0.4453780000000  0.4696210000000 1.0
C      1  0.4575900000000  0.4492850000000  0.4900340000000 1.0
C      1  0.5127390000000  0.4473250000000  0.5402500000000 1.0
C      1  0.4539380000000  0.5150070000000  0.4647710000000 1.0
C      1  0.4936520000000  0.5152640000000  0.5555680000000 1.0
C      1  0.5497660000000  0.5155820000000  0.4781900000000 1.0
C      1  0.4530940000000  0.4849080000000  0.4639020000000 1.0
C      1  0.4929280000000  0.4845400000000  0.5533820000000 1.0
C      1  0.5490200000000  0.4847980000000  0.4786070000000 1.0
C      1  0.5694230000000  0.5156620000000  0.4528860000000 1.0
C      1  0.4213480000000  0.5162040000000  0.4623370000000 1.0
C      1  0.5054090000000  0.5133110000000  0.5845970000000 1.0
C      1  0.5691290000000  0.4843730000000  0.4528860000000 1.0
C      1  0.4209410000000  0.4845870000000  0.4625850000000 1.0
C      1  0.5057930000000  0.4823590000000  0.5827020000000 1.0
END
