TITL C-9265-7156-181 -5.67983521153736e-08 125000 -368.495558236971 0 0 60 (Cs) n - 1
REM
REM in /home/bkarasulu/CARBON/AIRSS/Generating-Clusters/EDIP-Nigel-Params/Higher-Symm/Box-15A/Only-C60/SD-CG/HFTN-CG
REM
REM
REM
REM
REM
REM ./C.cell (414f73aa93bd7a1190c7fd0f31ff2f98)
REM
REM compiler GCC version 9.2.1 20190827 (Red Hat 9.2.1-1)
REM options -cpp -mtune=generic -march=x86-64 -g -O0 -fpre-include=/usr/include/finclude/math-vector-fortran.h
REM seed -1569408415 724452941 2061590577 815027549 1341526223 1892038350 1579035628 776244377 -901819693 -113745250 -18292424 -427727541 875972246 1194953069 -672122575 -1051831291 -1794561548 997010245 1817055151 156141054 1857301674 -69927314 -1511813106 -2029896110 1308781028 1900173344 631918855 1255584881 44907383 -994190331 -1202331850 140808516 1516019088
REM
CELL 1.54180   50.00000   50.00000   50.00000   90.00000   90.00000   90.00000
LATT -1
SFAC C  
C      1  0.5589060000000  0.5205510000000  0.4860940000000 1.0
C      1  0.5611090000000  0.4930060000000  0.4754770000000 1.0
C      1  0.5586010000000  0.4754490000000  0.4990580000000 1.0
C      1  0.5604160000000  0.4917290000000  0.5235920000000 1.0
C      1  0.5614290000000  0.5203400000000  0.5156450000000 1.0
C      1  0.4410700000000  0.5205710000000  0.4862240000000 1.0
C      1  0.4388350000000  0.4930260000000  0.4756120000000 1.0
C      1  0.4413890000000  0.4754680000000  0.4991870000000 1.0
C      1  0.4396340000000  0.4917490000000  0.5237250000000 1.0
C      1  0.4386130000000  0.5203600000000  0.5157810000000 1.0
C      1  0.4640890000000  0.5650760000000  0.4853670000000 1.0
C      1  0.4638210000000  0.5064770000000  0.4333250000000 1.0
C      1  0.4636770000000  0.4385780000000  0.4734230000000 1.0
C      1  0.4639920000000  0.4560590000000  0.5500530000000 1.0
C      1  0.4638550000000  0.5341930000000  0.5579040000000 1.0
C      1  0.5359000000000  0.5650640000000  0.4852870000000 1.0
C      1  0.5360340000000  0.5064650000000  0.4332450000000 1.0
C      1  0.5362430000000  0.4385660000000  0.4733430000000 1.0
C      1  0.5361040000000  0.4560470000000  0.5499730000000 1.0
C      1  0.5362840000000  0.5341810000000  0.5578240000000 1.0
C      1  0.4864630000000  0.5767070000000  0.4725140000000 1.0
C      1  0.4863700000000  0.4974970000000  0.4186220000000 1.0
C      1  0.4864180000000  0.4220650000000  0.4772470000000 1.0
C      1  0.4865430000000  0.4544260000000  0.5671250000000 1.0
C      1  0.4865400000000  0.5499210000000  0.5645040000000 1.0
C      1  0.5135020000000  0.5767020000000  0.4724840000000 1.0
C      1  0.5134490000000  0.4974920000000  0.4185920000000 1.0
C      1  0.5135050000000  0.4220600000000  0.4772170000000 1.0
C      1  0.5135900000000  0.4544220000000  0.5670950000000 1.0
C      1  0.5136200000000  0.5499160000000  0.5644740000000 1.0
C      1  0.4812580000000  0.4816870000000  0.4807510000000 1.0
C      1  0.4843210000000  0.4745360000000  0.5115280000000 1.0
C      1  0.4844700000000  0.5034500000000  0.5272110000000 1.0
C      1  0.4810660000000  0.5256010000000  0.5048630000000 1.0
C      1  0.4848570000000  0.5129610000000  0.4762060000000 1.0
C      1  0.5186940000000  0.4816810000000  0.4807100000000 1.0
C      1  0.5156960000000  0.4745310000000  0.5114930000000 1.0
C      1  0.5155910000000  0.5034450000000  0.5271760000000 1.0
C      1  0.5189530000000  0.5255940000000  0.5048210000000 1.0
C      1  0.5150950000000  0.5129560000000  0.4761730000000 1.0
C      1  0.4718140000000  0.5544890000000  0.5123450000000 1.0
C      1  0.4725630000000  0.5283480000000  0.4520010000000 1.0
C      1  0.4714090000000  0.4630160000000  0.4577560000000 1.0
C      1  0.4718050000000  0.4477720000000  0.5222170000000 1.0
C      1  0.4723100000000  0.5054320000000  0.5557540000000 1.0
C      1  0.5282310000000  0.5544800000000  0.5122830000000 1.0
C      1  0.5273400000000  0.5283380000000  0.4519410000000 1.0
C      1  0.5284850000000  0.4630070000000  0.4576930000000 1.0
C      1  0.5282260000000  0.4477630000000  0.5221550000000 1.0
C      1  0.5278160000000  0.5054220000000  0.5556930000000 1.0
C      1  0.5488600000000  0.4472960000000  0.4998040000000 1.0
C      1  0.5485650000000  0.4841080000000  0.5499630000000 1.0
C      1  0.5493200000000  0.5432500000000  0.5314790000000 1.0
C      1  0.5480130000000  0.5422770000000  0.4690050000000 1.0
C      1  0.5493960000000  0.4836910000000  0.4490870000000 1.0
C      1  0.4511220000000  0.4473130000000  0.4999130000000 1.0
C      1  0.4515400000000  0.4841240000000  0.5500700000000 1.0
C      1  0.4507650000000  0.5432670000000  0.5315880000000 1.0
C      1  0.4519330000000  0.5422930000000  0.4691120000000 1.0
C      1  0.4504860000000  0.4837080000000  0.4491970000000 1.0
END
