TITL C-9256-7861-298 1.03119802496923e-05 125000 -367.561128967182 0 0 60 (C1) n - 1
REM
REM in /home/bkarasulu/CARBON/AIRSS/Generating-Clusters/EDIP-Nigel-Params/Higher-Symm/Box-15A/Only-C60/SD-CG/HFTN-CG
REM
REM
REM
REM
REM
REM ./C.cell (414f73aa93bd7a1190c7fd0f31ff2f98)
REM
REM compiler GCC version 9.2.1 20190827 (Red Hat 9.2.1-1)
REM options -cpp -mtune=generic -march=x86-64 -g -O0 -fpre-include=/usr/include/finclude/math-vector-fortran.h
REM seed 1138445912 -1787458823 1995992048 -2016340229 1030106531 -1795973900 -316690832 1930410947 -1719784994 253005645 1396926619 -2054879300 -638142932 957795933 728996279 -1150784513 119738892 1003549191 -1913748483 -1084906454 -1027565505 1066744426 -1410987669 -162558777 -1069553239 -649899450 1147418818 -860017861 1410016425 659256967 -50413552 1399844829 -535059593
REM
CELL 1.54180   50.00000   50.00000   50.00000   90.00000   90.00000   90.00000
LATT -1
SFAC C  
C      1  0.5549480000000  0.4582770000000  0.5157680000000 1.0
C      1  0.4662040000000  0.4413700000000  0.5030710000000 1.0
C      1  0.4801480000000  0.5650750000000  0.5394240000000 1.0
C      1  0.5227640000000  0.5185320000000  0.4947950000000 1.0
C      1  0.5467290000000  0.5109010000000  0.4304110000000 1.0
C      1  0.4435470000000  0.4696100000000  0.4704070000000 1.0
C      1  0.5100590000000  0.5229630000000  0.4652510000000 1.0
C      1  0.4593190000000  0.4682270000000  0.5152520000000 1.0
C      1  0.4508320000000  0.5316370000000  0.4457530000000 1.0
C      1  0.5352950000000  0.5299030000000  0.4473990000000 1.0
C      1  0.4932530000000  0.4663220000000  0.5538480000000 1.0
C      1  0.4415500000000  0.4886010000000  0.4490100000000 1.0
C      1  0.5350420000000  0.4400710000000  0.5297110000000 1.0
C      1  0.5593240000000  0.4812820000000  0.5355120000000 1.0
C      1  0.5155600000000  0.4845300000000  0.5113470000000 1.0
C      1  0.5114980000000  0.5345740000000  0.5602320000000 1.0
C      1  0.4204900000000  0.4685920000000  0.4865690000000 1.0
C      1  0.4344020000000  0.5209100000000  0.4685820000000 1.0
C      1  0.5019150000000  0.4901470000000  0.5679200000000 1.0
C      1  0.4904820000000  0.5559450000000  0.4926100000000 1.0
C      1  0.4300980000000  0.4758270000000  0.5120300000000 1.0
C      1  0.5373460000000  0.4668890000000  0.4914790000000 1.0
C      1  0.5046720000000  0.5512470000000  0.5378590000000 1.0
C      1  0.4463380000000  0.4832680000000  0.5592370000000 1.0
C      1  0.4893590000000  0.4997190000000  0.5145810000000 1.0
C      1  0.5519090000000  0.4868690000000  0.4731440000000 1.0
C      1  0.4407880000000  0.5073950000000  0.5454670000000 1.0
C      1  0.5222650000000  0.4729800000000  0.4382390000000 1.0
C      1  0.5809040000000  0.4873810000000  0.5174500000000 1.0
C      1  0.5556910000000  0.5376760000000  0.4671660000000 1.0
C      1  0.4707710000000  0.4970300000000  0.4915540000000 1.0
C      1  0.4565580000000  0.5637770000000  0.5255090000000 1.0
C      1  0.5101080000000  0.4305140000000  0.4618900000000 1.0
C      1  0.4312650000000  0.5051400000000  0.5172690000000 1.0
C      1  0.4628290000000  0.5484840000000  0.5023170000000 1.0
C      1  0.5452650000000  0.4867460000000  0.4443960000000 1.0
C      1  0.4645310000000  0.4668400000000  0.5453000000000 1.0
C      1  0.4706180000000  0.5501860000000  0.4514950000000 1.0
C      1  0.4846880000000  0.5129720000000  0.5422750000000 1.0
C      1  0.5612810000000  0.5273210000000  0.5316070000000 1.0
C      1  0.5143460000000  0.5468400000000  0.5091200000000 1.0
C      1  0.5552040000000  0.5542280000000  0.5261150000000 1.0
C      1  0.5204860000000  0.4243050000000  0.5076860000000 1.0
C      1  0.4916270000000  0.4301810000000  0.5126120000000 1.0
C      1  0.4641560000000  0.5053110000000  0.4407050000000 1.0
C      1  0.5282400000000  0.4378940000000  0.4823450000000 1.0
C      1  0.4601210000000  0.5266960000000  0.5494190000000 1.0
C      1  0.5239050000000  0.5086850000000  0.5609140000000 1.0
C      1  0.5099060000000  0.4596060000000  0.5298600000000 1.0
C      1  0.4491230000000  0.5191110000000  0.4948950000000 1.0
C      1  0.5744110000000  0.5142890000000  0.5088170000000 1.0
C      1  0.5388350000000  0.5635960000000  0.5055860000000 1.0
C      1  0.4644690000000  0.4489340000000  0.4748590000000 1.0
C      1  0.4861580000000  0.4996960000000  0.4612050000000 1.0
C      1  0.4944160000000  0.5484870000000  0.4654070000000 1.0
C      1  0.5501240000000  0.5617310000000  0.4802230000000 1.0
C      1  0.5531470000000  0.5143400000000  0.4863400000000 1.0
C      1  0.4906940000000  0.4506950000000  0.4625910000000 1.0
C      1  0.4973050000000  0.4745080000000  0.4496970000000 1.0
C      1  0.5426790000000  0.5051370000000  0.5384680000000 1.0
END
