TITL C-9264-7143-86 -6.88362336637164e-05 125000 -355.746747499941 0 0 60 (C1) n - 1
REM
REM in /home/bkarasulu/CARBON/AIRSS/Generating-Clusters/EDIP-Nigel-Params/Higher-Symm/Box-15A/Only-C60/SD-CG/HFTN-CG
REM
REM
REM
REM
REM
REM ./C.cell (414f73aa93bd7a1190c7fd0f31ff2f98)
REM
REM compiler GCC version 9.2.1 20190827 (Red Hat 9.2.1-1)
REM options -cpp -mtune=generic -march=x86-64 -g -O0 -fpre-include=/usr/include/finclude/math-vector-fortran.h
REM seed -1106530987 -554041880 -980014647 -1520857886 -1455915842 1125866331 -1295041702 58427439 1112662489 -847944597 2145415263 1214272892 1708286851 1540955342 579455148 -214154697 -1405173428 575080131 -1299141827 621039774 -1675564414 1753514486 -81684140 -1599782309 1079038298 -13855648 687497711 618640962 366095840 -1307887976 1527224288 1066906134 -2057059006
REM
CELL 1.54180   50.00000   50.00000   50.00000   90.00000   90.00000   90.00000
LATT -1
SFAC C  
C      1  0.4636640000000  0.5711890000000  0.5361610000000 1.0
C      1  0.4682700000000  0.4120810000000  0.5194860000000 1.0
C      1  0.4673920000000  0.5087510000000  0.4246250000000 1.0
C      1  0.5333250000000  0.5704470000000  0.5366180000000 1.0
C      1  0.5354220000000  0.4146570000000  0.5250150000000 1.0
C      1  0.5337290000000  0.5106560000000  0.4220710000000 1.0
C      1  0.4300060000000  0.4652300000000  0.5758670000000 1.0
C      1  0.4268020000000  0.4660980000000  0.4951830000000 1.0
C      1  0.4248640000000  0.5493960000000  0.4620330000000 1.0
C      1  0.5710950000000  0.4726640000000  0.5730260000000 1.0
C      1  0.5719570000000  0.4643960000000  0.4645810000000 1.0
C      1  0.5798750000000  0.5417430000000  0.4792160000000 1.0
C      1  0.5578250000000  0.5593060000000  0.4758950000000 1.0
C      1  0.5565320000000  0.4671390000000  0.5493280000000 1.0
C      1  0.5544150000000  0.4866540000000  0.4665030000000 1.0
C      1  0.4468840000000  0.5668030000000  0.4663380000000 1.0
C      1  0.4440920000000  0.4628900000000  0.5513530000000 1.0
C      1  0.4427930000000  0.4707130000000  0.4722600000000 1.0
C      1  0.4733460000000  0.4152480000000  0.5457310000000 1.0
C      1  0.4674570000000  0.4818450000000  0.4246310000000 1.0
C      1  0.4717880000000  0.5865510000000  0.5155930000000 1.0
C      1  0.5315290000000  0.4165670000000  0.5517340000000 1.0
C      1  0.5254380000000  0.4850090000000  0.4192520000000 1.0
C      1  0.5276880000000  0.5886380000000  0.5175300000000 1.0
C      1  0.5276080000000  0.4660410000000  0.5481200000000 1.0
C      1  0.5254080000000  0.4838440000000  0.4687900000000 1.0
C      1  0.5302240000000  0.5540920000000  0.4827740000000 1.0
C      1  0.4729370000000  0.4640640000000  0.5492660000000 1.0
C      1  0.4725760000000  0.4738860000000  0.4737720000000 1.0
C      1  0.4731690000000  0.5589450000000  0.4753320000000 1.0
C      1  0.4840710000000  0.4761470000000  0.5241570000000 1.0
C      1  0.4809310000000  0.5001400000000  0.4863570000000 1.0
C      1  0.4717470000000  0.5026400000000  0.5146250000000 1.0
C      1  0.5149800000000  0.4758460000000  0.5221650000000 1.0
C      1  0.5111910000000  0.5060440000000  0.4843450000000 1.0
C      1  0.5236210000000  0.5037320000000  0.5130060000000 1.0
C      1  0.5311770000000  0.5280020000000  0.4425640000000 1.0
C      1  0.5283700000000  0.5444410000000  0.5405330000000 1.0
C      1  0.5280170000000  0.4308630000000  0.5049500000000 1.0
C      1  0.4767220000000  0.5308430000000  0.4363960000000 1.0
C      1  0.4684740000000  0.5452050000000  0.5407230000000 1.0
C      1  0.4728770000000  0.4270800000000  0.4977910000000 1.0
C      1  0.5125480000000  0.5231350000000  0.5320750000000 1.0
C      1  0.5145820000000  0.4548310000000  0.5000970000000 1.0
C      1  0.5157340000000  0.5338520000000  0.4662210000000 1.0
C      1  0.4840810000000  0.5263700000000  0.5272480000000 1.0
C      1  0.4850280000000  0.4525320000000  0.4932680000000 1.0
C      1  0.4895060000000  0.5446590000000  0.4566510000000 1.0
C      1  0.5158700000000  0.4399840000000  0.5556720000000 1.0
C      1  0.5120860000000  0.4783760000000  0.4434000000000 1.0
C      1  0.5152960000000  0.5750430000000  0.4962930000000 1.0
C      1  0.4864330000000  0.4385710000000  0.5546690000000 1.0
C      1  0.4836630000000  0.4732270000000  0.4457490000000 1.0
C      1  0.4864420000000  0.5761260000000  0.4942360000000 1.0
C      1  0.4234650000000  0.5670380000000  0.4823920000000 1.0
C      1  0.4283140000000  0.4854690000000  0.5581430000000 1.0
C      1  0.4248310000000  0.4899390000000  0.4829150000000 1.0
C      1  0.5787440000000  0.5639270000000  0.4945200000000 1.0
C      1  0.5707020000000  0.4913330000000  0.5535850000000 1.0
C      1  0.5723840000000  0.4790600000000  0.4871680000000 1.0
END
