TITL C-9268-6400-227 -5.24159115437082e-07 125000 -368.118779040867 0 0 60 (C1) n - 1
REM
REM in /home/bkarasulu/CARBON/AIRSS/Generating-Clusters/EDIP-Nigel-Params/Higher-Symm/Box-15A/Only-C60/SD-CG/HFTN-CG
REM
REM
REM
REM
REM
REM ./C.cell (414f73aa93bd7a1190c7fd0f31ff2f98)
REM
REM compiler GCC version 9.2.1 20190827 (Red Hat 9.2.1-1)
REM options -cpp -mtune=generic -march=x86-64 -g -O0 -fpre-include=/usr/include/finclude/math-vector-fortran.h
REM seed -445048420 -1908589560 552310775 -524216850 489390544 -1877228844 -1814321437 -1157646475 903999302 250325666 -1292907954 -1578210209 1040786370 1372909077 1526921073 -819937154 -472636997 603653981 2084052463 1393786939 1390680249 1911131089 1879869039 -2082025776 -773132512 -945954276 -715163682 426196350 -164989702 1551496736 791525003 259311118 953171044
REM
CELL 1.54180   50.00000   50.00000   50.00000   90.00000   90.00000   90.00000
LATT -1
SFAC C  
C      1  0.4279670000000  0.5252290000000  0.4832800000000 1.0
C      1  0.5069390000000  0.5731820000000  0.4698360000000 1.0
C      1  0.4881240000000  0.5212420000000  0.4908760000000 1.0
C      1  0.4817810000000  0.5391850000000  0.5540590000000 1.0
C      1  0.4451910000000  0.4588110000000  0.5191750000000 1.0
C      1  0.4957590000000  0.4777940000000  0.4949680000000 1.0
C      1  0.5134130000000  0.4487790000000  0.5312200000000 1.0
C      1  0.5106060000000  0.5330340000000  0.5525810000000 1.0
C      1  0.4649800000000  0.4383570000000  0.5222420000000 1.0
C      1  0.5297090000000  0.4323670000000  0.5100310000000 1.0
C      1  0.5310640000000  0.5615210000000  0.4687940000000 1.0
C      1  0.5047460000000  0.4426350000000  0.4652100000000 1.0
C      1  0.5188230000000  0.4851540000000  0.4777650000000 1.0
C      1  0.5287720000000  0.5052140000000  0.4293240000000 1.0
C      1  0.4939440000000  0.4936090000000  0.5401290000000 1.0
C      1  0.5406930000000  0.5415880000000  0.5111930000000 1.0
C      1  0.5611760000000  0.5253060000000  0.4681260000000 1.0
C      1  0.5381560000000  0.5366940000000  0.4812950000000 1.0
C      1  0.4332710000000  0.5305890000000  0.4553290000000 1.0
C      1  0.4860460000000  0.4808010000000  0.4393760000000 1.0
C      1  0.4795410000000  0.5165890000000  0.5236720000000 1.0
C      1  0.4862500000000  0.5652560000000  0.4868390000000 1.0
C      1  0.4395280000000  0.4710870000000  0.4919770000000 1.0
C      1  0.4571480000000  0.4564390000000  0.4718080000000 1.0
C      1  0.4386400000000  0.5509910000000  0.4959460000000 1.0
C      1  0.4729690000000  0.4774150000000  0.5550020000000 1.0
C      1  0.5151540000000  0.5428430000000  0.5248800000000 1.0
C      1  0.5868920000000  0.4986840000000  0.5017720000000 1.0
C      1  0.5542960000000  0.4482400000000  0.5120910000000 1.0
C      1  0.4837410000000  0.5098290000000  0.4421270000000 1.0
C      1  0.5326630000000  0.4559800000000  0.5542440000000 1.0
C      1  0.5409180000000  0.4904810000000  0.5156580000000 1.0
C      1  0.4680200000000  0.5192880000000  0.4662680000000 1.0
C      1  0.4920260000000  0.5581910000000  0.5147790000000 1.0
C      1  0.4529990000000  0.5514120000000  0.4528720000000 1.0
C      1  0.5577780000000  0.4573420000000  0.5399690000000 1.0
C      1  0.5629240000000  0.5327820000000  0.5258600000000 1.0
C      1  0.4326480000000  0.5269450000000  0.5371740000000 1.0
C      1  0.5738180000000  0.4830400000000  0.4820780000000 1.0
C      1  0.5147760000000  0.5162560000000  0.4750230000000 1.0
C      1  0.5487150000000  0.4720360000000  0.4937740000000 1.0
C      1  0.4485560000000  0.4806190000000  0.5388410000000 1.0
C      1  0.5122960000000  0.4695840000000  0.4517060000000 1.0
C      1  0.5145220000000  0.5034010000000  0.5591650000000 1.0
C      1  0.5375730000000  0.4846970000000  0.5592240000000 1.0
C      1  0.4421270000000  0.5014320000000  0.4952810000000 1.0
C      1  0.4431500000000  0.5505560000000  0.5253720000000 1.0
C      1  0.5450680000000  0.4866940000000  0.4419400000000 1.0
C      1  0.4581000000000  0.5649780000000  0.4778770000000 1.0
C      1  0.4840250000000  0.4519090000000  0.4851330000000 1.0
C      1  0.4866330000000  0.4378060000000  0.5404140000000 1.0
C      1  0.4618640000000  0.4685960000000  0.4468240000000 1.0
C      1  0.5659060000000  0.5059910000000  0.5192880000000 1.0
C      1  0.5106480000000  0.5196470000000  0.4452160000000 1.0
C      1  0.4495800000000  0.5066780000000  0.5240190000000 1.0
C      1  0.5654250000000  0.4988890000000  0.4590110000000 1.0
C      1  0.5098580000000  0.4772420000000  0.5208310000000 1.0
C      1  0.4706010000000  0.5576910000000  0.5346830000000 1.0
C      1  0.4788040000000  0.4510540000000  0.5636900000000 1.0
C      1  0.5226590000000  0.4303200000000  0.4828640000000 1.0
END
