TITL C-9259-5960-304 -8.41690987654128e-05 125000 -341.789276896546 0 0 60 (C1) n - 1
REM
REM in /home/bkarasulu/CARBON/AIRSS/Generating-Clusters/EDIP-Nigel-Params/Higher-Symm/Box-15A/Only-C60/SD-CG/HFTN-CG
REM
REM
REM
REM
REM
REM ./C.cell (414f73aa93bd7a1190c7fd0f31ff2f98)
REM
REM compiler GCC version 9.2.1 20190827 (Red Hat 9.2.1-1)
REM options -cpp -mtune=generic -march=x86-64 -g -O0 -fpre-include=/usr/include/finclude/math-vector-fortran.h
REM seed -1870546553 536780246 489812444 611380135 1737599946 446151227 -436833868 -1700064157 -2000825022 -1562468351 60424611 216908548 1748820203 -305183678 -316860318 810339503 1707236663 283412448 1352373862 5837228 -826239448 1887132113 1094063349 -19812139 -531094911 -1136728505 -527644959 -948915054 -1221072746 1306489439 52402642 -43401556 -1082789574
REM
CELL 1.54180   50.00000   50.00000   50.00000   90.00000   90.00000   90.00000
LATT -1
SFAC C  
C      1  0.5203270000000  0.4721580000000  0.4775300000000 1.0
C      1  0.4782380000000  0.4748560000000  0.5214590000000 1.0
C      1  0.5256470000000  0.5221720000000  0.4815080000000 1.0
C      1  0.4807360000000  0.5216520000000  0.5213630000000 1.0
C      1  0.4518250000000  0.5451410000000  0.4570920000000 1.0
C      1  0.5388720000000  0.5434220000000  0.5371040000000 1.0
C      1  0.4525970000000  0.4612150000000  0.4620260000000 1.0
C      1  0.5469960000000  0.4595790000000  0.5390410000000 1.0
C      1  0.5109120000000  0.4338040000000  0.5083670000000 1.0
C      1  0.4902450000000  0.4348940000000  0.4911050000000 1.0
C      1  0.5064540000000  0.5720500000000  0.5080150000000 1.0
C      1  0.4865330000000  0.5698300000000  0.4902860000000 1.0
C      1  0.4965260000000  0.5158390000000  0.4715650000000 1.0
C      1  0.5086280000000  0.5120520000000  0.5315100000000 1.0
C      1  0.4916290000000  0.4803590000000  0.4695460000000 1.0
C      1  0.5078040000000  0.4785460000000  0.5296590000000 1.0
C      1  0.4588720000000  0.4850380000000  0.5536380000000 1.0
C      1  0.5396450000000  0.4844630000000  0.4536090000000 1.0
C      1  0.4559610000000  0.5087070000000  0.5382030000000 1.0
C      1  0.5498800000000  0.5095260000000  0.4631120000000 1.0
C      1  0.5557200000000  0.4456290000000  0.4270350000000 1.0
C      1  0.4455110000000  0.4425660000000  0.5707890000000 1.0
C      1  0.5791130000000  0.5478350000000  0.4492670000000 1.0
C      1  0.4256470000000  0.5465270000000  0.5494170000000 1.0
C      1  0.5591590000000  0.5212960000000  0.5692890000000 1.0
C      1  0.4468250000000  0.5156330000000  0.4187260000000 1.0
C      1  0.5606390000000  0.4915700000000  0.5704230000000 1.0
C      1  0.4394900000000  0.4900370000000  0.4282020000000 1.0
C      1  0.4876790000000  0.4870330000000  0.4323830000000 1.0
C      1  0.5114410000000  0.4863500000000  0.5663050000000 1.0
C      1  0.4892260000000  0.5149680000000  0.4419150000000 1.0
C      1  0.5095730000000  0.5147340000000  0.5697850000000 1.0
C      1  0.5305540000000  0.4417300000000  0.5250600000000 1.0
C      1  0.4692150000000  0.4442110000000  0.4769090000000 1.0
C      1  0.5255460000000  0.5648130000000  0.5253180000000 1.0
C      1  0.4672000000000  0.5609050000000  0.4741300000000 1.0
C      1  0.5818250000000  0.5145690000000  0.5378820000000 1.0
C      1  0.4129070000000  0.5144690000000  0.4596180000000 1.0
C      1  0.5800790000000  0.4875760000000  0.5492450000000 1.0
C      1  0.4199560000000  0.4889450000000  0.4501410000000 1.0
C      1  0.5677680000000  0.5395790000000  0.5366770000000 1.0
C      1  0.4249030000000  0.5386560000000  0.4613640000000 1.0
C      1  0.5744050000000  0.4639850000000  0.5339110000000 1.0
C      1  0.4251870000000  0.4666280000000  0.4671050000000 1.0
C      1  0.4652420000000  0.4487730000000  0.5281120000000 1.0
C      1  0.5322240000000  0.4445190000000  0.4696360000000 1.0
C      1  0.4711980000000  0.5491360000000  0.5324090000000 1.0
C      1  0.5361080000000  0.5499150000000  0.4721800000000 1.0
C      1  0.5516300000000  0.4565220000000  0.4507680000000 1.0
C      1  0.4495890000000  0.4581630000000  0.5498090000000 1.0
C      1  0.5547980000000  0.5379940000000  0.4525360000000 1.0
C      1  0.4501780000000  0.5366820000000  0.5493010000000 1.0
C      1  0.5378670000000  0.4749860000000  0.5620290000000 1.0
C      1  0.4620930000000  0.4731750000000  0.4368340000000 1.0
C      1  0.5315150000000  0.5325430000000  0.5634680000000 1.0
C      1  0.4645150000000  0.5301020000000  0.4354120000000 1.0
C      1  0.5299790000000  0.5107370000000  0.5087370000000 1.0
C      1  0.4750970000000  0.5143820000000  0.4929930000000 1.0
C      1  0.5278620000000  0.4814380000000  0.5056120000000 1.0
C      1  0.4722100000000  0.4853810000000  0.4935300000000 1.0
END
