TITL C-9268-6400-7 -6.1478983677732e-06 125000 -350.225302203129 0 0 60 (C2h) n - 1
REM
REM in /home/bkarasulu/CARBON/AIRSS/Generating-Clusters/EDIP-Nigel-Params/Higher-Symm/Box-15A/Only-C60/SD-CG/HFTN-CG
REM
REM
REM
REM
REM
REM ./C.cell (414f73aa93bd7a1190c7fd0f31ff2f98)
REM
REM compiler GCC version 9.2.1 20190827 (Red Hat 9.2.1-1)
REM options -cpp -mtune=generic -march=x86-64 -g -O0 -fpre-include=/usr/include/finclude/math-vector-fortran.h
REM seed 1930049789 -405365177 -1300960206 -1232345822 1623369319 -1140171322 86326095 1569955773 -2141496583 -155022940 -2072645347 1397731216 -36291974 1645790673 -1734733257 2061599131 -1631026763 -1490826925 -363818765 -601223097 -579777459 -1957631408 -976705822 -614006083 -2027021613 1489566311 -2065318413 -1451593436 -1706859165 225182293 -97004274 -452207217 -2003657127
REM
CELL 1.54180   50.00000   50.00000   50.00000   90.00000   90.00000   90.00000
LATT -1
SFAC C  
C      1  0.5366900000000  0.4803940000000  0.4695650000000 1.0
C      1  0.5358220000000  0.5170890000000  0.5298850000000 1.0
C      1  0.4641780000000  0.4829110000000  0.4701150000000 1.0
C      1  0.4633100000000  0.5196060000000  0.5304350000000 1.0
C      1  0.5358410000000  0.4829590000000  0.5298900000000 1.0
C      1  0.5366680000000  0.5196380000000  0.4695590000000 1.0
C      1  0.4633320000000  0.4803620000000  0.5304410000000 1.0
C      1  0.4641590000000  0.5170410000000  0.4701100000000 1.0
C      1  0.5258860000000  0.5610330000000  0.5130380000000 1.0
C      1  0.5271940000000  0.4365540000000  0.4818940000000 1.0
C      1  0.4728060000000  0.5634460000000  0.5181060000000 1.0
C      1  0.4741140000000  0.4389670000000  0.4869620000000 1.0
C      1  0.5271230000000  0.5634710000000  0.4818760000000 1.0
C      1  0.5259550000000  0.4389990000000  0.5130550000000 1.0
C      1  0.4740450000000  0.5610010000000  0.4869450000000 1.0
C      1  0.4728770000000  0.4365290000000  0.5181240000000 1.0
C      1  0.4878840000000  0.4165820000000  0.4751990000000 1.0
C      1  0.4855860000000  0.5877830000000  0.5276160000000 1.0
C      1  0.5144140000000  0.4122170000000  0.4723840000000 1.0
C      1  0.5121160000000  0.5834180000000  0.5248010000000 1.0
C      1  0.4856840000000  0.4122090000000  0.5276420000000 1.0
C      1  0.4877900000000  0.5833970000000  0.4751740000000 1.0
C      1  0.5122100000000  0.4166030000000  0.5248260000000 1.0
C      1  0.5143160000000  0.5877910000000  0.4723580000000 1.0
C      1  0.5143210000000  0.4607690000000  0.4695800000000 1.0
C      1  0.5126730000000  0.5347030000000  0.5205300000000 1.0
C      1  0.4873270000000  0.4652970000000  0.4794700000000 1.0
C      1  0.4856790000000  0.5392310000000  0.5304200000000 1.0
C      1  0.5127120000000  0.4653180000000  0.5205400000000 1.0
C      1  0.5142770000000  0.5392380000000  0.4695690000000 1.0
C      1  0.4857230000000  0.4607620000000  0.5304310000000 1.0
C      1  0.4872880000000  0.5346820000000  0.4794600000000 1.0
C      1  0.4405530000000  0.4695670000000  0.4848360000000 1.0
C      1  0.4400140000000  0.5322150000000  0.5157580000000 1.0
C      1  0.5599860000000  0.4677850000000  0.4842420000000 1.0
C      1  0.5594470000000  0.5304330000000  0.5151640000000 1.0
C      1  0.4400500000000  0.4677220000000  0.5157680000000 1.0
C      1  0.4405190000000  0.5303630000000  0.4848270000000 1.0
C      1  0.5594810000000  0.4696370000000  0.5151730000000 1.0
C      1  0.5599500000000  0.5322780000000  0.4842320000000 1.0
C      1  0.5577100000000  0.5619050000000  0.4774520000000 1.0
C      1  0.5558100000000  0.4402860000000  0.5212810000000 1.0
C      1  0.4441900000000  0.5597140000000  0.4787190000000 1.0
C      1  0.4422900000000  0.4380950000000  0.5225480000000 1.0
C      1  0.5557430000000  0.5597820000000  0.5212630000000 1.0
C      1  0.5577800000000  0.4381530000000  0.4774700000000 1.0
C      1  0.4422200000000  0.5618470000000  0.5225300000000 1.0
C      1  0.4442570000000  0.4402180000000  0.4787370000000 1.0
C      1  0.5394290000000  0.4772790000000  0.5563350000000 1.0
C      1  0.5444380000000  0.5136470000000  0.4420400000000 1.0
C      1  0.4555620000000  0.4863530000000  0.5579600000000 1.0
C      1  0.4605710000000  0.5227210000000  0.4436650000000 1.0
C      1  0.5444530000000  0.4863860000000  0.4420440000000 1.0
C      1  0.5394040000000  0.5227820000000  0.5563290000000 1.0
C      1  0.4605960000000  0.4772180000000  0.4436710000000 1.0
C      1  0.4555470000000  0.5136140000000  0.5579560000000 1.0
C      1  0.4300030000000  0.5736200000000  0.4994460000000 1.0
C      1  0.5699970000000  0.4263800000000  0.5005540000000 1.0
C      1  0.4300860000000  0.4263010000000  0.4994670000000 1.0
C      1  0.5699140000000  0.5736990000000  0.5005330000000 1.0
END
