TITL C-9270-2362-332 1.80271170957643e-05 125000 -375.409844354141 0 0 60 (C1) n - 1
REM
REM in /home/bkarasulu/CARBON/AIRSS/Generating-Clusters/EDIP-Nigel-Params/Higher-Symm/Box-15A/Only-C60/SD-CG/HFTN-CG
REM
REM
REM
REM
REM
REM ./C.cell (414f73aa93bd7a1190c7fd0f31ff2f98)
REM
REM compiler GCC version 9.2.1 20190827 (Red Hat 9.2.1-1)
REM options -cpp -mtune=generic -march=x86-64 -g -O0 -fpre-include=/usr/include/finclude/math-vector-fortran.h
REM seed -938652769 143432898 -396803636 805022122 783793301 -950699622 -1400436322 353156579 -622212580 1810413782 1285403599 -291052960 1542657240 183223560 580378255 -1089799736 2139480801 -752571361 779888212 1947851037 1366013401 -1814825631 -2012575180 338104193 930165091 -2066565599 1513241854 965144035 1629961479 -1737211042 1477990326 432510486 1141792143
REM
CELL 1.54180   50.00000   50.00000   50.00000   90.00000   90.00000   90.00000
LATT -1
SFAC C  
C      1  0.4550540000000  0.5608380000000  0.5217210000000 1.0
C      1  0.5564170000000  0.5255880000000  0.4514660000000 1.0
C      1  0.5330410000000  0.4602320000000  0.5585430000000 1.0
C      1  0.5233350000000  0.5594510000000  0.4492670000000 1.0
C      1  0.5262180000000  0.4360590000000  0.5471540000000 1.0
C      1  0.4562590000000  0.4367940000000  0.4802260000000 1.0
C      1  0.4463680000000  0.5401140000000  0.5378780000000 1.0
C      1  0.4465530000000  0.4590130000000  0.4667890000000 1.0
C      1  0.5558540000000  0.4731670000000  0.5494070000000 1.0
C      1  0.4572550000000  0.4640020000000  0.4418910000000 1.0
C      1  0.4590740000000  0.5371480000000  0.5622250000000 1.0
C      1  0.5342640000000  0.5359650000000  0.4386090000000 1.0
C      1  0.4725950000000  0.4424460000000  0.5362530000000 1.0
C      1  0.5513380000000  0.4665040000000  0.4562920000000 1.0
C      1  0.5336960000000  0.5405090000000  0.5677350000000 1.0
C      1  0.5440770000000  0.4405220000000  0.4623310000000 1.0
C      1  0.5449340000000  0.5633330000000  0.5381570000000 1.0
C      1  0.4688820000000  0.5491650000000  0.4622380000000 1.0
C      1  0.4413040000000  0.4767410000000  0.5503040000000 1.0
C      1  0.4595500000000  0.5209520000000  0.4599480000000 1.0
C      1  0.5548190000000  0.5368340000000  0.5453350000000 1.0
C      1  0.4827570000000  0.5522380000000  0.4375780000000 1.0
C      1  0.4654190000000  0.4631620000000  0.5532160000000 1.0
C      1  0.5419640000000  0.4772330000000  0.4325360000000 1.0
C      1  0.5124860000000  0.4790550000000  0.5646350000000 1.0
C      1  0.4990160000000  0.5761690000000  0.5267330000000 1.0
C      1  0.5642510000000  0.5260080000000  0.4988190000000 1.0
C      1  0.4739830000000  0.4821320000000  0.4297200000000 1.0
C      1  0.4798740000000  0.5250250000000  0.5757300000000 1.0
C      1  0.5146520000000  0.5168940000000  0.4304930000000 1.0
C      1  0.5126790000000  0.5686540000000  0.4734940000000 1.0
C      1  0.5161040000000  0.4260050000000  0.5236060000000 1.0
C      1  0.5009210000000  0.4221060000000  0.4712990000000 1.0
C      1  0.4364230000000  0.5180460000000  0.5224480000000 1.0
C      1  0.4367050000000  0.4810550000000  0.4826420000000 1.0
C      1  0.5648520000000  0.4746930000000  0.5032300000000 1.0
C      1  0.5222940000000  0.5038620000000  0.5740930000000 1.0
C      1  0.4894440000000  0.4333610000000  0.5163880000000 1.0
C      1  0.5586360000000  0.4840810000000  0.4778360000000 1.0
C      1  0.4678750000000  0.5100840000000  0.4340650000000 1.0
C      1  0.4742860000000  0.4986750000000  0.5832130000000 1.0
C      1  0.5203140000000  0.4902980000000  0.4211730000000 1.0
C      1  0.5283490000000  0.4223450000000  0.4760670000000 1.0
C      1  0.5248170000000  0.5694150000000  0.5189180000000 1.0
C      1  0.4869210000000  0.5590240000000  0.4832790000000 1.0
C      1  0.4235120000000  0.4758110000000  0.5068150000000 1.0
C      1  0.4289730000000  0.5250470000000  0.4964890000000 1.0
C      1  0.5565760000000  0.5165580000000  0.5239350000000 1.0
C      1  0.5335780000000  0.4192430000000  0.5031310000000 1.0
C      1  0.4292120000000  0.4908430000000  0.5296720000000 1.0
C      1  0.4887130000000  0.5279540000000  0.4243020000000 1.0
C      1  0.4784900000000  0.5688710000000  0.5093850000000 1.0
C      1  0.5630540000000  0.5121970000000  0.4747340000000 1.0
C      1  0.5634140000000  0.4884380000000  0.5274320000000 1.0
C      1  0.4378430000000  0.5093130000000  0.4752680000000 1.0
C      1  0.4971800000000  0.4756580000000  0.4153230000000 1.0
C      1  0.4843910000000  0.4754200000000  0.5711780000000 1.0
C      1  0.5069720000000  0.5262200000000  0.5650210000000 1.0
C      1  0.4806840000000  0.4276240000000  0.4896070000000 1.0
C      1  0.5315030000000  0.5758070000000  0.4927280000000 1.0
END
