TITL C-9256-7861-120 -5.46785932097078e-05 125000 -358.485435558992 0 0 60 (C2) n - 1
REM
REM in /home/bkarasulu/CARBON/AIRSS/Generating-Clusters/EDIP-Nigel-Params/Higher-Symm/Box-15A/Only-C60/SD-CG/HFTN-CG
REM
REM
REM
REM
REM
REM ./C.cell (414f73aa93bd7a1190c7fd0f31ff2f98)
REM
REM compiler GCC version 9.2.1 20190827 (Red Hat 9.2.1-1)
REM options -cpp -mtune=generic -march=x86-64 -g -O0 -fpre-include=/usr/include/finclude/math-vector-fortran.h
REM seed 1104787856 2130016682 -1009032438 -529544945 1283900800 -896366262 -231602265 -1240491107 486977560 -1830917280 -522074509 1239709516 1126885321 -1397734044 -1019125060 -806341477 -664527249 -1824254812 -435933360 1759713663 345384844 -763705390 -1499431763 -689989037 545501505 1144983910 -315434757 984735297 -1393536776 1043273874 748039926 1870782929 -512164088
REM
CELL 1.54180   50.00000   50.00000   50.00000   90.00000   90.00000   90.00000
LATT -1
SFAC C  
C      1  0.5090130000000  0.4676260000000  0.4369510000000 1.0
C      1  0.4909910000000  0.5323680000000  0.4369470000000 1.0
C      1  0.4586310000000  0.5034980000000  0.4966820000000 1.0
C      1  0.5413700000000  0.4965010000000  0.4966850000000 1.0
C      1  0.4912750000000  0.5632300000000  0.4725400000000 1.0
C      1  0.5087270000000  0.4367680000000  0.4725470000000 1.0
C      1  0.4343050000000  0.5347380000000  0.5227090000000 1.0
C      1  0.5656940000000  0.4652640000000  0.5227170000000 1.0
C      1  0.4472090000000  0.4432780000000  0.4932750000000 1.0
C      1  0.5527920000000  0.5567220000000  0.4932720000000 1.0
C      1  0.4981840000000  0.5765420000000  0.5199520000000 1.0
C      1  0.5018150000000  0.4234600000000  0.5199600000000 1.0
C      1  0.4824900000000  0.5389830000000  0.5293560000000 1.0
C      1  0.5175080000000  0.4610200000000  0.5293610000000 1.0
C      1  0.4690580000000  0.4754470000000  0.4906540000000 1.0
C      1  0.5309420000000  0.5245520000000  0.4906530000000 1.0
C      1  0.5223680000000  0.5205690000000  0.5587210000000 1.0
C      1  0.4776280000000  0.4794370000000  0.5587220000000 1.0
C      1  0.5633140000000  0.5114210000000  0.5380070000000 1.0
C      1  0.4366840000000  0.4885830000000  0.5380040000000 1.0
C      1  0.5355980000000  0.5086820000000  0.4499760000000 1.0
C      1  0.4644050000000  0.4913130000000  0.4499750000000 1.0
C      1  0.4538400000000  0.4935080000000  0.5593680000000 1.0
C      1  0.5461570000000  0.5064980000000  0.5593700000000 1.0
C      1  0.4510600000000  0.5355900000000  0.4679220000000 1.0
C      1  0.5489420000000  0.4644060000000  0.4679290000000 1.0
C      1  0.4855740000000  0.5139210000000  0.5096850000000 1.0
C      1  0.5144250000000  0.4860800000000  0.5096870000000 1.0
C      1  0.4620430000000  0.4568290000000  0.5122990000000 1.0
C      1  0.5379560000000  0.5431720000000  0.5122970000000 1.0
C      1  0.5193440000000  0.5408000000000  0.4404870000000 1.0
C      1  0.4806600000000  0.4591940000000  0.4404900000000 1.0
C      1  0.4558780000000  0.5392990000000  0.5431380000000 1.0
C      1  0.5441190000000  0.4607060000000  0.5431450000000 1.0
C      1  0.4552320000000  0.5209020000000  0.5644020000000 1.0
C      1  0.5447640000000  0.4791040000000  0.5644070000000 1.0
C      1  0.4882170000000  0.5090360000000  0.4561860000000 1.0
C      1  0.5117850000000  0.4909590000000  0.4561880000000 1.0
C      1  0.5179370000000  0.5630840000000  0.4596520000000 1.0
C      1  0.4820650000000  0.4369110000000  0.4596580000000 1.0
C      1  0.4441080000000  0.5080970000000  0.4616530000000 1.0
C      1  0.5558940000000  0.4918990000000  0.4616570000000 1.0
C      1  0.5628830000000  0.4498590000000  0.4886030000000 1.0
C      1  0.4371170000000  0.5501400000000  0.4885940000000 1.0
C      1  0.5407980000000  0.5709290000000  0.4733250000000 1.0
C      1  0.4592040000000  0.4290680000000  0.4733300000000 1.0
C      1  0.4993320000000  0.4778710000000  0.4860300000000 1.0
C      1  0.5006690000000  0.5221270000000  0.4860270000000 1.0
C      1  0.5035960000000  0.5398500000000  0.5521000000000 1.0
C      1  0.4964010000000  0.4601550000000  0.5521040000000 1.0
C      1  0.4806420000000  0.5708810000000  0.4991430000000 1.0
C      1  0.5193590000000  0.4291190000000  0.4991520000000 1.0
C      1  0.4537200000000  0.5642880000000  0.5065710000000 1.0
C      1  0.5462790000000  0.4357130000000  0.5065800000000 1.0
C      1  0.4356600000000  0.5055460000000  0.5156840000000 1.0
C      1  0.5643390000000  0.4944560000000  0.5156880000000 1.0
C      1  0.5113140000000  0.5647160000000  0.5410430000000 1.0
C      1  0.4886830000000  0.4352880000000  0.5410500000000 1.0
C      1  0.5272080000000  0.4495620000000  0.4538470000000 1.0
C      1  0.4727950000000  0.5504330000000  0.4538400000000 1.0
END
