TITL C-9265-7156-95 3.48609186780745e-05 125000 -359.483627179579 0 0 60 (C1) n - 1
REM
REM in /home/bkarasulu/CARBON/AIRSS/Generating-Clusters/EDIP-Nigel-Params/Higher-Symm/Box-15A/Only-C60/SD-CG/HFTN-CG
REM
REM
REM
REM
REM
REM ./C.cell (414f73aa93bd7a1190c7fd0f31ff2f98)
REM
REM compiler GCC version 9.2.1 20190827 (Red Hat 9.2.1-1)
REM options -cpp -mtune=generic -march=x86-64 -g -O0 -fpre-include=/usr/include/finclude/math-vector-fortran.h
REM seed 1810103454 2017313844 -186654742 2019425960 -798726033 1757641552 -166349216 -1599476476 -484054347 612141777 -1751732938 -1415115038 -1073532212 1702559423 -876883795 1781008126 1665074647 -820192493 -582323275 -925926687 -541882 2034847433 -1013314640 -1573286075 -1136801393 -2102456631 -287951778 -1696092063 -403072807 1071781267 -1116432321 -103607282 1489502495
REM
CELL 1.54180   50.00000   50.00000   50.00000   90.00000   90.00000   90.00000
LATT -1
SFAC C  
C      1  0.5237470000000  0.5414050000000  0.5716720000000 1.0
C      1  0.5399820000000  0.5706550000000  0.5245230000000 1.0
C      1  0.5695200000000  0.5248690000000  0.5399680000000 1.0
C      1  0.4764180000000  0.5419830000000  0.4297210000000 1.0
C      1  0.4769130000000  0.4546610000000  0.5705780000000 1.0
C      1  0.5235490000000  0.4592830000000  0.4292420000000 1.0
C      1  0.4584790000000  0.5673890000000  0.4744290000000 1.0
C      1  0.4545480000000  0.4310720000000  0.5233800000000 1.0
C      1  0.5417720000000  0.4290310000000  0.4768310000000 1.0
C      1  0.4265610000000  0.5222940000000  0.4531380000000 1.0
C      1  0.4294160000000  0.4772720000000  0.5477300000000 1.0
C      1  0.5695210000000  0.4753250000000  0.4598590000000 1.0
C      1  0.5703400000000  0.5477750000000  0.5229010000000 1.0
C      1  0.5226480000000  0.5704860000000  0.5471690000000 1.0
C      1  0.5456270000000  0.5231940000000  0.5695870000000 1.0
C      1  0.4315410000000  0.5403630000000  0.4747440000000 1.0
C      1  0.5714710000000  0.4528100000000  0.4772770000000 1.0
C      1  0.4300060000000  0.4601180000000  0.5249100000000 1.0
C      1  0.4768730000000  0.5722630000000  0.4530660000000 1.0
C      1  0.5235330000000  0.4312100000000  0.4550760000000 1.0
C      1  0.4763220000000  0.4297000000000  0.5417560000000 1.0
C      1  0.4560780000000  0.5223820000000  0.4289450000000 1.0
C      1  0.5459150000000  0.4770600000000  0.4297960000000 1.0
C      1  0.4586020000000  0.4764550000000  0.5721230000000 1.0
C      1  0.5417080000000  0.4961630000000  0.5587820000000 1.0
C      1  0.4948980000000  0.5611590000000  0.5446260000000 1.0
C      1  0.5608900000000  0.5452040000000  0.4950920000000 1.0
C      1  0.4599670000000  0.4961860000000  0.4407610000000 1.0
C      1  0.4631950000000  0.5027370000000  0.5603510000000 1.0
C      1  0.5435250000000  0.5046730000000  0.4395530000000 1.0
C      1  0.5051030000000  0.5636100000000  0.4553610000000 1.0
C      1  0.5024330000000  0.4417380000000  0.5369020000000 1.0
C      1  0.4961220000000  0.4408100000000  0.4585660000000 1.0
C      1  0.4448000000000  0.5340030000000  0.4999860000000 1.0
C      1  0.4430020000000  0.4664020000000  0.4994990000000 1.0
C      1  0.5631860000000  0.4549940000000  0.5054630000000 1.0
C      1  0.5560970000000  0.4996150000000  0.5337310000000 1.0
C      1  0.5347080000000  0.5577140000000  0.4988550000000 1.0
C      1  0.4974120000000  0.5366140000000  0.5600250000000 1.0
C      1  0.4345370000000  0.4938530000000  0.4548860000000 1.0
C      1  0.5567220000000  0.5010960000000  0.4652360000000 1.0
C      1  0.4383510000000  0.5052210000000  0.5453750000000 1.0
C      1  0.4649080000000  0.5547060000000  0.4999460000000 1.0
C      1  0.5377110000000  0.4409990000000  0.5031370000000 1.0
C      1  0.4582490000000  0.4418300000000  0.4962720000000 1.0
C      1  0.5019360000000  0.5373810000000  0.4428960000000 1.0
C      1  0.4974450000000  0.4642260000000  0.4415810000000 1.0
C      1  0.5044250000000  0.4579480000000  0.5608700000000 1.0
C      1  0.5238000000000  0.4296410000000  0.5241600000000 1.0
C      1  0.5222440000000  0.5213810000000  0.4335440000000 1.0
C      1  0.4819100000000  0.5628530000000  0.5201880000000 1.0
C      1  0.4763460000000  0.5237890000000  0.5725850000000 1.0
C      1  0.5180890000000  0.4820380000000  0.5624000000000 1.0
C      1  0.5657430000000  0.5216810000000  0.4811470000000 1.0
C      1  0.5668120000000  0.4788560000000  0.5191520000000 1.0
C      1  0.4361330000000  0.5183760000000  0.5210610000000 1.0
C      1  0.4822450000000  0.4392810000000  0.4825360000000 1.0
C      1  0.5195920000000  0.5684320000000  0.4785190000000 1.0
C      1  0.4311570000000  0.4799200000000  0.4786430000000 1.0
C      1  0.4752140000000  0.4758170000000  0.4298930000000 1.0
END
