TITL C-9257-5531-176 1.05397850945504e-05 125000 -359.213698840025 0 0 60 (C2) n - 1
REM
REM in /home/bkarasulu/CARBON/AIRSS/Generating-Clusters/EDIP-Nigel-Params/Higher-Symm/Box-15A/Only-C60/SD-CG/HFTN-CG
REM
REM
REM
REM
REM
REM ./C.cell (414f73aa93bd7a1190c7fd0f31ff2f98)
REM
REM compiler GCC version 9.2.1 20190827 (Red Hat 9.2.1-1)
REM options -cpp -mtune=generic -march=x86-64 -g -O0 -fpre-include=/usr/include/finclude/math-vector-fortran.h
REM seed -1871333034 152350648 -1467139164 -1715568380 35563904 -1785790479 -33412940 -691497624 1270353921 -1949335366 -268649776 1534566512 -819728302 1426130003 987245756 85974991 505052857 -1960696013 1479392564 29064469 -155206798 -1997722900 -971465820 9977178 2128794946 -884018349 -1310348414 -1996391451 995175303 -327068537 -277617953 -166340505 -11003887
REM
CELL 1.54180   50.00000   50.00000   50.00000   90.00000   90.00000   90.00000
LATT -1
SFAC C  
C      1  0.5638710000000  0.5715510000000  0.4646090000000 1.0
C      1  0.4513240000000  0.5831450000000  0.4716710000000 1.0
C      1  0.4057400000000  0.4805270000000  0.4707850000000 1.0
C      1  0.4879550000000  0.4046430000000  0.4663000000000 1.0
C      1  0.5872800000000  0.4611030000000  0.4685690000000 1.0
C      1  0.4346880000000  0.5692290000000  0.5373260000000 1.0
C      1  0.5469720000000  0.5833140000000  0.5306170000000 1.0
C      1  0.5946470000000  0.4816650000000  0.5286960000000 1.0
C      1  0.5140030000000  0.4040200000000  0.5310700000000 1.0
C      1  0.4135430000000  0.4584760000000  0.5303260000000 1.0
C      1  0.5458470000000  0.4712860000000  0.5303030000000 1.0
C      1  0.5425130000000  0.5330120000000  0.5276110000000 1.0
C      1  0.4809400000000  0.5488670000000  0.5340060000000 1.0
C      1  0.4474010000000  0.4958280000000  0.5326200000000 1.0
C      1  0.4875210000000  0.4471040000000  0.5307200000000 1.0
C      1  0.4547420000000  0.4711970000000  0.4689060000000 1.0
C      1  0.4568120000000  0.5328810000000  0.4732940000000 1.0
C      1  0.5180460000000  0.5501630000000  0.4673550000000 1.0
C      1  0.5526640000000  0.4978030000000  0.4672920000000 1.0
C      1  0.5135500000000  0.4482350000000  0.4678420000000 1.0
C      1  0.5335020000000  0.4223060000000  0.5216980000000 1.0
C      1  0.5914080000000  0.5087170000000  0.5335180000000 1.0
C      1  0.5195420000000  0.5805160000000  0.5238510000000 1.0
C      1  0.4290670000000  0.5432240000000  0.5277080000000 1.0
C      1  0.4372460000000  0.4455710000000  0.5216190000000 1.0
C      1  0.4680890000000  0.4222620000000  0.4761660000000 1.0
C      1  0.4084240000000  0.5077620000000  0.4667080000000 1.0
C      1  0.4788070000000  0.5807240000000  0.4783650000000 1.0
C      1  0.5700250000000  0.5454110000000  0.4735100000000 1.0
C      1  0.5638490000000  0.4474810000000  0.4769120000000 1.0
C      1  0.5403440000000  0.4436500000000  0.4632080000000 1.0
C      1  0.5652430000000  0.5214970000000  0.4610420000000 1.0
C      1  0.4988080000000  0.5694490000000  0.4633940000000 1.0
C      1  0.4316480000000  0.5221160000000  0.4693700000000 1.0
C      1  0.4569350000000  0.4441550000000  0.4640070000000 1.0
C      1  0.4608280000000  0.4418460000000  0.5352190000000 1.0
C      1  0.4343420000000  0.5190780000000  0.5395150000000 1.0
C      1  0.4997810000000  0.5684270000000  0.5385010000000 1.0
C      1  0.5678940000000  0.5226610000000  0.5312450000000 1.0
C      1  0.5442090000000  0.4440800000000  0.5344570000000 1.0
C      1  0.4314310000000  0.4814930000000  0.4841880000000 1.0
C      1  0.4991620000000  0.4264380000000  0.4829970000000 1.0
C      1  0.5687430000000  0.4784910000000  0.4838170000000 1.0
C      1  0.5426270000000  0.5599010000000  0.4817820000000 1.0
C      1  0.4573420000000  0.5591790000000  0.4879750000000 1.0
C      1  0.5689380000000  0.4824730000000  0.5153160000000 1.0
C      1  0.5023480000000  0.4260310000000  0.5149750000000 1.0
C      1  0.4317160000000  0.4766520000000  0.5155660000000 1.0
C      1  0.4561610000000  0.5584930000000  0.5198450000000 1.0
C      1  0.5414410000000  0.5596860000000  0.5136590000000 1.0
C      1  0.4788340000000  0.4867920000000  0.4696560000000 1.0
C      1  0.5056000000000  0.4760130000000  0.4689090000000 1.0
C      1  0.5237840000000  0.4985800000000  0.4685230000000 1.0
C      1  0.5082050000000  0.5230550000000  0.4696240000000 1.0
C      1  0.4800490000000  0.5157170000000  0.4702360000000 1.0
C      1  0.5214410000000  0.4863990000000  0.5299760000000 1.0
C      1  0.4949010000000  0.4750580000000  0.5304190000000 1.0
C      1  0.4762590000000  0.4972300000000  0.5314190000000 1.0
C      1  0.4913340000000  0.5220390000000  0.5309950000000 1.0
C      1  0.5196330000000  0.5152990000000  0.5301900000000 1.0
END
