TITL C-9258-7861-179 -2.03582105551126e-06 125000 -367.254439192957 0 0 60 (C1) n - 1
REM
REM in /home/bkarasulu/CARBON/AIRSS/Generating-Clusters/EDIP-Nigel-Params/Higher-Symm/Box-15A/Only-C60/SD-CG/HFTN-CG
REM
REM
REM
REM
REM
REM ./C.cell (414f73aa93bd7a1190c7fd0f31ff2f98)
REM
REM compiler GCC version 9.2.1 20190827 (Red Hat 9.2.1-1)
REM options -cpp -mtune=generic -march=x86-64 -g -O0 -fpre-include=/usr/include/finclude/math-vector-fortran.h
REM seed 2128109949 -1054138689 35357491 798371149 1721798473 565364248 446992898 -310036171 -1026839519 168222630 -944404990 1905245551 1924141239 -852701269 1892778078 412533266 -731498836 -1403916338 -320439440 1600397376 463818912 1486392389 -554957260 1084662872 462776321 957987879 1802299632 546435299 1560773652 1321239951 1773705734 -693795144 286949434
REM
CELL 1.54180   50.00000   50.00000   50.00000   90.00000   90.00000   90.00000
LATT -1
SFAC C  
C      1  0.5226150000000  0.5565000000000  0.4726530000000 1.0
C      1  0.5142560000000  0.5093060000000  0.4333690000000 1.0
C      1  0.4361400000000  0.5330530000000  0.4814900000000 1.0
C      1  0.5166100000000  0.4808620000000  0.4863520000000 1.0
C      1  0.4888870000000  0.4819540000000  0.5323110000000 1.0
C      1  0.5422890000000  0.4715550000000  0.4691420000000 1.0
C      1  0.4570600000000  0.4481930000000  0.5271310000000 1.0
C      1  0.4741500000000  0.4306020000000  0.4978170000000 1.0
C      1  0.4550080000000  0.5341280000000  0.5268130000000 1.0
C      1  0.5533180000000  0.4531010000000  0.5099530000000 1.0
C      1  0.5288890000000  0.5766120000000  0.5141380000000 1.0
C      1  0.5008150000000  0.5549470000000  0.4522750000000 1.0
C      1  0.4547610000000  0.5573150000000  0.4782150000000 1.0
C      1  0.5486590000000  0.5332280000000  0.5116560000000 1.0
C      1  0.4349900000000  0.5176840000000  0.4577420000000 1.0
C      1  0.4791490000000  0.5506090000000  0.5291360000000 1.0
C      1  0.4763820000000  0.5400420000000  0.4651490000000 1.0
C      1  0.4759060000000  0.4804450000000  0.5606150000000 1.0
C      1  0.5148800000000  0.4601250000000  0.4361400000000 1.0
C      1  0.4708180000000  0.5300540000000  0.4279170000000 1.0
C      1  0.4678560000000  0.4715940000000  0.5113880000000 1.0
C      1  0.5411470000000  0.5122930000000  0.4413190000000 1.0
C      1  0.5015430000000  0.4253990000000  0.4966060000000 1.0
C      1  0.5247560000000  0.5457690000000  0.5474510000000 1.0
C      1  0.4545740000000  0.5181980000000  0.5008770000000 1.0
C      1  0.5451180000000  0.5040320000000  0.5544470000000 1.0
C      1  0.4470690000000  0.5159270000000  0.5495420000000 1.0
C      1  0.4598020000000  0.4615360000000  0.4558320000000 1.0
C      1  0.4987300000000  0.4842080000000  0.4364070000000 1.0
C      1  0.5412480000000  0.5561460000000  0.5282560000000 1.0
C      1  0.5149480000000  0.5020870000000  0.5770830000000 1.0
C      1  0.4998910000000  0.5344930000000  0.4286110000000 1.0
C      1  0.5287150000000  0.4710230000000  0.5131310000000 1.0
C      1  0.5094760000000  0.4375610000000  0.4518260000000 1.0
C      1  0.4562100000000  0.5092620000000  0.4409870000000 1.0
C      1  0.4814740000000  0.5172150000000  0.4844590000000 1.0
C      1  0.5002590000000  0.5322010000000  0.5420350000000 1.0
C      1  0.4450660000000  0.4905480000000  0.5086700000000 1.0
C      1  0.5207960000000  0.4290970000000  0.4764050000000 1.0
C      1  0.5007790000000  0.4750250000000  0.5779540000000 1.0
C      1  0.5330700000000  0.5297610000000  0.4857770000000 1.0
C      1  0.5211170000000  0.4608880000000  0.5619140000000 1.0
C      1  0.5089580000000  0.5094470000000  0.4943410000000 1.0
C      1  0.4702520000000  0.4836240000000  0.4425510000000 1.0
C      1  0.4498050000000  0.4650600000000  0.5511370000000 1.0
C      1  0.4364600000000  0.4896980000000  0.5377080000000 1.0
C      1  0.5493640000000  0.5068690000000  0.5253940000000 1.0
C      1  0.4627280000000  0.4446370000000  0.4766400000000 1.0
C      1  0.5446870000000  0.4773460000000  0.5635530000000 1.0
C      1  0.5467610000000  0.4442490000000  0.4821150000000 1.0
C      1  0.5048880000000  0.5075070000000  0.5245400000000 1.0
C      1  0.4827360000000  0.5621630000000  0.5015920000000 1.0
C      1  0.5523400000000  0.5161720000000  0.4668930000000 1.0
C      1  0.5099220000000  0.5729940000000  0.4938750000000 1.0
C      1  0.5099610000000  0.4610400000000  0.5340940000000 1.0
C      1  0.4936380000000  0.5225030000000  0.5693490000000 1.0
C      1  0.5638360000000  0.4909360000000  0.4780470000000 1.0
C      1  0.4680130000000  0.5078740000000  0.5690830000000 1.0
C      1  0.5648670000000  0.4852430000000  0.5087020000000 1.0
C      1  0.5415550000000  0.4680570000000  0.4393970000000 1.0
END
