TITL C-9255-4564-276 6.12980093272537e-05 125000 -362.328397075167 0 0 60 (C1) n - 1
REM
REM in /home/bkarasulu/CARBON/AIRSS/Generating-Clusters/EDIP-Nigel-Params/Higher-Symm/Box-15A/Only-C60/SD-CG/HFTN-CG
REM
REM
REM
REM
REM
REM ./C.cell (414f73aa93bd7a1190c7fd0f31ff2f98)
REM
REM compiler GCC version 9.2.1 20190827 (Red Hat 9.2.1-1)
REM options -cpp -mtune=generic -march=x86-64 -g -O0 -fpre-include=/usr/include/finclude/math-vector-fortran.h
REM seed -1809785015 -1153544183 259492313 -1969846312 1019658182 -1996176715 1940348134 -1473455897 -215198815 -473517407 482513508 -449983334 -902436067 132253965 -1777823412 1373956049 -2078061092 -548229125 -7433653 628482091 -451851627 1420965292 -1145642052 371531142 -1637429428 1206370878 1076124173 508480744 229566075 -1310439026 724175768 -1151699855 -1573832892
REM
CELL 1.54180   50.00000   50.00000   50.00000   90.00000   90.00000   90.00000
LATT -1
SFAC C  
C      1  0.4547830000000  0.4268680000000  0.4966250000000 1.0
C      1  0.4581240000000  0.5732160000000  0.5033100000000 1.0
C      1  0.4964410000000  0.5529750000000  0.5698940000000 1.0
C      1  0.4975800000000  0.4467050000000  0.4302480000000 1.0
C      1  0.5374700000000  0.5411690000000  0.4417800000000 1.0
C      1  0.5369370000000  0.4590120000000  0.5556590000000 1.0
C      1  0.4920570000000  0.5675250000000  0.4418710000000 1.0
C      1  0.4908550000000  0.4321980000000  0.5571720000000 1.0
C      1  0.5078200000000  0.4287300000000  0.4727660000000 1.0
C      1  0.5103590000000  0.5693740000000  0.5276300000000 1.0
C      1  0.4538720000000  0.4396260000000  0.5214660000000 1.0
C      1  0.4559560000000  0.5605890000000  0.4785400000000 1.0
C      1  0.5587840000000  0.4819890000000  0.5251320000000 1.0
C      1  0.5575470000000  0.5215540000000  0.4756000000000 1.0
C      1  0.4771870000000  0.4846020000000  0.4545440000000 1.0
C      1  0.4766780000000  0.5148910000000  0.5458550000000 1.0
C      1  0.4866880000000  0.4727950000000  0.4292570000000 1.0
C      1  0.4859140000000  0.5267460000000  0.5711000000000 1.0
C      1  0.5470800000000  0.4883470000000  0.5528530000000 1.0
C      1  0.5472080000000  0.5122810000000  0.4480840000000 1.0
C      1  0.5124050000000  0.4372150000000  0.4997510000000 1.0
C      1  0.5167430000000  0.5565970000000  0.5029400000000 1.0
C      1  0.5061280000000  0.4577800000000  0.5596780000000 1.0
C      1  0.5068520000000  0.5419280000000  0.4389820000000 1.0
C      1  0.5520430000000  0.4519930000000  0.5285960000000 1.0
C      1  0.5505080000000  0.5511100000000  0.4684800000000 1.0
C      1  0.5179780000000  0.5581220000000  0.5528350000000 1.0
C      1  0.5173850000000  0.4424010000000  0.4494790000000 1.0
C      1  0.4725950000000  0.4430000000000  0.4814420000000 1.0
C      1  0.4752420000000  0.5560930000000  0.5181770000000 1.0
C      1  0.4633390000000  0.4705250000000  0.4759230000000 1.0
C      1  0.4642300000000  0.5292860000000  0.5239670000000 1.0
C      1  0.5794880000000  0.4945380000000  0.5113940000000 1.0
C      1  0.5787590000000  0.5109390000000  0.4901530000000 1.0
C      1  0.5335800000000  0.4651900000000  0.4524700000000 1.0
C      1  0.5349510000000  0.5357850000000  0.5517160000000 1.0
C      1  0.4470690000000  0.5327650000000  0.4778780000000 1.0
C      1  0.4454720000000  0.4676400000000  0.5219610000000 1.0
C      1  0.4877460000000  0.4646810000000  0.5348340000000 1.0
C      1  0.4893930000000  0.5352210000000  0.4649090000000 1.0
C      1  0.4667650000000  0.4283800000000  0.5438520000000 1.0
C      1  0.4686100000000  0.5715680000000  0.4560020000000 1.0
C      1  0.4436420000000  0.4795120000000  0.5476710000000 1.0
C      1  0.4452020000000  0.5209600000000  0.4521180000000 1.0
C      1  0.4531990000000  0.5151360000000  0.5007170000000 1.0
C      1  0.4526760000000  0.4849880000000  0.4991830000000 1.0
C      1  0.5063860000000  0.5056280000000  0.5778360000000 1.0
C      1  0.5070660000000  0.4940080000000  0.4228150000000 1.0
C      1  0.5278510000000  0.5093330000000  0.5576810000000 1.0
C      1  0.5274770000000  0.4914110000000  0.4443080000000 1.0
C      1  0.4949380000000  0.4782650000000  0.5793430000000 1.0
C      1  0.4951840000000  0.5210610000000  0.4200050000000 1.0
C      1  0.5379730000000  0.4365040000000  0.5103990000000 1.0
C      1  0.5339610000000  0.5673150000000  0.4840580000000 1.0
C      1  0.4716990000000  0.4865840000000  0.5515610000000 1.0
C      1  0.4731320000000  0.5131280000000  0.4485650000000 1.0
C      1  0.5092500000000  0.5105770000000  0.5019720000000 1.0
C      1  0.5103500000000  0.4846560000000  0.4968690000000 1.0
C      1  0.4958930000000  0.4616960000000  0.5046220000000 1.0
C      1  0.4975010000000  0.5352890000000  0.4954690000000 1.0
END
