TITL C-9263-351-274 -3.19569279667094e-06 125000 -356.429331819368 0 0 60 (C1) n - 1
REM
REM in /home/bkarasulu/CARBON/AIRSS/Generating-Clusters/EDIP-Nigel-Params/Higher-Symm/Box-15A/Only-C60/SD-CG/HFTN-CG
REM
REM
REM
REM
REM
REM ./C.cell (414f73aa93bd7a1190c7fd0f31ff2f98)
REM
REM compiler GCC version 9.2.1 20190827 (Red Hat 9.2.1-1)
REM options -cpp -mtune=generic -march=x86-64 -g -O0 -fpre-include=/usr/include/finclude/math-vector-fortran.h
REM seed -1365500472 -1993561215 -1066869404 -517558560 -1703654621 -1188128965 1589733265 146185894 1236025453 -1496539253 -384202510 -2146320732 1394414480 1839219683 -914486431 207771152 386718520 -2098000601 1700862612 -1957885013 799544512 -604689793 1436160094 29243921 75032264 829500910 1495272877 -1549031744 -1718401501 279307559 -1765578630 -1659827434 -1089093158
REM
CELL 1.54180   50.00000   50.00000   50.00000   90.00000   90.00000   90.00000
LATT -1
SFAC C  
C      1  0.4928530000000  0.5087820000000  0.5821950000000 1.0
C      1  0.4933250000000  0.4163730000000  0.5087980000000 1.0
C      1  0.4914240000000  0.4905550000000  0.4175710000000 1.0
C      1  0.4936370000000  0.5838010000000  0.4924970000000 1.0
C      1  0.4800070000000  0.5107530000000  0.4330540000000 1.0
C      1  0.4843860000000  0.4341590000000  0.4889690000000 1.0
C      1  0.4821780000000  0.4895680000000  0.5647300000000 1.0
C      1  0.4843040000000  0.5664780000000  0.5125940000000 1.0
C      1  0.5601740000000  0.5388590000000  0.4830110000000 1.0
C      1  0.5608770000000  0.5142640000000  0.5407160000000 1.0
C      1  0.5605570000000  0.4609020000000  0.5171350000000 1.0
C      1  0.5604020000000  0.4859900000000  0.4593500000000 1.0
C      1  0.5606900000000  0.5287920000000  0.5128150000000 1.0
C      1  0.5609010000000  0.5170900000000  0.4604870000000 1.0
C      1  0.5608660000000  0.4711950000000  0.4872330000000 1.0
C      1  0.5614480000000  0.4829180000000  0.5397350000000 1.0
C      1  0.5214860000000  0.4873420000000  0.4624020000000 1.0
C      1  0.5213490000000  0.5362400000000  0.4839070000000 1.0
C      1  0.5220810000000  0.5129360000000  0.5381540000000 1.0
C      1  0.5218200000000  0.4642660000000  0.5164290000000 1.0
C      1  0.5302090000000  0.4824600000000  0.5407530000000 1.0
C      1  0.5304300000000  0.5338560000000  0.5153290000000 1.0
C      1  0.5295990000000  0.5177190000000  0.4592910000000 1.0
C      1  0.5304870000000  0.4662920000000  0.4851130000000 1.0
C      1  0.4418120000000  0.4711550000000  0.4707400000000 1.0
C      1  0.4412720000000  0.5326800000000  0.4782620000000 1.0
C      1  0.4414160000000  0.5212950000000  0.5275770000000 1.0
C      1  0.4421940000000  0.4711130000000  0.5213450000000 1.0
C      1  0.4328070000000  0.4951220000000  0.5320000000000 1.0
C      1  0.4311720000000  0.5322240000000  0.5041560000000 1.0
C      1  0.4399730000000  0.5077200000000  0.4625570000000 1.0
C      1  0.4323630000000  0.4651690000000  0.4960560000000 1.0
C      1  0.4715310000000  0.5235000000000  0.5300470000000 1.0
C      1  0.4722850000000  0.4695810000000  0.5228360000000 1.0
C      1  0.4717740000000  0.4733490000000  0.4685830000000 1.0
C      1  0.4717220000000  0.5348990000000  0.4782930000000 1.0
C      1  0.4704800000000  0.5039970000000  0.4606180000000 1.0
C      1  0.4833350000000  0.4633390000000  0.4953080000000 1.0
C      1  0.4820120000000  0.4956700000000  0.5358470000000 1.0
C      1  0.4830470000000  0.5379210000000  0.5057010000000 1.0
C      1  0.4997500000000  0.5663970000000  0.5373540000000 1.0
C      1  0.4949750000000  0.4633610000000  0.5667530000000 1.0
C      1  0.4994540000000  0.4332380000000  0.4637240000000 1.0
C      1  0.4960320000000  0.5351610000000  0.4353820000000 1.0
C      1  0.5048520000000  0.5739360000000  0.4686320000000 1.0
C      1  0.5042060000000  0.4674720000000  0.4269790000000 1.0
C      1  0.5042970000000  0.4270740000000  0.5322720000000 1.0
C      1  0.5051360000000  0.5325180000000  0.5737950000000 1.0
C      1  0.5318450000000  0.5265460000000  0.5627390000000 1.0
C      1  0.5311520000000  0.4378680000000  0.5260540000000 1.0
C      1  0.5309640000000  0.4735890000000  0.4379570000000 1.0
C      1  0.5314580000000  0.5627890000000  0.4745510000000 1.0
C      1  0.5234100000000  0.5301840000000  0.4335520000000 1.0
C      1  0.5254110000000  0.4407820000000  0.4721740000000 1.0
C      1  0.5224320000000  0.4693020000000  0.5655420000000 1.0
C      1  0.5256180000000  0.5594180000000  0.5282530000000 1.0
C      1  0.4862920000000  0.5523810000000  0.4577390000000 1.0
C      1  0.4870300000000  0.5452900000000  0.5538550000000 1.0
C      1  0.4845310000000  0.4479320000000  0.5432440000000 1.0
C      1  0.4858380000000  0.4544400000000  0.4472560000000 1.0
END
