TITL C-9262-5533-317 4.79813260023649e-05 125000 -359.069718271265 0 0 60 (C1) n - 1
REM
REM in /home/bkarasulu/CARBON/AIRSS/Generating-Clusters/EDIP-Nigel-Params/Higher-Symm/Box-15A/Only-C60/SD-CG/HFTN-CG
REM
REM
REM
REM
REM
REM ./C.cell (414f73aa93bd7a1190c7fd0f31ff2f98)
REM
REM compiler GCC version 9.2.1 20190827 (Red Hat 9.2.1-1)
REM options -cpp -mtune=generic -march=x86-64 -g -O0 -fpre-include=/usr/include/finclude/math-vector-fortran.h
REM seed -643659085 1442265012 -772171132 -219915796 318075493 -908809896 2000599115 742068357 1929322970 -1313080048 -1302489548 -1069849428 -622012580 -781179464 -98834126 1742402634 54663947 1782913991 -1699352681 -1151876883 501556938 161688419 1278337088 887847166 747511691 -1308823761 1624428458 -1372389596 -325805523 979286503 -1388106600 1511892884 -1079963703
REM
CELL 1.54180   50.00000   50.00000   50.00000   90.00000   90.00000   90.00000
LATT -1
SFAC C  
C      1  0.4830520000000  0.5688160000000  0.4987050000000 1.0
C      1  0.5280440000000  0.5279180000000  0.5471780000000 1.0
C      1  0.4421010000000  0.4601170000000  0.4988570000000 1.0
C      1  0.4791900000000  0.4574050000000  0.4387270000000 1.0
C      1  0.4795790000000  0.5076720000000  0.5828530000000 1.0
C      1  0.5338480000000  0.5458590000000  0.4843310000000 1.0
C      1  0.5516390000000  0.5294410000000  0.5278810000000 1.0
C      1  0.4592570000000  0.5714170000000  0.5137980000000 1.0
C      1  0.5331000000000  0.5148860000000  0.5733250000000 1.0
C      1  0.4307750000000  0.5289930000000  0.4852460000000 1.0
C      1  0.4570960000000  0.5458370000000  0.5260010000000 1.0
C      1  0.5473290000000  0.4446390000000  0.5093960000000 1.0
C      1  0.5184800000000  0.4473160000000  0.4684850000000 1.0
C      1  0.5370030000000  0.4496400000000  0.5366020000000 1.0
C      1  0.5106250000000  0.5313970000000  0.4461980000000 1.0
C      1  0.4822810000000  0.4866080000000  0.4411870000000 1.0
C      1  0.5649100000000  0.5068080000000  0.4814640000000 1.0
C      1  0.5364870000000  0.4862610000000  0.5728920000000 1.0
C      1  0.4600370000000  0.4918570000000  0.5136410000000 1.0
C      1  0.4832000000000  0.5389010000000  0.5434980000000 1.0
C      1  0.4904840000000  0.4435590000000  0.4604940000000 1.0
C      1  0.4614460000000  0.5256380000000  0.4422660000000 1.0
C      1  0.5042980000000  0.4260320000000  0.5108680000000 1.0
C      1  0.5330150000000  0.4858680000000  0.5119100000000 1.0
C      1  0.5773920000000  0.4834110000000  0.5195700000000 1.0
C      1  0.5068730000000  0.5747120000000  0.5145250000000 1.0
C      1  0.4335340000000  0.5295360000000  0.5154010000000 1.0
C      1  0.5437160000000  0.4755160000000  0.5473250000000 1.0
C      1  0.5028650000000  0.5170730000000  0.5352210000000 1.0
C      1  0.4190080000000  0.4835750000000  0.5019440000000 1.0
C      1  0.5355800000000  0.4797010000000  0.4331630000000 1.0
C      1  0.5528530000000  0.5295990000000  0.4664700000000 1.0
C      1  0.5446460000000  0.5027440000000  0.4225790000000 1.0
C      1  0.5085390000000  0.5604040000000  0.5399520000000 1.0
C      1  0.4881740000000  0.5236440000000  0.4306910000000 1.0
C      1  0.4600960000000  0.5280010000000  0.4732550000000 1.0
C      1  0.5037630000000  0.4930250000000  0.5190650000000 1.0
C      1  0.4418700000000  0.4861580000000  0.4628310000000 1.0
C      1  0.4527100000000  0.4979490000000  0.4372100000000 1.0
C      1  0.4880100000000  0.4862180000000  0.4713630000000 1.0
C      1  0.4862700000000  0.4756690000000  0.5637120000000 1.0
C      1  0.4767870000000  0.5324000000000  0.5706000000000 1.0
C      1  0.4910640000000  0.4679910000000  0.5351080000000 1.0
C      1  0.4189020000000  0.5014890000000  0.4776730000000 1.0
C      1  0.5624900000000  0.4765430000000  0.4730980000000 1.0
C      1  0.5089600000000  0.5311120000000  0.4759150000000 1.0
C      1  0.4550130000000  0.4566800000000  0.4686260000000 1.0
C      1  0.5101660000000  0.5005130000000  0.4848350000000 1.0
C      1  0.4327480000000  0.5009180000000  0.5232780000000 1.0
C      1  0.5382000000000  0.4671400000000  0.4578670000000 1.0
C      1  0.5250480000000  0.4340970000000  0.4933600000000 1.0
C      1  0.4643100000000  0.4625820000000  0.5214640000000 1.0
C      1  0.5577330000000  0.5044690000000  0.5111660000000 1.0
C      1  0.4638620000000  0.4981070000000  0.4825820000000 1.0
C      1  0.5687970000000  0.4631040000000  0.4995970000000 1.0
C      1  0.5382650000000  0.5234790000000  0.4406360000000 1.0
C      1  0.4836540000000  0.5432880000000  0.4844980000000 1.0
C      1  0.5376100000000  0.5528970000000  0.5136820000000 1.0
C      1  0.5083540000000  0.4431750000000  0.5333960000000 1.0
C      1  0.5048620000000  0.4901930000000  0.5825350000000 1.0
END
