TITL C-9266-5713-242 -7.75750415085984e-07 125000 -372.232092049844 0 0 60 (C1) n - 1
REM
REM in /home/bkarasulu/CARBON/AIRSS/Generating-Clusters/EDIP-Nigel-Params/Higher-Symm/Box-15A/Only-C60/SD-CG/HFTN-CG
REM
REM
REM
REM
REM
REM ./C.cell (414f73aa93bd7a1190c7fd0f31ff2f98)
REM
REM compiler GCC version 9.2.1 20190827 (Red Hat 9.2.1-1)
REM options -cpp -mtune=generic -march=x86-64 -g -O0 -fpre-include=/usr/include/finclude/math-vector-fortran.h
REM seed -2120530594 1081385530 -1939913806 35129273 552126264 -922365759 1125806504 1203660107 -275878088 -1834073607 -487465769 -678594985 -6460678 1375796208 549874368 1998309707 -1705463568 1455436192 -1960021297 1979229776 345173584 -1620576929 297402746 -1513400482 -748528174 -1560049235 539364759 -418577403 -364792820 -570519340 -73262091 2091061276 996866777
REM
CELL 1.54180   50.00000   50.00000   50.00000   90.00000   90.00000   90.00000
LATT -1
SFAC C  
C      1  0.5272500000000  0.4550770000000  0.4841510000000 1.0
C      1  0.4653060000000  0.4599380000000  0.4827220000000 1.0
C      1  0.4497100000000  0.5215120000000  0.4840910000000 1.0
C      1  0.5043770000000  0.5542770000000  0.4849340000000 1.0
C      1  0.5604010000000  0.5133140000000  0.4796940000000 1.0
C      1  0.5689510000000  0.4652030000000  0.5262770000000 1.0
C      1  0.4872510000000  0.4244650000000  0.5283700000000 1.0
C      1  0.4227960000000  0.4876970000000  0.5264150000000 1.0
C      1  0.4652660000000  0.5679380000000  0.5281550000000 1.0
C      1  0.5547720000000  0.5546750000000  0.5255830000000 1.0
C      1  0.4844240000000  0.4326770000000  0.5011520000000 1.0
C      1  0.4293120000000  0.4930580000000  0.4991780000000 1.0
C      1  0.4712530000000  0.5649470000000  0.5004600000000 1.0
C      1  0.5523370000000  0.5456210000000  0.4986500000000 1.0
C      1  0.5609820000000  0.4650190000000  0.4989000000000 1.0
C      1  0.4335330000000  0.4842610000000  0.4548620000000 1.0
C      1  0.4635100000000  0.5581480000000  0.4560210000000 1.0
C      1  0.5436950000000  0.5519600000000  0.4536770000000 1.0
C      1  0.5638080000000  0.4715330000000  0.4539430000000 1.0
C      1  0.4945690000000  0.4303130000000  0.4564860000000 1.0
C      1  0.5249370000000  0.5046460000000  0.5386040000000 1.0
C      1  0.5116120000000  0.4782040000000  0.5301070000000 1.0
C      1  0.4819860000000  0.4807610000000  0.5380260000000 1.0
C      1  0.4742020000000  0.5088030000000  0.5298200000000 1.0
C      1  0.5051920000000  0.5264500000000  0.5315010000000 1.0
C      1  0.4535540000000  0.5518710000000  0.4815780000000 1.0
C      1  0.5346450000000  0.5579320000000  0.4796610000000 1.0
C      1  0.5688460000000  0.4840090000000  0.4784940000000 1.0
C      1  0.5061630000000  0.4326080000000  0.4819830000000 1.0
C      1  0.4372240000000  0.4726120000000  0.4801810000000 1.0
C      1  0.5522960000000  0.4504240000000  0.5424340000000 1.0
C      1  0.4671640000000  0.4326760000000  0.5456190000000 1.0
C      1  0.4255400000000  0.5094490000000  0.5432020000000 1.0
C      1  0.4873410000000  0.5710770000000  0.5443930000000 1.0
C      1  0.5639080000000  0.5354770000000  0.5432830000000 1.0
C      1  0.4477860000000  0.5494360000000  0.5383520000000 1.0
C      1  0.5324500000000  0.5672450000000  0.5356880000000 1.0
C      1  0.5725220000000  0.4900340000000  0.5374430000000 1.0
C      1  0.5120740000000  0.4292060000000  0.5390030000000 1.0
C      1  0.4352600000000  0.4656420000000  0.5370360000000 1.0
C      1  0.4752760000000  0.5104270000000  0.4978170000000 1.0
C      1  0.5028900000000  0.5266660000000  0.4997460000000 1.0
C      1  0.5228850000000  0.5064030000000  0.4882610000000 1.0
C      1  0.5123270000000  0.4787990000000  0.4974520000000 1.0
C      1  0.4845490000000  0.4837300000000  0.4847110000000 1.0
C      1  0.5369870000000  0.4625320000000  0.4560660000000 1.0
C      1  0.4760020000000  0.4515050000000  0.4555590000000 1.0
C      1  0.4487200000000  0.5082680000000  0.4564650000000 1.0
C      1  0.4910140000000  0.5509440000000  0.4580770000000 1.0
C      1  0.5481580000000  0.5241810000000  0.4537120000000 1.0
C      1  0.5537030000000  0.5097420000000  0.5415440000000 1.0
C      1  0.5248290000000  0.4533240000000  0.5420030000000 1.0
C      1  0.4619420000000  0.4593540000000  0.5394010000000 1.0
C      1  0.4500430000000  0.5223950000000  0.5425120000000 1.0
C      1  0.5092430000000  0.5543080000000  0.5431240000000 1.0
C      1  0.5190120000000  0.4820220000000  0.4442390000000 1.0
C      1  0.4890930000000  0.4774890000000  0.4463520000000 1.0
C      1  0.4758900000000  0.5042950000000  0.4463430000000 1.0
C      1  0.4970580000000  0.5240760000000  0.4492850000000 1.0
C      1  0.5221720000000  0.5093450000000  0.4571990000000 1.0
END
