TITL C-9262-5533-72 0.000100215843116943 125000 -367.449538426711 0 0 60 (C1) n - 1
REM
REM in /home/bkarasulu/CARBON/AIRSS/Generating-Clusters/EDIP-Nigel-Params/Higher-Symm/Box-15A/Only-C60/SD-CG/HFTN-CG
REM
REM
REM
REM
REM
REM ./C.cell (414f73aa93bd7a1190c7fd0f31ff2f98)
REM
REM compiler GCC version 9.2.1 20190827 (Red Hat 9.2.1-1)
REM options -cpp -mtune=generic -march=x86-64 -g -O0 -fpre-include=/usr/include/finclude/math-vector-fortran.h
REM seed -387357017 -145388340 -1356749181 189619467 1264902241 -939750898 1710884239 205361144 1078542295 699231456 -149792678 1241650796 1374909732 -1098708381 -1773449604 -384112594 -1644806900 -446811424 -492895063 -1927761055 -13327594 -1261081116 1529147054 1129461342 -128104795 -500636758 993846977 -524737411 1836869335 906500834 1294117489 2005435891 186882825
REM
CELL 1.54180   50.00000   50.00000   50.00000   90.00000   90.00000   90.00000
LATT -1
SFAC C  
C      1  0.4845200000000  0.5709040000000  0.5340950000000 1.0
C      1  0.5419040000000  0.5632860000000  0.4931620000000 1.0
C      1  0.4682400000000  0.5721600000000  0.4720240000000 1.0
C      1  0.5382650000000  0.5052650000000  0.4238750000000 1.0
C      1  0.4229900000000  0.4991780000000  0.4990690000000 1.0
C      1  0.5365880000000  0.5033090000000  0.5665030000000 1.0
C      1  0.4504780000000  0.4733010000000  0.4458570000000 1.0
C      1  0.4743180000000  0.4689380000000  0.5725750000000 1.0
C      1  0.5826650000000  0.4656610000000  0.4906960000000 1.0
C      1  0.5391650000000  0.5348070000000  0.5308600000000 1.0
C      1  0.5061320000000  0.5305830000000  0.4438050000000 1.0
C      1  0.4558000000000  0.5247870000000  0.5182910000000 1.0
C      1  0.4746020000000  0.4251450000000  0.4943810000000 1.0
C      1  0.5108870000000  0.4219710000000  0.5305220000000 1.0
C      1  0.5217670000000  0.4320850000000  0.4783160000000 1.0
C      1  0.4936120000000  0.4531290000000  0.5613710000000 1.0
C      1  0.5561880000000  0.4609410000000  0.4835520000000 1.0
C      1  0.4520980000000  0.4543020000000  0.4654030000000 1.0
C      1  0.5608570000000  0.5484050000000  0.4793350000000 1.0
C      1  0.4508590000000  0.5563090000000  0.4566710000000 1.0
C      1  0.4838990000000  0.5569640000000  0.5586260000000 1.0
C      1  0.4409630000000  0.4999450000000  0.5461390000000 1.0
C      1  0.5664120000000  0.4945900000000  0.5288740000000 1.0
C      1  0.4878180000000  0.5034850000000  0.4221990000000 1.0
C      1  0.5284500000000  0.5278930000000  0.5563430000000 1.0
C      1  0.5350070000000  0.5298690000000  0.4363130000000 1.0
C      1  0.4360330000000  0.5235650000000  0.4956840000000 1.0
C      1  0.4600760000000  0.5437390000000  0.5637730000000 1.0
C      1  0.5736580000000  0.5306890000000  0.4964850000000 1.0
C      1  0.4614740000000  0.5464540000000  0.4327770000000 1.0
C      1  0.5381010000000  0.4571900000000  0.5492170000000 1.0
C      1  0.5194740000000  0.4691550000000  0.4502390000000 1.0
C      1  0.4440980000000  0.4576410000000  0.5127620000000 1.0
C      1  0.4847300000000  0.5348550000000  0.4225460000000 1.0
C      1  0.4436790000000  0.5304460000000  0.5457470000000 1.0
C      1  0.5628350000000  0.5218020000000  0.5206120000000 1.0
C      1  0.4884030000000  0.4373260000000  0.5379550000000 1.0
C      1  0.5402960000000  0.4411800000000  0.4973480000000 1.0
C      1  0.4773680000000  0.4432590000000  0.4729340000000 1.0
C      1  0.5066250000000  0.5424140000000  0.5653270000000 1.0
C      1  0.5538160000000  0.5393560000000  0.4542210000000 1.0
C      1  0.4370490000000  0.5378970000000  0.4720200000000 1.0
C      1  0.4969110000000  0.5335900000000  0.4722890000000 1.0
C      1  0.4864010000000  0.5265790000000  0.5146360000000 1.0
C      1  0.4970880000000  0.5133170000000  0.4920780000000 1.0
C      1  0.4337620000000  0.4529320000000  0.4866510000000 1.0
C      1  0.5201330000000  0.4526190000000  0.5706730000000 1.0
C      1  0.5463800000000  0.4660170000000  0.4577590000000 1.0
C      1  0.4970610000000  0.5551830000000  0.5130680000000 1.0
C      1  0.5273140000000  0.5564700000000  0.5160620000000 1.0
C      1  0.4913560000000  0.5606690000000  0.4830210000000 1.0
C      1  0.4690620000000  0.4419060000000  0.5165050000000 1.0
C      1  0.5308030000000  0.4412770000000  0.5252110000000 1.0
C      1  0.5041920000000  0.4468730000000  0.4621440000000 1.0
C      1  0.5479350000000  0.4846620000000  0.5487350000000 1.0
C      1  0.5148150000000  0.4908080000000  0.4307180000000 1.0
C      1  0.4389930000000  0.4860830000000  0.5189630000000 1.0
C      1  0.4651920000000  0.4911380000000  0.4331660000000 1.0
C      1  0.4572390000000  0.4877310000000  0.5653380000000 1.0
C      1  0.5831620000000  0.4779680000000  0.5144810000000 1.0
END
