TITL C-9269-7444-176 -6.8692227445759e-06 125000 -379.136061733543 0 0 60 (C1) n - 1
REM
REM in /home/bkarasulu/CARBON/AIRSS/Generating-Clusters/EDIP-Nigel-Params/Higher-Symm/Box-15A/Only-C60/SD-CG/HFTN-CG
REM
REM
REM
REM
REM
REM ./C.cell (414f73aa93bd7a1190c7fd0f31ff2f98)
REM
REM compiler GCC version 9.2.1 20190827 (Red Hat 9.2.1-1)
REM options -cpp -mtune=generic -march=x86-64 -g -O0 -fpre-include=/usr/include/finclude/math-vector-fortran.h
REM seed -1942152105 1308114630 1686542836 -893754578 1123365614 119653797 -1496466456 -1545006169 -1199571974 1323069162 -1011054666 -1626660326 -2005556220 -1611932164 -46714495 2113355976 -775395194 -2141955602 1279438355 -236036764 1853549940 1773387095 191951583 -1188525842 -1256430905 -1872408094 2085527304 -1707872272 1286185026 -468659039 863188934 -870430908 -1144103349
REM
CELL 1.54180   50.00000   50.00000   50.00000   90.00000   90.00000   90.00000
LATT -1
SFAC C  
C      1  0.4771870000000  0.5333370000000  0.5630440000000 1.0
C      1  0.5333380000000  0.5612050000000  0.4787090000000 1.0
C      1  0.5614180000000  0.4793950000000  0.5322150000000 1.0
C      1  0.5217880000000  0.5328990000000  0.4379280000000 1.0
C      1  0.5210640000000  0.4680880000000  0.5617190000000 1.0
C      1  0.4764980000000  0.4643560000000  0.4364770000000 1.0
C      1  0.4680940000000  0.5611490000000  0.5222360000000 1.0
C      1  0.4667870000000  0.4381410000000  0.4773580000000 1.0
C      1  0.5322300000000  0.4389610000000  0.5210660000000 1.0
C      1  0.4379210000000  0.4774760000000  0.4660350000000 1.0
C      1  0.4374030000000  0.5228720000000  0.5344320000000 1.0
C      1  0.5622650000000  0.5229700000000  0.4664770000000 1.0
C      1  0.4767740000000  0.4661830000000  0.5634240000000 1.0
C      1  0.5343120000000  0.4370590000000  0.4767990000000 1.0
C      1  0.5633140000000  0.5236390000000  0.5347320000000 1.0
C      1  0.5207520000000  0.4667360000000  0.4389280000000 1.0
C      1  0.5215770000000  0.5324560000000  0.5624460000000 1.0
C      1  0.4774160000000  0.5333410000000  0.4372950000000 1.0
C      1  0.4675650000000  0.4389570000000  0.5217040000000 1.0
C      1  0.4678080000000  0.5614830000000  0.4778930000000 1.0
C      1  0.5340830000000  0.5624290000000  0.5229830000000 1.0
C      1  0.4386180000000  0.5218210000000  0.4664720000000 1.0
C      1  0.4384770000000  0.4785880000000  0.5337580000000 1.0
C      1  0.5616900000000  0.4786190000000  0.4668340000000 1.0
C      1  0.4475120000000  0.4587350000000  0.5143990000000 1.0
C      1  0.4530660000000  0.5183800000000  0.4414070000000 1.0
C      1  0.5192110000000  0.4411160000000  0.4524820000000 1.0
C      1  0.5533710000000  0.4573200000000  0.4850520000000 1.0
C      1  0.5588920000000  0.5477990000000  0.5193950000000 1.0
C      1  0.4468630000000  0.5425380000000  0.4854980000000 1.0
C      1  0.5436640000000  0.5150070000000  0.5545410000000 1.0
C      1  0.5421720000000  0.4854080000000  0.4460560000000 1.0
C      1  0.4524580000000  0.4812670000000  0.5590680000000 1.0
C      1  0.4852670000000  0.4467830000000  0.5435390000000 1.0
C      1  0.4860440000000  0.5514990000000  0.4577580000000 1.0
C      1  0.5149320000000  0.5527800000000  0.5428360000000 1.0
C      1  0.4478760000000  0.5417530000000  0.5147770000000 1.0
C      1  0.4532520000000  0.4810760000000  0.4416030000000 1.0
C      1  0.5149070000000  0.5541770000000  0.4569170000000 1.0
C      1  0.5584690000000  0.5471170000000  0.4817230000000 1.0
C      1  0.5537790000000  0.4574770000000  0.5142690000000 1.0
C      1  0.4491470000000  0.4592770000000  0.4854500000000 1.0
C      1  0.5432600000000  0.4857850000000  0.5541780000000 1.0
C      1  0.5415090000000  0.5143240000000  0.4484680000000 1.0
C      1  0.4523910000000  0.5189220000000  0.5590920000000 1.0
C      1  0.4859790000000  0.5525140000000  0.5433300000000 1.0
C      1  0.4817180000000  0.4413000000000  0.4531000000000 1.0
C      1  0.5144840000000  0.4463580000000  0.5433330000000 1.0
C      1  0.5777730000000  0.5014350000000  0.5242470000000 1.0
C      1  0.4994950000000  0.5235510000000  0.4225520000000 1.0
C      1  0.4990470000000  0.4762340000000  0.5781210000000 1.0
C      1  0.4990100000000  0.4738230000000  0.4221940000000 1.0
C      1  0.4778680000000  0.5761220000000  0.5001430000000 1.0
C      1  0.5241210000000  0.4224930000000  0.4991040000000 1.0
C      1  0.4229290000000  0.4998500000000  0.4746380000000 1.0
C      1  0.4223520000000  0.5004820000000  0.5259480000000 1.0
C      1  0.5771940000000  0.5008730000000  0.4760100000000 1.0
C      1  0.4992440000000  0.5231520000000  0.5777760000000 1.0
C      1  0.5254680000000  0.5774930000000  0.5005350000000 1.0
C      1  0.4769000000000  0.4236230000000  0.4994990000000 1.0
END
