TITL C-9257-5531-35 -7.51384961798087e-07 125000 -357.764528435874 0 0 60 (C1) n - 1
REM
REM in /home/bkarasulu/CARBON/AIRSS/Generating-Clusters/EDIP-Nigel-Params/Higher-Symm/Box-15A/Only-C60/SD-CG/HFTN-CG
REM
REM
REM
REM
REM
REM ./C.cell (414f73aa93bd7a1190c7fd0f31ff2f98)
REM
REM compiler GCC version 9.2.1 20190827 (Red Hat 9.2.1-1)
REM options -cpp -mtune=generic -march=x86-64 -g -O0 -fpre-include=/usr/include/finclude/math-vector-fortran.h
REM seed -239211793 -1278132934 961547392 800903325 -1355370817 -1599474943 -1014069360 -259562480 -679138683 1666509209 1607125307 -183875495 800251455 -642238406 374768170 2136071949 -1848573487 -1467984294 2100372056 -1871449304 1146221899 1967068675 -638167821 -2140460046 -1373216890 16966841 2023288264 274974234 1125558969 -630481458 1939471573 1466503980 -1739035656
REM
CELL 1.54180   50.00000   50.00000   50.00000   90.00000   90.00000   90.00000
LATT -1
SFAC C  
C      1  0.5141490000000  0.4534730000000  0.5030070000000 1.0
C      1  0.4870230000000  0.4403420000000  0.5029000000000 1.0
C      1  0.4895460000000  0.4230370000000  0.4791230000000 1.0
C      1  0.4797690000000  0.5469080000000  0.5096870000000 1.0
C      1  0.5085720000000  0.5471220000000  0.5035690000000 1.0
C      1  0.5056350000000  0.5554330000000  0.4747000000000 1.0
C      1  0.5144660000000  0.5045850000000  0.5654040000000 1.0
C      1  0.4364950000000  0.5032730000000  0.4820710000000 1.0
C      1  0.5485570000000  0.5053980000000  0.4587440000000 1.0
C      1  0.4872840000000  0.4958300000000  0.5647370000000 1.0
C      1  0.5595770000000  0.5029310000000  0.4855430000000 1.0
C      1  0.4514030000000  0.4963370000000  0.4588660000000 1.0
C      1  0.5507620000000  0.5259780000000  0.5034230000000 1.0
C      1  0.4728750000000  0.5323580000000  0.5342020000000 1.0
C      1  0.4841420000000  0.5359950000000  0.4605110000000 1.0
C      1  0.4638020000000  0.4616290000000  0.5028270000000 1.0
C      1  0.5212510000000  0.4704900000000  0.5271150000000 1.0
C      1  0.5171110000000  0.4683570000000  0.4761740000000 1.0
C      1  0.4826570000000  0.4689070000000  0.5560290000000 1.0
C      1  0.4632070000000  0.4701370000000  0.4595760000000 1.0
C      1  0.5601780000000  0.4748980000000  0.4939360000000 1.0
C      1  0.5210960000000  0.5308980000000  0.5566540000000 1.0
C      1  0.5391940000000  0.5320110000000  0.4572650000000 1.0
C      1  0.4434550000000  0.5288820000000  0.4919100000000 1.0
C      1  0.4570570000000  0.5467610000000  0.4715010000000 1.0
C      1  0.5488970000000  0.5474020000000  0.4802280000000 1.0
C      1  0.4964780000000  0.5467130000000  0.5508970000000 1.0
C      1  0.5459130000000  0.4589590000000  0.4716410000000 1.0
C      1  0.4466860000000  0.4538420000000  0.4783410000000 1.0
C      1  0.5081890000000  0.4553840000000  0.5499950000000 1.0
C      1  0.4705830000000  0.4168970000000  0.4581870000000 1.0
C      1  0.5355700000000  0.4311030000000  0.5040160000000 1.0
C      1  0.4827200000000  0.4241150000000  0.5273740000000 1.0
C      1  0.5223980000000  0.5785140000000  0.4630940000000 1.0
C      1  0.4635680000000  0.5714500000000  0.5074590000000 1.0
C      1  0.5218190000000  0.5678620000000  0.5214140000000 1.0
C      1  0.5466810000000  0.5757810000000  0.4774240000000 1.0
C      1  0.5042020000000  0.5731040000000  0.5430070000000 1.0
C      1  0.4578000000000  0.5742970000000  0.4800140000000 1.0
C      1  0.4465120000000  0.4272770000000  0.4687930000000 1.0
C      1  0.5037690000000  0.4278630000000  0.5454510000000 1.0
C      1  0.5472820000000  0.4311960000000  0.4781420000000 1.0
C      1  0.5110100000000  0.4997670000000  0.5274330000000 1.0
C      1  0.4692080000000  0.4934830000000  0.4990100000000 1.0
C      1  0.5156970000000  0.5003200000000  0.4776480000000 1.0
C      1  0.4801170000000  0.5028870000000  0.5277820000000 1.0
C      1  0.5211810000000  0.5172140000000  0.5040020000000 1.0
C      1  0.4862290000000  0.5061450000000  0.4714160000000 1.0
C      1  0.4908420000000  0.4552200000000  0.4569020000000 1.0
C      1  0.5521310000000  0.4671510000000  0.5231680000000 1.0
C      1  0.4594960000000  0.4593940000000  0.5405110000000 1.0
C      1  0.5168420000000  0.5415950000000  0.4399160000000 1.0
C      1  0.4376810000000  0.5379790000000  0.5195300000000 1.0
C      1  0.5451990000000  0.5355020000000  0.5402320000000 1.0
C      1  0.5545640000000  0.4384580000000  0.5241910000000 1.0
C      1  0.4574970000000  0.4317370000000  0.5372450000000 1.0
C      1  0.4838670000000  0.4326200000000  0.4373220000000 1.0
C      1  0.4408800000000  0.5656700000000  0.5236560000000 1.0
C      1  0.5481780000000  0.5609950000000  0.5293480000000 1.0
C      1  0.5210520000000  0.5701340000000  0.4357390000000 1.0
END
