TITL C-9266-5713-226 -1.62332022473942e-06 125000 -368.006850275372 0 0 60 (C1) n - 1
REM
REM in /home/bkarasulu/CARBON/AIRSS/Generating-Clusters/EDIP-Nigel-Params/Higher-Symm/Box-15A/Only-C60/SD-CG/HFTN-CG
REM
REM
REM
REM
REM
REM ./C.cell (414f73aa93bd7a1190c7fd0f31ff2f98)
REM
REM compiler GCC version 9.2.1 20190827 (Red Hat 9.2.1-1)
REM options -cpp -mtune=generic -march=x86-64 -g -O0 -fpre-include=/usr/include/finclude/math-vector-fortran.h
REM seed -215685442 159609426 -779444296 -584662219 -517259757 -1357623111 1374424470 -2122223546 263817463 411500410 -965363848 -1912228761 -35601335 -1129303385 -1891644614 311862062 -1251329079 103665318 1246938194 1553596334 118856672 1676578653 1480324334 234169653 -1070417699 992559944 -1554845702 -1511360629 683079858 -879674532 833639809 -751742571 719081329
REM
CELL 1.54180   50.00000   50.00000   50.00000   90.00000   90.00000   90.00000
LATT -1
SFAC C  
C      1  0.5131080000000  0.5848640000000  0.5259380000000 1.0
C      1  0.5123490000000  0.5015380000000  0.5886560000000 1.0
C      1  0.5123020000000  0.4166290000000  0.5295340000000 1.0
C      1  0.5149920000000  0.4499140000000  0.4318490000000 1.0
C      1  0.5148560000000  0.5499470000000  0.4309660000000 1.0
C      1  0.5129370000000  0.5851360000000  0.4738730000000 1.0
C      1  0.5123020000000  0.5019340000000  0.4111450000000 1.0
C      1  0.5148730000000  0.4195850000000  0.4738240000000 1.0
C      1  0.5148900000000  0.4498460000000  0.5688260000000 1.0
C      1  0.5152040000000  0.5494570000000  0.5686920000000 1.0
C      1  0.4912170000000  0.4260020000000  0.4868150000000 1.0
C      1  0.4898820000000  0.4909290000000  0.4232390000000 1.0
C      1  0.4898080000000  0.5712070000000  0.4669990000000 1.0
C      1  0.4912010000000  0.5525870000000  0.5549310000000 1.0
C      1  0.4908750000000  0.4638160000000  0.5668930000000 1.0
C      1  0.4897490000000  0.4242520000000  0.5153150000000 1.0
C      1  0.4895430000000  0.4904700000000  0.5772910000000 1.0
C      1  0.4900140000000  0.5709240000000  0.5328900000000 1.0
C      1  0.4909570000000  0.5528790000000  0.4449370000000 1.0
C      1  0.4913230000000  0.4643280000000  0.4337070000000 1.0
C      1  0.5397680000000  0.5367880000000  0.4324040000000 1.0
C      1  0.5365390000000  0.5736190000000  0.5154000000000 1.0
C      1  0.5366290000000  0.5060690000000  0.5755640000000 1.0
C      1  0.5370690000000  0.4294670000000  0.5308430000000 1.0
C      1  0.5406950000000  0.4468990000000  0.4429130000000 1.0
C      1  0.5398590000000  0.5358890000000  0.5666060000000 1.0
C      1  0.5365240000000  0.5739070000000  0.4840720000000 1.0
C      1  0.5369390000000  0.5070730000000  0.4232780000000 1.0
C      1  0.5406230000000  0.4290570000000  0.4677380000000 1.0
C      1  0.5400970000000  0.4467040000000  0.5564640000000 1.0
C      1  0.5495370000000  0.4709930000000  0.5382450000000 1.0
C      1  0.5516160000000  0.4519080000000  0.4854550000000 1.0
C      1  0.5412610000000  0.4976000000000  0.4522490000000 1.0
C      1  0.5389800000000  0.5429790000000  0.4839080000000 1.0
C      1  0.5466910000000  0.5257850000000  0.5375590000000 1.0
C      1  0.5516050000000  0.4709400000000  0.4589220000000 1.0
C      1  0.5419290000000  0.4540420000000  0.5131740000000 1.0
C      1  0.5390790000000  0.4969940000000  0.5461900000000 1.0
C      1  0.5387710000000  0.5427110000000  0.5150200000000 1.0
C      1  0.5476540000000  0.5266630000000  0.4611660000000 1.0
C      1  0.4447950000000  0.4484310000000  0.4863710000000 1.0
C      1  0.4447980000000  0.4984200000000  0.4473170000000 1.0
C      1  0.4442750000000  0.5517480000000  0.4808990000000 1.0
C      1  0.4446800000000  0.5346330000000  0.5419110000000 1.0
C      1  0.4442420000000  0.4707370000000  0.5457030000000 1.0
C      1  0.4442650000000  0.4484060000000  0.5147680000000 1.0
C      1  0.4446890000000  0.4981590000000  0.5531120000000 1.0
C      1  0.4444040000000  0.5514830000000  0.5190420000000 1.0
C      1  0.4444520000000  0.5350710000000  0.4579060000000 1.0
C      1  0.4451140000000  0.4713580000000  0.4559020000000 1.0
C      1  0.4680070000000  0.5073770000000  0.5677480000000 1.0
C      1  0.4673050000000  0.4371150000000  0.5285140000000 1.0
C      1  0.4691500000000  0.4558270000000  0.4502050000000 1.0
C      1  0.4680170000000  0.5355340000000  0.4405900000000 1.0
C      1  0.4673730000000  0.5688530000000  0.5146040000000 1.0
C      1  0.4679790000000  0.5076520000000  0.4323860000000 1.0
C      1  0.4688200000000  0.4382650000000  0.4732020000000 1.0
C      1  0.4677770000000  0.4544150000000  0.5518420000000 1.0
C      1  0.4683530000000  0.5351080000000  0.5590750000000 1.0
C      1  0.4672590000000  0.5690770000000  0.4854160000000 1.0
END
