TITL C-9266-5713-256 -5.69726645300493e-05 125000 -362.860216976261 0 0 60 (C1) n - 1
REM
REM in /home/bkarasulu/CARBON/AIRSS/Generating-Clusters/EDIP-Nigel-Params/Higher-Symm/Box-15A/Only-C60/SD-CG/HFTN-CG
REM
REM
REM
REM
REM
REM ./C.cell (414f73aa93bd7a1190c7fd0f31ff2f98)
REM
REM compiler GCC version 9.2.1 20190827 (Red Hat 9.2.1-1)
REM options -cpp -mtune=generic -march=x86-64 -g -O0 -fpre-include=/usr/include/finclude/math-vector-fortran.h
REM seed -844318523 -1595877440 -2125916717 1001489618 -1375531934 433392458 1190184090 -54123014 -130603419 1797261212 -468603571 -1205284241 679831134 1895781739 1360547154 259722828 828782294 -316384415 1354575338 -176395490 -663613359 -168095217 754999857 -1401294780 285861925 -454680440 -1884775796 590155246 2029205572 -1872221412 1470584908 799417805 2098252413
REM
CELL 1.54180   50.00000   50.00000   50.00000   90.00000   90.00000   90.00000
LATT -1
SFAC C  
C      1  0.4642930000000  0.4970350000000  0.4476210000000 1.0
C      1  0.5316510000000  0.5041660000000  0.5562700000000 1.0
C      1  0.4625340000000  0.5359600000000  0.5460390000000 1.0
C      1  0.5362390000000  0.4654990000000  0.4518400000000 1.0
C      1  0.5489230000000  0.5177180000000  0.5034150000000 1.0
C      1  0.4510310000000  0.4825050000000  0.4983130000000 1.0
C      1  0.4477300000000  0.4513290000000  0.4943550000000 1.0
C      1  0.5528380000000  0.5475400000000  0.5096870000000 1.0
C      1  0.5290020000000  0.4630720000000  0.5044420000000 1.0
C      1  0.4742970000000  0.5339530000000  0.4982820000000 1.0
C      1  0.4859540000000  0.4286390000000  0.4730660000000 1.0
C      1  0.5126240000000  0.5739050000000  0.5215810000000 1.0
C      1  0.5207040000000  0.5495580000000  0.5408860000000 1.0
C      1  0.4773890000000  0.4554580000000  0.4611030000000 1.0
C      1  0.5355740000000  0.4450720000000  0.5269900000000 1.0
C      1  0.4638200000000  0.5570790000000  0.4855470000000 1.0
C      1  0.5400220000000  0.5376920000000  0.4597070000000 1.0
C      1  0.4662600000000  0.4548740000000  0.5417170000000 1.0
C      1  0.4391580000000  0.4975220000000  0.5185490000000 1.0
C      1  0.5492480000000  0.5136550000000  0.4736840000000 1.0
C      1  0.5182880000000  0.5509860000000  0.4759210000000 1.0
C      1  0.4862590000000  0.4465750000000  0.5225580000000 1.0
C      1  0.5221040000000  0.4531980000000  0.4758190000000 1.0
C      1  0.4813540000000  0.5445210000000  0.5246230000000 1.0
C      1  0.5136470000000  0.4753820000000  0.4315970000000 1.0
C      1  0.4815060000000  0.5211940000000  0.5632930000000 1.0
C      1  0.4909170000000  0.4759530000000  0.4806980000000 1.0
C      1  0.5125130000000  0.5195040000000  0.5161370000000 1.0
C      1  0.4448370000000  0.4865940000000  0.4680310000000 1.0
C      1  0.5537470000000  0.5159170000000  0.5420250000000 1.0
C      1  0.4965500000000  0.5033410000000  0.4678620000000 1.0
C      1  0.4995970000000  0.4943840000000  0.5272110000000 1.0
C      1  0.4713010000000  0.4325760000000  0.4996850000000 1.0
C      1  0.5311240000000  0.5653730000000  0.4992050000000 1.0
C      1  0.4892580000000  0.5394960000000  0.4299190000000 1.0
C      1  0.5109810000000  0.4591370000000  0.5728570000000 1.0
C      1  0.5005690000000  0.5267020000000  0.4877620000000 1.0
C      1  0.5001910000000  0.4707300000000  0.5100970000000 1.0
C      1  0.4871130000000  0.4730230000000  0.5798910000000 1.0
C      1  0.5143710000000  0.5243180000000  0.4263070000000 1.0
C      1  0.5110440000000  0.5265870000000  0.5598040000000 1.0
C      1  0.4857190000000  0.4675620000000  0.4350560000000 1.0
C      1  0.4791250000000  0.4950560000000  0.5493530000000 1.0
C      1  0.5171900000000  0.5020710000000  0.4459110000000 1.0
C      1  0.5036520000000  0.5693750000000  0.4591110000000 1.0
C      1  0.5096980000000  0.4330400000000  0.5368230000000 1.0
C      1  0.5378730000000  0.5388910000000  0.4313100000000 1.0
C      1  0.4632510000000  0.4650320000000  0.5672000000000 1.0
C      1  0.4439250000000  0.5173100000000  0.5362110000000 1.0
C      1  0.5527390000000  0.4884900000000  0.4602510000000 1.0
C      1  0.4673170000000  0.5272800000000  0.4451210000000 1.0
C      1  0.5323060000000  0.4744710000000  0.5603020000000 1.0
C      1  0.5511320000000  0.4578060000000  0.5473880000000 1.0
C      1  0.4541880000000  0.5466720000000  0.4611550000000 1.0
C      1  0.5083600000000  0.4320080000000  0.5651270000000 1.0
C      1  0.4931000000000  0.5673860000000  0.4340530000000 1.0
C      1  0.4464560000000  0.4562920000000  0.4635310000000 1.0
C      1  0.5502200000000  0.5445270000000  0.5384680000000 1.0
C      1  0.4833250000000  0.5735840000000  0.5147780000000 1.0
C      1  0.5138630000000  0.4254260000000  0.4744530000000 1.0
END
