TITL C-9261-551-102 -4.21589493300763e-06 125000 -345.150336484411 0 0 60 (C3) n - 1
REM
REM in /home/bkarasulu/CARBON/AIRSS/Generating-Clusters/EDIP-Nigel-Params/Higher-Symm/Box-15A/Only-C60/SD-CG/HFTN-CG
REM
REM
REM
REM
REM
REM ./C.cell (414f73aa93bd7a1190c7fd0f31ff2f98)
REM
REM compiler GCC version 9.2.1 20190827 (Red Hat 9.2.1-1)
REM options -cpp -mtune=generic -march=x86-64 -g -O0 -fpre-include=/usr/include/finclude/math-vector-fortran.h
REM seed 757819396 1813547542 941985593 582097282 -1700918760 -1948843442 -500975618 -352338403 -1104641895 1332000988 1550858013 -1669707918 2030030202 1909435387 -305703033 1923336269 -632726223 774622529 166438264 -1504917956 1965721561 -1102134343 -226394712 1294938399 -1431762011 844286183 -1828788838 -603221609 1001218841 -210117063 -1813593825 948393528 -951865352
REM
CELL 1.54180   50.00000   50.00000   50.00000   90.00000   90.00000   90.00000
LATT -1
SFAC C  
C      1  0.4852830000000  0.5094090000000  0.4496460000000 1.0
C      1  0.5155030000000  0.5080460000000  0.4496460000000 1.0
C      1  0.4992130000000  0.4825560000000  0.4496440000000 1.0
C      1  0.5430340000000  0.5471460000000  0.5317010000000 1.0
C      1  0.5193160000000  0.4391550000000  0.5316930000000 1.0
C      1  0.4376520000000  0.5136910000000  0.5316990000000 1.0
C      1  0.5831000000000  0.5374120000000  0.4919570000000 1.0
C      1  0.4908490000000  0.4093280000000  0.4919480000000 1.0
C      1  0.4260510000000  0.5532620000000  0.4919590000000 1.0
C      1  0.5230190000000  0.4699080000000  0.5006290000000 1.0
C      1  0.4624300000000  0.4951110000000  0.5006310000000 1.0
C      1  0.5145510000000  0.5349810000000  0.5006340000000 1.0
C      1  0.4987060000000  0.5251650000000  0.5464740000000 1.0
C      1  0.5224440000000  0.4885330000000  0.5464710000000 1.0
C      1  0.4788510000000  0.4862910000000  0.5464710000000 1.0
C      1  0.5389000000000  0.4453820000000  0.5067020000000 1.0
C      1  0.4332500000000  0.4936200000000  0.5067060000000 1.0
C      1  0.5278500000000  0.5609960000000  0.5067110000000 1.0
C      1  0.5355400000000  0.4898120000000  0.5193010000000 1.0
C      1  0.4734080000000  0.4743140000000  0.5193010000000 1.0
C      1  0.4910520000000  0.5358700000000  0.5193050000000 1.0
C      1  0.5190110000000  0.4588100000000  0.5549950000000 1.0
C      1  0.4548280000000  0.5041250000000  0.5549990000000 1.0
C      1  0.5261630000000  0.5370520000000  0.5550010000000 1.0
C      1  0.5173210000000  0.5575640000000  0.4518670000000 1.0
C      1  0.5411880000000  0.4562230000000  0.4518590000000 1.0
C      1  0.4414900000000  0.4862240000000  0.4518620000000 1.0
C      1  0.4797190000000  0.5657790000000  0.4523980000000 1.0
C      1  0.5671030000000  0.4846800000000  0.4523910000000 1.0
C      1  0.4531770000000  0.4495520000000  0.4523890000000 1.0
C      1  0.4945080000000  0.4300230000000  0.4739260000000 1.0
C      1  0.4421420000000  0.5397470000000  0.4739350000000 1.0
C      1  0.5633490000000  0.5302360000000  0.4739330000000 1.0
C      1  0.4569940000000  0.5697000000000  0.5243260000000 1.0
C      1  0.5818670000000  0.5023920000000  0.5243200000000 1.0
C      1  0.4611400000000  0.4279030000000  0.5243150000000 1.0
C      1  0.5730030000000  0.5286140000000  0.5170720000000 1.0
C      1  0.4882800000000  0.4224690000000  0.5170650000000 1.0
C      1  0.4387170000000  0.5489130000000  0.5170750000000 1.0
C      1  0.4842760000000  0.5642820000000  0.5235690000000 1.0
C      1  0.5635330000000  0.4814740000000  0.5235620000000 1.0
C      1  0.4521910000000  0.4542390000000  0.5235610000000 1.0
C      1  0.4996500000000  0.5660910000000  0.4729000000000 1.0
C      1  0.5574090000000  0.4672610000000  0.4728920000000 1.0
C      1  0.4429400000000  0.4666550000000  0.4728930000000 1.0
C      1  0.4556220000000  0.5507090000000  0.4516480000000 1.0
C      1  0.5661010000000  0.5130830000000  0.4516440000000 1.0
C      1  0.4782760000000  0.4362180000000  0.4516390000000 1.0
C      1  0.4962730000000  0.4584810000000  0.5071550000000 1.0
C      1  0.4659070000000  0.5239870000000  0.5071600000000 1.0
C      1  0.5378200000000  0.5175310000000  0.5071590000000 1.0
C      1  0.4755250000000  0.5219340000000  0.5640310000000 1.0
C      1  0.5312380000000  0.5102220000000  0.5640290000000 1.0
C      1  0.4932390000000  0.4678290000000  0.5640260000000 1.0
C      1  0.5042380000000  0.5786390000000  0.5088100000000 1.0
C      1  0.5659850000000  0.4570100000000  0.5088010000000 1.0
C      1  0.4297770000000  0.4643490000000  0.5088020000000 1.0
C      1  0.5116860000000  0.4559680000000  0.4509150000000 1.0
C      1  0.4560210000000  0.5119010000000  0.4509200000000 1.0
C      1  0.5322920000000  0.5321420000000  0.4509210000000 1.0
END
