TITL C-9262-5533-68 0.00782194254550529 125000 -358.845818944988 0 0 60 (C1) n - 1
REM
REM in /home/bkarasulu/CARBON/AIRSS/Generating-Clusters/EDIP-Nigel-Params/Higher-Symm/Box-15A/Only-C60/SD-CG/HFTN-CG
REM
REM
REM
REM
REM
REM ./C.cell (414f73aa93bd7a1190c7fd0f31ff2f98)
REM
REM compiler GCC version 9.2.1 20190827 (Red Hat 9.2.1-1)
REM options -cpp -mtune=generic -march=x86-64 -g -O0 -fpre-include=/usr/include/finclude/math-vector-fortran.h
REM seed 1258712452 657180451 911525981 -1507711227 -343387687 -1166259351 -935534806 -1842154414 -1216459707 -1958335048 -1458094670 -10437339 644444499 1401899998 1630146892 -1828864623 520195356 -1876774459 -2115218067 -681555588 228362977 -1032749760 429729651 -1744786408 -1511889228 -36221248 -252607408 1051364550 522412982 -256041654 -1972837657 -978659267 -1926957686
REM
CELL 1.54180   50.00000   50.00000   50.00000   90.00000   90.00000   90.00000
LATT -1
SFAC C  
C      1  0.5723480000000  0.5167000000000  0.4664780000000 1.0
C      1  0.5752880000000  0.5158010000000  0.5373270000000 1.0
C      1  0.5188140000000  0.5126510000000  0.5815950000000 1.0
C      1  0.4469690000000  0.5097400000000  0.5637720000000 1.0
C      1  0.4128880000000  0.5116230000000  0.4987660000000 1.0
C      1  0.4469210000000  0.5131660000000  0.4343050000000 1.0
C      1  0.5177330000000  0.5145060000000  0.4216960000000 1.0
C      1  0.4610070000000  0.5242250000000  0.4891040000000 1.0
C      1  0.4836760000000  0.5207780000000  0.4689160000000 1.0
C      1  0.5144690000000  0.5209360000000  0.4724960000000 1.0
C      1  0.5327530000000  0.5251030000000  0.4972780000000 1.0
C      1  0.5285510000000  0.5337200000000  0.5273830000000 1.0
C      1  0.5007780000000  0.5226170000000  0.5349690000000 1.0
C      1  0.4642930000000  0.5276280000000  0.5194300000000 1.0
C      1  0.4175400000000  0.5094520000000  0.5260050000000 1.0
C      1  0.4287170000000  0.5077490000000  0.4542340000000 1.0
C      1  0.4907130000000  0.5107030000000  0.4194690000000 1.0
C      1  0.5567040000000  0.5171150000000  0.4441020000000 1.0
C      1  0.5812850000000  0.5190780000000  0.5107450000000 1.0
C      1  0.5445970000000  0.5131230000000  0.5719700000000 1.0
C      1  0.4715120000000  0.5129360000000  0.5765000000000 1.0
C      1  0.4739680000000  0.5174300000000  0.4410960000000 1.0
C      1  0.5290610000000  0.5213270000000  0.4465450000000 1.0
C      1  0.5618280000000  0.5252730000000  0.4911880000000 1.0
C      1  0.5504390000000  0.5247120000000  0.5468740000000 1.0
C      1  0.4969450000000  0.5138230000000  0.5637570000000 1.0
C      1  0.4417620000000  0.5189190000000  0.5373520000000 1.0
C      1  0.4334770000000  0.5177600000000  0.4802690000000 1.0
C      1  0.4923530000000  0.4607460000000  0.4659470000000 1.0
C      1  0.5205860000000  0.4579510000000  0.4685450000000 1.0
C      1  0.5346520000000  0.4636800000000  0.4926090000000 1.0
C      1  0.5282700000000  0.4573470000000  0.5195120000000 1.0
C      1  0.5005900000000  0.4563750000000  0.5287300000000 1.0
C      1  0.4837640000000  0.4760840000000  0.5122430000000 1.0
C      1  0.4746080000000  0.4625750000000  0.4877890000000 1.0
C      1  0.4704010000000  0.4796290000000  0.5566770000000 1.0
C      1  0.4369920000000  0.4822770000000  0.5063470000000 1.0
C      1  0.4544980000000  0.4788880000000  0.4507920000000 1.0
C      1  0.5086730000000  0.4773790000000  0.4281990000000 1.0
C      1  0.5580680000000  0.4813290000000  0.4591290000000 1.0
C      1  0.5659150000000  0.4839460000000  0.5173300000000 1.0
C      1  0.5262940000000  0.4811360000000  0.5600490000000 1.0
C      1  0.4766130000000  0.5770910000000  0.5178580000000 1.0
C      1  0.4805020000000  0.5830290000000  0.4904910000000 1.0
C      1  0.5034360000000  0.5710520000000  0.4775840000000 1.0
C      1  0.5279770000000  0.5836520000000  0.4824520000000 1.0
C      1  0.5344600000000  0.5789480000000  0.5082630000000 1.0
C      1  0.5249470000000  0.5634610000000  0.5295560000000 1.0
C      1  0.4967480000000  0.5665450000000  0.5347350000000 1.0
C      1  0.5334090000000  0.4682760000000  0.4451830000000 1.0
C      1  0.5609280000000  0.4729180000000  0.4887500000000 1.0
C      1  0.5448900000000  0.4725460000000  0.5370000000000 1.0
C      1  0.4990260000000  0.4675510000000  0.5561740000000 1.0
C      1  0.4591630000000  0.4790580000000  0.5278790000000 1.0
C      1  0.4483470000000  0.4705470000000  0.4799370000000 1.0
C      1  0.4816770000000  0.4671280000000  0.4402750000000 1.0
C      1  0.4902850000000  0.4298870000000  0.5277740000000 1.0
C      1  0.4947500000000  0.5070250000000  0.5079590000000 1.0
C      1  0.4958270000000  0.5487110000000  0.5002070000000 1.0
C      1  0.4788980000000  0.4070820000000  0.5250350000000 1.0
END
