TITL C-9264-7143-28 -3.49445547904452e-06 125000 -361.478126636459 0 0 60 (C1) n - 1
REM
REM in /home/bkarasulu/CARBON/AIRSS/Generating-Clusters/EDIP-Nigel-Params/Higher-Symm/Box-15A/Only-C60/SD-CG/HFTN-CG
REM
REM
REM
REM
REM
REM ./C.cell (414f73aa93bd7a1190c7fd0f31ff2f98)
REM
REM compiler GCC version 9.2.1 20190827 (Red Hat 9.2.1-1)
REM options -cpp -mtune=generic -march=x86-64 -g -O0 -fpre-include=/usr/include/finclude/math-vector-fortran.h
REM seed 1660087332 -1109802316 1637770984 1491721650 1277092390 348586459 -922681683 -1765736921 72756195 718833687 740557111 -162723749 462015611 -1435878569 714800473 1056336449 -488051785 -89383912 1452170808 852988430 -484223840 1844044026 1616350014 -1139974302 -208839928 -26211474 1733871666 -371996042 1874475114 237365753 39211572 -717674581 -1102634632
REM
CELL 1.54180   50.00000   50.00000   50.00000   90.00000   90.00000   90.00000
LATT -1
SFAC C  
C      1  0.4582430000000  0.4606740000000  0.5456330000000 1.0
C      1  0.4656870000000  0.5084690000000  0.5492560000000 1.0
C      1  0.4549580000000  0.5571140000000  0.5330770000000 1.0
C      1  0.4568830000000  0.5688390000000  0.4791230000000 1.0
C      1  0.4528320000000  0.5260330000000  0.4410530000000 1.0
C      1  0.4683440000000  0.4692970000000  0.4563900000000 1.0
C      1  0.4581510000000  0.4328730000000  0.4998100000000 1.0
C      1  0.4454020000000  0.4726090000000  0.4743190000000 1.0
C      1  0.4485180000000  0.4592880000000  0.4996450000000 1.0
C      1  0.4501980000000  0.4759530000000  0.5231690000000 1.0
C      1  0.4518220000000  0.5065620000000  0.5240190000000 1.0
C      1  0.4486100000000  0.5354800000000  0.5154270000000 1.0
C      1  0.4494810000000  0.5429640000000  0.4877380000000 1.0
C      1  0.4426550000000  0.5241920000000  0.4674260000000 1.0
C      1  0.5276050000000  0.5117670000000  0.5613510000000 1.0
C      1  0.5247130000000  0.5496320000000  0.5305680000000 1.0
C      1  0.5230300000000  0.5508970000000  0.4807670000000 1.0
C      1  0.5206110000000  0.5170020000000  0.4432330000000 1.0
C      1  0.5275860000000  0.4586050000000  0.4491750000000 1.0
C      1  0.5255830000000  0.4446600000000  0.4958440000000 1.0
C      1  0.5251710000000  0.4633480000000  0.5417330000000 1.0
C      1  0.4940220000000  0.4756660000000  0.4916420000000 1.0
C      1  0.4886740000000  0.4550410000000  0.5182210000000 1.0
C      1  0.4909910000000  0.4903240000000  0.5489050000000 1.0
C      1  0.4914150000000  0.5238890000000  0.5174830000000 1.0
C      1  0.4877670000000  0.5544330000000  0.5068840000000 1.0
C      1  0.4859570000000  0.5331270000000  0.4647880000000 1.0
C      1  0.4842340000000  0.4941300000000  0.4540540000000 1.0
C      1  0.4978230000000  0.5267440000000  0.4285030000000 1.0
C      1  0.5048590000000  0.4425470000000  0.4445790000000 1.0
C      1  0.5059430000000  0.4246360000000  0.4958600000000 1.0
C      1  0.5039640000000  0.4481880000000  0.5531030000000 1.0
C      1  0.5020270000000  0.5191700000000  0.5723250000000 1.0
C      1  0.5042610000000  0.5680730000000  0.5398400000000 1.0
C      1  0.5045730000000  0.5719610000000  0.4770110000000 1.0
C      1  0.5574340000000  0.5204200000000  0.4732110000000 1.0
C      1  0.5510710000000  0.4929720000000  0.4655630000000 1.0
C      1  0.5618590000000  0.4705250000000  0.4808470000000 1.0
C      1  0.5593990000000  0.4727120000000  0.5113090000000 1.0
C      1  0.5640070000000  0.4918030000000  0.5392560000000 1.0
C      1  0.5648290000000  0.5220310000000  0.5339480000000 1.0
C      1  0.5571120000000  0.5282830000000  0.5034140000000 1.0
C      1  0.5398410000000  0.4521030000000  0.5196900000000 1.0
C      1  0.5400080000000  0.4850160000000  0.5560100000000 1.0
C      1  0.5419090000000  0.5340840000000  0.5488660000000 1.0
C      1  0.5380150000000  0.5507970000000  0.5050460000000 1.0
C      1  0.5365880000000  0.5361590000000  0.4592890000000 1.0
C      1  0.5276960000000  0.4885970000000  0.4488290000000 1.0
C      1  0.5430190000000  0.4491770000000  0.4726240000000 1.0
C      1  0.4806870000000  0.5637620000000  0.4647060000000 1.0
C      1  0.4740800000000  0.5105340000000  0.4302060000000 1.0
C      1  0.4871290000000  0.4497930000000  0.4648740000000 1.0
C      1  0.4824870000000  0.4250360000000  0.5110540000000 1.0
C      1  0.4819760000000  0.4643710000000  0.5605520000000 1.0
C      1  0.4832350000000  0.5318200000000  0.5538550000000 1.0
C      1  0.4777620000000  0.5741870000000  0.5291570000000 1.0
C      1  0.5089910000000  0.4944630000000  0.5149520000000 1.0
C      1  0.4781650000000  0.5091260000000  0.4888320000000 1.0
C      1  0.4378500000000  0.4990520000000  0.4770640000000 1.0
C      1  0.5405870000000  0.4987510000000  0.5077900000000 1.0
END
