TITL C-9255-4564-295 -1.04188277161765e-06 125000 -355.172628012138 0 0 60 (C3i) n - 1
REM
REM in /home/bkarasulu/CARBON/AIRSS/Generating-Clusters/EDIP-Nigel-Params/Higher-Symm/Box-15A/Only-C60/SD-CG/HFTN-CG
REM
REM
REM
REM
REM
REM ./C.cell (414f73aa93bd7a1190c7fd0f31ff2f98)
REM
REM compiler GCC version 9.2.1 20190827 (Red Hat 9.2.1-1)
REM options -cpp -mtune=generic -march=x86-64 -g -O0 -fpre-include=/usr/include/finclude/math-vector-fortran.h
REM seed -1474539811 -67613384 698759394 -1176157231 -1940465504 1164286216 -626712271 -1376406087 1434627123 299695034 804389275 -713963562 742336659 1557449921 468154808 1900078881 609006602 357914582 -491407504 335551039 -1522733773 711503704 1714177450 -2085176306 1768847653 363194619 1602907616 885324520 -1141444278 2005673557 1417090416 723812342 798209651
REM
CELL 1.54180   50.00000   50.00000   50.00000   90.00000   90.00000   90.00000
LATT -1
SFAC C  
C      1  0.4974380000000  0.4615240000000  0.4613290000000 1.0
C      1  0.5320390000000  0.4785420000000  0.5386720000000 1.0
C      1  0.5346050000000  0.5170180000000  0.4613300000000 1.0
C      1  0.5025620000000  0.5384760000000  0.5386710000000 1.0
C      1  0.4679610000000  0.5214580000000  0.4613280000000 1.0
C      1  0.4653950000000  0.4829820000000  0.5386700000000 1.0
C      1  0.5613590000000  0.5121190000000  0.4747020000000 1.0
C      1  0.5201830000000  0.5591970000000  0.5253000000000 1.0
C      1  0.4588260000000  0.5470780000000  0.4747000000000 1.0
C      1  0.4386410000000  0.4878810000000  0.5252980000000 1.0
C      1  0.4798170000000  0.4408030000000  0.4747000000000 1.0
C      1  0.5411740000000  0.4529220000000  0.5253000000000 1.0
C      1  0.4540090000000  0.4517700000000  0.4834850000000 1.0
C      1  0.5187720000000  0.4360550000000  0.5165130000000 1.0
C      1  0.5647640000000  0.4842850000000  0.4834890000000 1.0
C      1  0.5459910000000  0.5482300000000  0.5165150000000 1.0
C      1  0.4812280000000  0.5639450000000  0.4834870000000 1.0
C      1  0.4352360000000  0.5157150000000  0.5165110000000 1.0
C      1  0.5454110000000  0.5181480000000  0.5571330000000 1.0
C      1  0.5069920000000  0.5484030000000  0.4428690000000 1.0
C      1  0.4615750000000  0.5302550000000  0.5571300000000 1.0
C      1  0.4545890000000  0.4818520000000  0.4428670000000 1.0
C      1  0.4930080000000  0.4515970000000  0.5571310000000 1.0
C      1  0.5384250000000  0.4697450000000  0.4428700000000 1.0
C      1  0.4401220000000  0.4688000000000  0.4649210000000 1.0
C      1  0.4970790000000  0.4325430000000  0.5350770000000 1.0
C      1  0.5569610000000  0.4637430000000  0.4649240000000 1.0
C      1  0.5598780000000  0.5312000000000  0.5350790000000 1.0
C      1  0.5029210000000  0.5674570000000  0.4649230000000 1.0
C      1  0.4430390000000  0.5362570000000  0.5350760000000 1.0
C      1  0.5542160000000  0.5466020000000  0.4886800000000 1.0
C      1  0.4867490000000  0.5702530000000  0.5113220000000 1.0
C      1  0.4325340000000  0.5236510000000  0.4886760000000 1.0
C      1  0.4457840000000  0.4533980000000  0.5113200000000 1.0
C      1  0.5132510000000  0.4297470000000  0.4886780000000 1.0
C      1  0.5674660000000  0.4763490000000  0.5113240000000 1.0
C      1  0.4772190000000  0.4829230000000  0.5046310000000 1.0
C      1  0.5033990000000  0.4717330000000  0.4953680000000 1.0
C      1  0.5261790000000  0.4888100000000  0.5046320000000 1.0
C      1  0.5227810000000  0.5170770000000  0.4953690000000 1.0
C      1  0.4966010000000  0.5282670000000  0.5046320000000 1.0
C      1  0.4738210000000  0.5111900000000  0.4953680000000 1.0
C      1  0.5353160000000  0.5435600000000  0.4471520000000 1.0
C      1  0.4799320000000  0.5523630000000  0.5528490000000 1.0
C      1  0.4446200000000  0.5088040000000  0.4471490000000 1.0
C      1  0.4646840000000  0.4564400000000  0.5528480000000 1.0
C      1  0.5200680000000  0.4476370000000  0.4471510000000 1.0
C      1  0.5553800000000  0.4911960000000  0.5528510000000 1.0
C      1  0.4780480000000  0.5053530000000  0.5554670000000 1.0
C      1  0.4843910000000  0.4836680000000  0.4445320000000 1.0
C      1  0.5063370000000  0.4783140000000  0.5554680000000 1.0
C      1  0.5219520000000  0.4946470000000  0.4445330000000 1.0
C      1  0.5156090000000  0.5163320000000  0.5554680000000 1.0
C      1  0.4936630000000  0.5216860000000  0.4445320000000 1.0
C      1  0.5405400000000  0.5621950000000  0.4686870000000 1.0
C      1  0.4664060000000  0.5662050000000  0.5313130000000 1.0
C      1  0.4258690000000  0.5040100000000  0.4686840000000 1.0
C      1  0.4594600000000  0.4378050000000  0.5313130000000 1.0
C      1  0.5335940000000  0.4337950000000  0.4686870000000 1.0
C      1  0.5741310000000  0.4959900000000  0.5313160000000 1.0
END
