TITL C-9257-5531-271 4.2439901030949e-07 125000 -365.626617685228 0 0 60 (Cs) n - 1
REM
REM in /home/bkarasulu/CARBON/AIRSS/Generating-Clusters/EDIP-Nigel-Params/Higher-Symm/Box-15A/Only-C60/SD-CG/HFTN-CG
REM
REM
REM
REM
REM
REM ./C.cell (414f73aa93bd7a1190c7fd0f31ff2f98)
REM
REM compiler GCC version 9.2.1 20190827 (Red Hat 9.2.1-1)
REM options -cpp -mtune=generic -march=x86-64 -g -O0 -fpre-include=/usr/include/finclude/math-vector-fortran.h
REM seed -1216559024 -1948739295 -1920546114 1771669024 291619764 -1324891033 987037798 -1873214171 -1845916235 1536123593 -517256653 1722153370 398408741 -1229517154 -1180166210 -225396147 -1187461698 -805887492 -370312132 -2056196346 -1355676660 -445662137 -416909943 492667159 1955594677 241980278 797396833 -309285441 409454412 -1238139826 1991149036 1087615063 1184866489
REM
CELL 1.54180   50.00000   50.00000   50.00000   90.00000   90.00000   90.00000
LATT -1
SFAC C  
C      1  0.5142790000000  0.5133850000000  0.4740830000000 1.0
C      1  0.4713000000000  0.5123190000000  0.4990460000000 1.0
C      1  0.5144690000000  0.5120200000000  0.5239480000000 1.0
C      1  0.4857210000000  0.5133850000000  0.4740830000000 1.0
C      1  0.5287000000000  0.5123190000000  0.4990470000000 1.0
C      1  0.4855300000000  0.5120200000000  0.5239480000000 1.0
C      1  0.4334370000000  0.4805130000000  0.4806910000000 1.0
C      1  0.5144230000000  0.4803900000000  0.5675030000000 1.0
C      1  0.5517080000000  0.4820110000000  0.4556110000000 1.0
C      1  0.5665630000000  0.4805140000000  0.4806920000000 1.0
C      1  0.4855760000000  0.4803900000000  0.5675020000000 1.0
C      1  0.4482930000000  0.4820110000000  0.4556100000000 1.0
C      1  0.4446140000000  0.5264760000000  0.5438680000000 1.0
C      1  0.5708930000000  0.5246260000000  0.5217490000000 1.0
C      1  0.4866780000000  0.5275530000000  0.4280570000000 1.0
C      1  0.5553850000000  0.5264760000000  0.5438690000000 1.0
C      1  0.4291060000000  0.5246250000000  0.5217470000000 1.0
C      1  0.5133240000000  0.5275530000000  0.4280570000000 1.0
C      1  0.4702960000000  0.5255560000000  0.4513280000000 1.0
C      1  0.4726120000000  0.5241490000000  0.5481630000000 1.0
C      1  0.5557420000000  0.5251430000000  0.4972460000000 1.0
C      1  0.5297040000000  0.5255560000000  0.4513280000000 1.0
C      1  0.5273870000000  0.5241500000000  0.5481640000000 1.0
C      1  0.4442580000000  0.5251420000000  0.4972450000000 1.0
C      1  0.4687430000000  0.4406080000000  0.5355560000000 1.0
C      1  0.5458180000000  0.4410570000000  0.5105810000000 1.0
C      1  0.4854890000000  0.4431490000000  0.4565770000000 1.0
C      1  0.5312570000000  0.4406080000000  0.5355560000000 1.0
C      1  0.4541820000000  0.4410570000000  0.5105800000000 1.0
C      1  0.5145120000000  0.4431500000000  0.4565780000000 1.0
C      1  0.5135200000000  0.5704210000000  0.4613150000000 1.0
C      1  0.4595560000000  0.5700180000000  0.5072480000000 1.0
C      1  0.5267890000000  0.5694290000000  0.5305790000000 1.0
C      1  0.4864800000000  0.5704200000000  0.4613140000000 1.0
C      1  0.5404430000000  0.5700180000000  0.5072490000000 1.0
C      1  0.4732100000000  0.5694290000000  0.5305790000000 1.0
C      1  0.5518990000000  0.5080520000000  0.4450350000000 1.0
C      1  0.4235180000000  0.5065880000000  0.4877810000000 1.0
C      1  0.5236860000000  0.5066220000000  0.5708820000000 1.0
C      1  0.4481020000000  0.5080520000000  0.4450340000000 1.0
C      1  0.5764820000000  0.5065880000000  0.4877820000000 1.0
C      1  0.4763120000000  0.5066210000000  0.5708810000000 1.0
C      1  0.4637280000000  0.5537390000000  0.4614790000000 1.0
C      1  0.4850780000000  0.5520870000000  0.5493920000000 1.0
C      1  0.5514010000000  0.5536460000000  0.4870880000000 1.0
C      1  0.5362720000000  0.5537390000000  0.4614800000000 1.0
C      1  0.5149210000000  0.5520870000000  0.5493920000000 1.0
C      1  0.4485990000000  0.5536450000000  0.4870870000000 1.0
C      1  0.5312240000000  0.4640650000000  0.4492690000000 1.0
C      1  0.4388200000000  0.4620930000000  0.5011890000000 1.0
C      1  0.5295550000000  0.4615370000000  0.5536140000000 1.0
C      1  0.4687780000000  0.4640640000000  0.4492680000000 1.0
C      1  0.5611810000000  0.4620930000000  0.5011900000000 1.0
C      1  0.4704440000000  0.4615370000000  0.5536140000000 1.0
C      1  0.4594650000000  0.4209020000000  0.4923900000000 1.0
C      1  0.5133990000000  0.4198640000000  0.5394550000000 1.0
C      1  0.5269840000000  0.4219840000000  0.4692780000000 1.0
C      1  0.5405350000000  0.4209020000000  0.4923910000000 1.0
C      1  0.4866000000000  0.4198640000000  0.5394550000000 1.0
C      1  0.4730170000000  0.4219830000000  0.4692780000000 1.0
END
