TITL C-9262-5533-293 3.29808211060044e-05 125000 -373.603210851736 0 0 60 (D2) n - 1
REM
REM in /home/bkarasulu/CARBON/AIRSS/Generating-Clusters/EDIP-Nigel-Params/Higher-Symm/Box-15A/Only-C60/SD-CG/HFTN-CG
REM
REM
REM
REM
REM
REM ./C.cell (414f73aa93bd7a1190c7fd0f31ff2f98)
REM
REM compiler GCC version 9.2.1 20190827 (Red Hat 9.2.1-1)
REM options -cpp -mtune=generic -march=x86-64 -g -O0 -fpre-include=/usr/include/finclude/math-vector-fortran.h
REM seed -762556150 1888467354 -1926301135 453100260 -318379251 155340276 -1669486374 17908592 1798204247 -1329002657 594491720 1716933755 -976084333 -392896505 360411224 -2108136543 1773447661 -1724005759 1838177066 -485721715 1055827229 -1403040705 382884431 561007007 -577086844 -130215227 1364611009 -1544812314 -1099916605 728399304 -2063004704 1161128884 1694426082
REM
CELL 1.54180   50.00000   50.00000   50.00000   90.00000   90.00000   90.00000
LATT -1
SFAC C  
C      1  0.5577240000000  0.5047710000000  0.4669840000000 1.0
C      1  0.5593520000000  0.4948000000000  0.5299190000000 1.0
C      1  0.4423120000000  0.5032040000000  0.5332670000000 1.0
C      1  0.4406120000000  0.4972250000000  0.4698300000000 1.0
C      1  0.5060680000000  0.4734720000000  0.5787170000000 1.0
C      1  0.5020920000000  0.5264980000000  0.4210670000000 1.0
C      1  0.4937160000000  0.4785300000000  0.4197720000000 1.0
C      1  0.4981240000000  0.5215000000000  0.5804430000000 1.0
C      1  0.4757960000000  0.5453220000000  0.5469460000000 1.0
C      1  0.4730170000000  0.4548660000000  0.4544080000000 1.0
C      1  0.5246230000000  0.5479650000000  0.4559900000000 1.0
C      1  0.5265640000000  0.4518480000000  0.5426560000000 1.0
C      1  0.5295670000000  0.5037220000000  0.4584240000000 1.0
C      1  0.5316960000000  0.4960540000000  0.5399560000000 1.0
C      1  0.4704560000000  0.5013650000000  0.5417370000000 1.0
C      1  0.4682810000000  0.4988590000000  0.4598840000000 1.0
C      1  0.5698910000000  0.4796960000000  0.4696970000000 1.0
C      1  0.5715430000000  0.5197860000000  0.5265610000000 1.0
C      1  0.4299210000000  0.4784590000000  0.5289860000000 1.0
C      1  0.4286460000000  0.5220590000000  0.4747560000000 1.0
C      1  0.5114590000000  0.4890050000000  0.5173460000000 1.0
C      1  0.5106060000000  0.5109140000000  0.4820700000000 1.0
C      1  0.4884480000000  0.4902210000000  0.4820000000000 1.0
C      1  0.4894880000000  0.5098600000000  0.5185840000000 1.0
C      1  0.5483560000000  0.4615040000000  0.4672020000000 1.0
C      1  0.5503030000000  0.5381350000000  0.5301880000000 1.0
C      1  0.4512910000000  0.4599530000000  0.5303270000000 1.0
C      1  0.4500500000000  0.5404080000000  0.4722830000000 1.0
C      1  0.5702240000000  0.4693950000000  0.5256950000000 1.0
C      1  0.5689900000000  0.5300950000000  0.4706220000000 1.0
C      1  0.4295110000000  0.4717030000000  0.4724510000000 1.0
C      1  0.4312750000000  0.5288070000000  0.5312320000000 1.0
C      1  0.5236170000000  0.5296570000000  0.5753690000000 1.0
C      1  0.5193810000000  0.4701850000000  0.4234930000000 1.0
C      1  0.4766720000000  0.5345480000000  0.4266510000000 1.0
C      1  0.4803300000000  0.4656090000000  0.5744860000000 1.0
C      1  0.5098390000000  0.5558450000000  0.5124560000000 1.0
C      1  0.5087570000000  0.4440870000000  0.4870520000000 1.0
C      1  0.4906670000000  0.5566030000000  0.4910820000000 1.0
C      1  0.4907370000000  0.4434650000000  0.5094100000000 1.0
C      1  0.5007020000000  0.5355890000000  0.5317910000000 1.0
C      1  0.4987600000000  0.4644130000000  0.4682230000000 1.0
C      1  0.4996270000000  0.5375230000000  0.4705100000000 1.0
C      1  0.5009110000000  0.4624750000000  0.5294760000000 1.0
C      1  0.4709470000000  0.4784600000000  0.4360820000000 1.0
C      1  0.4745260000000  0.5217390000000  0.5653600000000 1.0
C      1  0.5288400000000  0.4742240000000  0.5624290000000 1.0
C      1  0.5256870000000  0.5255760000000  0.4361290000000 1.0
C      1  0.4537890000000  0.5454790000000  0.5261060000000 1.0
C      1  0.4521410000000  0.4548660000000  0.4763830000000 1.0
C      1  0.5466260000000  0.5466140000000  0.4767930000000 1.0
C      1  0.5474450000000  0.4530420000000  0.5207190000000 1.0
C      1  0.4734350000000  0.5291880000000  0.4550910000000 1.0
C      1  0.4756340000000  0.4709990000000  0.5462570000000 1.0
C      1  0.5268130000000  0.5260660000000  0.5466480000000 1.0
C      1  0.5241180000000  0.4737470000000  0.4520040000000 1.0
C      1  0.4632040000000  0.5486490000000  0.4977010000000 1.0
C      1  0.4630220000000  0.4516220000000  0.5042510000000 1.0
C      1  0.5372310000000  0.5480750000000  0.5053430000000 1.0
C      1  0.5365430000000  0.4516540000000  0.4927050000000 1.0
END
