TITL C-9265-7156-191 2.68469711942525e-06 125000 -360.906058028814 0 0 60 (C1) n - 1
REM
REM in /home/bkarasulu/CARBON/AIRSS/Generating-Clusters/EDIP-Nigel-Params/Higher-Symm/Box-15A/Only-C60/SD-CG/HFTN-CG
REM
REM
REM
REM
REM
REM ./C.cell (414f73aa93bd7a1190c7fd0f31ff2f98)
REM
REM compiler GCC version 9.2.1 20190827 (Red Hat 9.2.1-1)
REM options -cpp -mtune=generic -march=x86-64 -g -O0 -fpre-include=/usr/include/finclude/math-vector-fortran.h
REM seed -1581271218 -1311685547 1276530207 -2053135986 1795038981 -1440393856 -1993174209 -1642247452 261333487 -795641009 -633379639 -597649835 1305607712 1767257224 -98051995 -889045645 -852003636 -486916924 1078045301 476620011 1772175842 -222368944 733649415 -2040854154 -167298351 -2053210266 1728646461 379257522 -1066528841 -1659144851 837507549 1952317954 1375309876
REM
CELL 1.54180   50.00000   50.00000   50.00000   90.00000   90.00000   90.00000
LATT -1
SFAC C  
C      1  0.4951490000000  0.4140490000000  0.4853200000000 1.0
C      1  0.5180490000000  0.4880810000000  0.5489530000000 1.0
C      1  0.5142070000000  0.4499480000000  0.5137720000000 1.0
C      1  0.5650230000000  0.5089940000000  0.5373310000000 1.0
C      1  0.5141080000000  0.5078230000000  0.4831180000000 1.0
C      1  0.4510630000000  0.4925280000000  0.4626490000000 1.0
C      1  0.4903130000000  0.5667550000000  0.5334980000000 1.0
C      1  0.4896350000000  0.4399790000000  0.5310430000000 1.0
C      1  0.5218880000000  0.4748300000000  0.4503190000000 1.0
C      1  0.5101320000000  0.4511240000000  0.4604990000000 1.0
C      1  0.4307880000000  0.5131540000000  0.4693780000000 1.0
C      1  0.5595910000000  0.5052820000000  0.4618870000000 1.0
C      1  0.4553210000000  0.5587480000000  0.5213160000000 1.0
C      1  0.5049810000000  0.5752590000000  0.4590940000000 1.0
C      1  0.4738210000000  0.5782040000000  0.5144670000000 1.0
C      1  0.5013500000000  0.5392810000000  0.5313370000000 1.0
C      1  0.5000630000000  0.5326420000000  0.4982630000000 1.0
C      1  0.5324220000000  0.5481060000000  0.4811560000000 1.0
C      1  0.4604110000000  0.5526770000000  0.4599050000000 1.0
C      1  0.5768260000000  0.4841490000000  0.4971830000000 1.0
C      1  0.5790540000000  0.5081120000000  0.4824280000000 1.0
C      1  0.5303520000000  0.5735480000000  0.4706480000000 1.0
C      1  0.5108870000000  0.4811470000000  0.5196330000000 1.0
C      1  0.5514290000000  0.5559020000000  0.4996270000000 1.0
C      1  0.4573380000000  0.4314820000000  0.4709020000000 1.0
C      1  0.4744000000000  0.4960550000000  0.4457880000000 1.0
C      1  0.4284080000000  0.5159360000000  0.5135740000000 1.0
C      1  0.4151300000000  0.5035290000000  0.4915510000000 1.0
C      1  0.4633270000000  0.4501800000000  0.5186280000000 1.0
C      1  0.5393500000000  0.5102180000000  0.5510180000000 1.0
C      1  0.4938270000000  0.4518370000000  0.5580870000000 1.0
C      1  0.5340660000000  0.5217500000000  0.4633540000000 1.0
C      1  0.4890580000000  0.4779360000000  0.4794100000000 1.0
C      1  0.4754460000000  0.5181120000000  0.5022050000000 1.0
C      1  0.4411580000000  0.5408490000000  0.4760950000000 1.0
C      1  0.5756030000000  0.4837870000000  0.5272550000000 1.0
C      1  0.5179520000000  0.5217880000000  0.4375890000000 1.0
C      1  0.5300040000000  0.4932030000000  0.5020920000000 1.0
C      1  0.5609070000000  0.4604510000000  0.5355050000000 1.0
C      1  0.4538410000000  0.5207520000000  0.5500390000000 1.0
C      1  0.4609100000000  0.4779620000000  0.5318100000000 1.0
C      1  0.5502770000000  0.4783580000000  0.4553500000000 1.0
C      1  0.4821850000000  0.5219200000000  0.5489680000000 1.0
C      1  0.5079650000000  0.4386910000000  0.4860370000000 1.0
C      1  0.4817640000000  0.4900080000000  0.5112830000000 1.0
C      1  0.4750820000000  0.4751420000000  0.5587220000000 1.0
C      1  0.5456900000000  0.4501140000000  0.5138940000000 1.0
C      1  0.5033300000000  0.4964040000000  0.4419170000000 1.0
C      1  0.4710250000000  0.4077550000000  0.4749780000000 1.0
C      1  0.5005470000000  0.5445340000000  0.4358510000000 1.0
C      1  0.4389530000000  0.5006810000000  0.5363930000000 1.0
C      1  0.5303240000000  0.5364810000000  0.5412980000000 1.0
C      1  0.5533200000000  0.5434950000000  0.5248780000000 1.0
C      1  0.4436600000000  0.4667970000000  0.4739430000000 1.0
C      1  0.5209700000000  0.4618200000000  0.5623130000000 1.0
C      1  0.4502410000000  0.5343770000000  0.5043150000000 1.0
C      1  0.4880380000000  0.5521650000000  0.4602890000000 1.0
C      1  0.5496050000000  0.4726330000000  0.4928660000000 1.0
C      1  0.4931300000000  0.4982870000000  0.5608230000000 1.0
C      1  0.4663060000000  0.4541880000000  0.4881570000000 1.0
END
