TITL C-9260-5597-174 -1.94970877879421e-06 125000 -360.846336136021 0 0 60 (Ci) n - 1
REM
REM in /home/bkarasulu/CARBON/AIRSS/Generating-Clusters/EDIP-Nigel-Params/Higher-Symm/Box-15A/Only-C60/SD-CG/HFTN-CG
REM
REM
REM
REM
REM
REM ./C.cell (414f73aa93bd7a1190c7fd0f31ff2f98)
REM
REM compiler GCC version 9.2.1 20190827 (Red Hat 9.2.1-1)
REM options -cpp -mtune=generic -march=x86-64 -g -O0 -fpre-include=/usr/include/finclude/math-vector-fortran.h
REM seed 1656906524 -476565505 1121828151 -1219273896 -1502795460 1030707265 -918087453 95297791 -526476628 1942605532 1972943395 683692019 1521274387 1446945711 1412166894 -1167419593 694342389 147368269 -1284841359 1087729876 -1358945180 -1575327896 -1104566014 -574462528 -709727 46989926 694079862 -1630523399 1846288116 95127550 1495779953 1071843242 58864643
REM
CELL 1.54180   50.00000   50.00000   50.00000   90.00000   90.00000   90.00000
LATT -1
SFAC C  
C      1  0.5263720000000  0.5650130000000  0.4732880000000 1.0
C      1  0.5646390000000  0.4717550000000  0.5273900000000 1.0
C      1  0.4773780000000  0.5208730000000  0.5571420000000 1.0
C      1  0.4702140000000  0.4341500000000  0.4681450000000 1.0
C      1  0.5300010000000  0.4363590000000  0.5327480000000 1.0
C      1  0.4763980000000  0.5577400000000  0.5278090000000 1.0
C      1  0.4395890000000  0.5291240000000  0.5284100000000 1.0
C      1  0.5617210000000  0.5331200000000  0.4731720000000 1.0
C      1  0.4339980000000  0.4678560000000  0.4723810000000 1.0
C      1  0.5281700000000  0.4759990000000  0.5575280000000 1.0
C      1  0.4665120000000  0.4711380000000  0.4352920000000 1.0
C      1  0.5331930000000  0.5319560000000  0.4369720000000 1.0
C      1  0.5297860000000  0.5658500000000  0.5318550000000 1.0
C      1  0.5604110000000  0.4708760000000  0.4715900000000 1.0
C      1  0.4718300000000  0.5240010000000  0.4424720000000 1.0
C      1  0.4736280000000  0.4349870000000  0.5267120000000 1.0
C      1  0.5236020000000  0.4422600000000  0.4721910000000 1.0
C      1  0.4699990000000  0.5636410000000  0.4672520000000 1.0
C      1  0.4353610000000  0.5282450000000  0.4726100000000 1.0
C      1  0.5660020000000  0.5321440000000  0.5276190000000 1.0
C      1  0.4382790000000  0.4668800000000  0.5268280000000 1.0
C      1  0.5226220000000  0.4791270000000  0.4428580000000 1.0
C      1  0.4668070000000  0.4680440000000  0.5630280000000 1.0
C      1  0.5334880000000  0.5288620000000  0.5647080000000 1.0
C      1  0.5458400000000  0.5509820000000  0.4876660000000 1.0
C      1  0.5503640000000  0.4878080000000  0.5452410000000 1.0
C      1  0.4890880000000  0.5451770000000  0.5495050000000 1.0
C      1  0.4479860000000  0.4447280000000  0.4838720000000 1.0
C      1  0.5438480000000  0.4552140000000  0.5156410000000 1.0
C      1  0.4534810000000  0.5491920000000  0.5141600000000 1.0
C      1  0.4588650000000  0.5093070000000  0.5375830000000 1.0
C      1  0.5514450000000  0.5172930000000  0.4526630000000 1.0
C      1  0.4444510000000  0.4834810000000  0.4499860000000 1.0
C      1  0.5145000000000  0.4530930000000  0.5492690000000 1.0
C      1  0.4821690000000  0.4487080000000  0.4457320000000 1.0
C      1  0.5152310000000  0.5445060000000  0.4560010000000 1.0
C      1  0.5520140000000  0.5552720000000  0.5161280000000 1.0
C      1  0.5411350000000  0.4906930000000  0.4624170000000 1.0
C      1  0.4855000000000  0.5469070000000  0.4507310000000 1.0
C      1  0.4541600000000  0.4490180000000  0.5123340000000 1.0
C      1  0.5465190000000  0.4508080000000  0.4858400000000 1.0
C      1  0.4561520000000  0.5447860000000  0.4843590000000 1.0
C      1  0.4496360000000  0.5121920000000  0.4547590000000 1.0
C      1  0.5555490000000  0.5165190000000  0.5500140000000 1.0
C      1  0.4485550000000  0.4827070000000  0.5473370000000 1.0
C      1  0.5109120000000  0.4548230000000  0.4504950000000 1.0
C      1  0.4847690000000  0.4554940000000  0.5439990000000 1.0
C      1  0.5178310000000  0.5512920000000  0.5542680000000 1.0
C      1  0.4856760000000  0.4886570000000  0.4640290000000 1.0
C      1  0.4880170000000  0.4629080000000  0.4869200000000 1.0
C      1  0.4638520000000  0.4852150000000  0.4895940000000 1.0
C      1  0.5244370000000  0.4980610000000  0.4868450000000 1.0
C      1  0.4755630000000  0.5019390000000  0.5131550000000 1.0
C      1  0.5143240000000  0.5113430000000  0.5359710000000 1.0
C      1  0.5012190000000  0.5132970000000  0.4748520000000 1.0
C      1  0.5119830000000  0.5370920000000  0.5130800000000 1.0
C      1  0.4987810000000  0.4867030000000  0.5251480000000 1.0
C      1  0.5361480000000  0.5147850000000  0.5104060000000 1.0
C      1  0.4872110000000  0.5256660000000  0.4982770000000 1.0
C      1  0.5127890000000  0.4743340000000  0.5017230000000 1.0
END
