TITL C-9266-5713-158 -0.283749043885551 125000 -358.778022439986 0 0 60 (C1) n - 1
REM
REM in /home/bkarasulu/CARBON/AIRSS/Generating-Clusters/EDIP-Nigel-Params/Higher-Symm/Box-15A/Only-C60/SD-CG/HFTN-CG
REM
REM
REM
REM
REM
REM ./C.cell (414f73aa93bd7a1190c7fd0f31ff2f98)
REM
REM compiler GCC version 9.2.1 20190827 (Red Hat 9.2.1-1)
REM options -cpp -mtune=generic -march=x86-64 -g -O0 -fpre-include=/usr/include/finclude/math-vector-fortran.h
REM seed -1587770117 1116983378 -786138657 -1764940906 -2097214079 -282509233 59968518 722799112 1769988771 -1157941705 2138599303 904240068 993108273 1686208284 1377810847 -1463912054 1216018213 1302690872 -1459431094 1360472531 1195714574 -960493559 -1504111149 -1338390697 159842478 -1355130655 -1676211460 -1128013510 -2124376435 826765653 1393342414 -1065526981 -120560605
REM
CELL 1.54180   50.00000   50.00000   50.00000   90.00000   90.00000   90.00000
LATT -1
SFAC C  
C      1  0.4713010000000  0.5764510000000  0.4859230000000 1.0
C      1  0.4664100000000  0.5476320000000  0.5570080000000 1.0
C      1  0.4682290000000  0.4526490000000  0.5577600000000 1.0
C      1  0.4671820000000  0.4237600000000  0.4856780000000 1.0
C      1  0.4684260000000  0.5006800000000  0.4187190000000 1.0
C      1  0.4665630000000  0.5280160000000  0.4644430000000 1.0
C      1  0.4648600000000  0.5386580000000  0.5155560000000 1.0
C      1  0.4653830000000  0.4992800000000  0.5420350000000 1.0
C      1  0.4652990000000  0.4590940000000  0.5092920000000 1.0
C      1  0.4663240000000  0.4731100000000  0.4636520000000 1.0
C      1  0.5291810000000  0.5263390000000  0.4242250000000 1.0
C      1  0.5286990000000  0.5798000000000  0.5012330000000 1.0
C      1  0.5277350000000  0.5229580000000  0.5758050000000 1.0
C      1  0.5282570000000  0.4345430000000  0.5449330000000 1.0
C      1  0.5291520000000  0.4365730000000  0.4511710000000 1.0
C      1  0.5225130000000  0.4324970000000  0.5167910000000 1.0
C      1  0.5230540000000  0.4626510000000  0.4405990000000 1.0
C      1  0.5228740000000  0.5444310000000  0.4457190000000 1.0
C      1  0.5223820000000  0.5649460000000  0.5250850000000 1.0
C      1  0.5216460000000  0.4956820000000  0.5688780000000 1.0
C      1  0.5191620000000  0.4615000000000  0.5108310000000 1.0
C      1  0.5195340000000  0.4771840000000  0.4663480000000 1.0
C      1  0.5193970000000  0.5244220000000  0.4674990000000 1.0
C      1  0.5190130000000  0.5380150000000  0.5127700000000 1.0
C      1  0.5188380000000  0.4990800000000  0.5394290000000 1.0
C      1  0.4663060000000  0.4796170000000  0.4354720000000 1.0
C      1  0.4671750000000  0.5564290000000  0.4683700000000 1.0
C      1  0.4683160000000  0.5693900000000  0.5397500000000 1.0
C      1  0.4656090000000  0.4794910000000  0.5615530000000 1.0
C      1  0.4679480000000  0.4197740000000  0.5131750000000 1.0
C      1  0.5332830000000  0.4605260000000  0.5563440000000 1.0
C      1  0.5341580000000  0.4337680000000  0.4794080000000 1.0
C      1  0.5343920000000  0.4986500000000  0.4303050000000 1.0
C      1  0.5339680000000  0.5654440000000  0.4767810000000 1.0
C      1  0.5332960000000  0.5418280000000  0.5547540000000 1.0
C      1  0.4406680000000  0.5232520000000  0.5071610000000 1.0
C      1  0.4407390000000  0.4989050000000  0.5239020000000 1.0
C      1  0.4408400000000  0.4758630000000  0.5053180000000 1.0
C      1  0.4424050000000  0.4857800000000  0.4775320000000 1.0
C      1  0.4427190000000  0.5154480000000  0.4785590000000 1.0
C      1  0.4911860000000  0.5244130000000  0.5078420000000 1.0
C      1  0.4912160000000  0.4992410000000  0.5249310000000 1.0
C      1  0.4913730000000  0.4752110000000  0.5062970000000 1.0
C      1  0.4914880000000  0.4852260000000  0.4774550000000 1.0
C      1  0.4913120000000  0.5160180000000  0.4783470000000 1.0
C      1  0.5348970000000  0.5228150000000  0.5319940000000 1.0
C      1  0.5349590000000  0.4762060000000  0.5311510000000 1.0
C      1  0.5354060000000  0.4625480000000  0.4866240000000 1.0
C      1  0.5355190000000  0.5007350000000  0.4599280000000 1.0
C      1  0.5352220000000  0.5379490000000  0.4879680000000 1.0
C      1  0.4661580000000  0.4445450000000  0.4683420000000 1.0
C      1  0.4665940000000  0.5210850000000  0.4363240000000 1.0
C      1  0.4625410000000  0.5681730000000  0.5110190000000 1.0
C      1  0.4650850000000  0.5204050000000  0.5601770000000 1.0
C      1  0.4634830000000  0.4408300000000  0.5329960000000 1.0
C      1  0.5621910000000  0.4761090000000  0.4917240000000 1.0
C      1  0.5622670000000  0.5003360000000  0.4744730000000 1.0
C      1  0.5620720000000  0.5242250000000  0.4921790000000 1.0
C      1  0.5618700000000  0.5147790000000  0.5203700000000 1.0
C      1  0.5619230000000  0.4850340000000  0.5200930000000 1.0
END
