TITL C-9258-7861-165 1.8663730010874e-07 125000 -374.304452036378 0 0 60 (C1) n - 1
REM
REM in /home/bkarasulu/CARBON/AIRSS/Generating-Clusters/EDIP-Nigel-Params/Higher-Symm/Box-15A/Only-C60/SD-CG/HFTN-CG
REM
REM
REM
REM
REM
REM ./C.cell (414f73aa93bd7a1190c7fd0f31ff2f98)
REM
REM compiler GCC version 9.2.1 20190827 (Red Hat 9.2.1-1)
REM options -cpp -mtune=generic -march=x86-64 -g -O0 -fpre-include=/usr/include/finclude/math-vector-fortran.h
REM seed 1161372677 -549927975 708817653 21382556 1248028836 1314357950 -99391252 -1542304591 -1121567752 -1394752993 734891929 -724789747 1217556533 1487279987 293099496 -18142394 -1644707375 1801392165 1014196948 -49820900 1637027190 -1971174737 1551663509 -1813909215 -1158401646 -1367379457 876771584 -211412358 -919008523 -1510351746 2055710964 1692312072 1908628665
REM
CELL 1.54180   50.00000   50.00000   50.00000   90.00000   90.00000   90.00000
LATT -1
SFAC C  
C      1  0.5775560000000  0.5298630000000  0.4979320000000 1.0
C      1  0.5882800000000  0.5139910000000  0.5188450000000 1.0
C      1  0.5782070000000  0.4884830000000  0.5260550000000 1.0
C      1  0.5780110000000  0.4713930000000  0.5009810000000 1.0
C      1  0.5880730000000  0.4874960000000  0.4798790000000 1.0
C      1  0.5776450000000  0.5129240000000  0.4727760000000 1.0
C      1  0.4228680000000  0.5282790000000  0.4984510000000 1.0
C      1  0.4123260000000  0.5124310000000  0.5194630000000 1.0
C      1  0.4226000000000  0.4870190000000  0.5266730000000 1.0
C      1  0.4231230000000  0.4701270000000  0.5012730000000 1.0
C      1  0.4128750000000  0.4858100000000  0.4800370000000 1.0
C      1  0.4231730000000  0.5112750000000  0.4731760000000 1.0
C      1  0.5464490000000  0.5308800000000  0.4990960000000 1.0
C      1  0.5372670000000  0.5164930000000  0.5238090000000 1.0
C      1  0.5471780000000  0.4886910000000  0.5281180000000 1.0
C      1  0.5468300000000  0.4699970000000  0.5003150000000 1.0
C      1  0.5374500000000  0.4842760000000  0.4756340000000 1.0
C      1  0.5465420000000  0.5122920000000  0.4711610000000 1.0
C      1  0.4540270000000  0.5297070000000  0.4994500000000 1.0
C      1  0.4634600000000  0.5153010000000  0.5239910000000 1.0
C      1  0.4539650000000  0.4873820000000  0.5283710000000 1.0
C      1  0.4542910000000  0.4690860000000  0.5010600000000 1.0
C      1  0.4645350000000  0.4833860000000  0.4767550000000 1.0
C      1  0.4544680000000  0.5112860000000  0.4720740000000 1.0
C      1  0.4672870000000  0.4417170000000  0.5045130000000 1.0
C      1  0.4690500000000  0.4677250000000  0.4525200000000 1.0
C      1  0.4687920000000  0.5256340000000  0.4490590000000 1.0
C      1  0.4672610000000  0.5569540000000  0.4961970000000 1.0
C      1  0.4729930000000  0.5295020000000  0.5476150000000 1.0
C      1  0.4691630000000  0.4737800000000  0.5512010000000 1.0
C      1  0.5324740000000  0.4435410000000  0.5044110000000 1.0
C      1  0.5247850000000  0.4708140000000  0.4531710000000 1.0
C      1  0.5314930000000  0.5258300000000  0.4480120000000 1.0
C      1  0.5322900000000  0.5575810000000  0.4955940000000 1.0
C      1  0.5284810000000  0.5310260000000  0.5476530000000 1.0
C      1  0.5333270000000  0.4753050000000  0.5520120000000 1.0
C      1  0.5246470000000  0.4822450000000  0.4275280000000 1.0
C      1  0.5264250000000  0.5532590000000  0.4479390000000 1.0
C      1  0.5234060000000  0.5689810000000  0.5193400000000 1.0
C      1  0.5263170000000  0.5186020000000  0.5727580000000 1.0
C      1  0.5270510000000  0.4481440000000  0.5518790000000 1.0
C      1  0.5226580000000  0.4324200000000  0.4810440000000 1.0
C      1  0.4744530000000  0.4824170000000  0.4292050000000 1.0
C      1  0.4720890000000  0.5533820000000  0.4484170000000 1.0
C      1  0.4760250000000  0.5683180000000  0.5199990000000 1.0
C      1  0.4742440000000  0.5169730000000  0.5727170000000 1.0
C      1  0.4729380000000  0.4461020000000  0.5521030000000 1.0
C      1  0.4750150000000  0.4293980000000  0.4806260000000 1.0
C      1  0.5146330000000  0.4433690000000  0.5274570000000 1.0
C      1  0.5131740000000  0.4442220000000  0.4575960000000 1.0
C      1  0.5145080000000  0.5081730000000  0.4314290000000 1.0
C      1  0.5143150000000  0.5586780000000  0.4724730000000 1.0
C      1  0.5150510000000  0.5570320000000  0.5432840000000 1.0
C      1  0.5157030000000  0.4932060000000  0.5673210000000 1.0
C      1  0.4851840000000  0.4393650000000  0.5279090000000 1.0
C      1  0.4833920000000  0.4418880000000  0.4568020000000 1.0
C      1  0.4846060000000  0.5086240000000  0.4309630000000 1.0
C      1  0.4845660000000  0.5598310000000  0.4726010000000 1.0
C      1  0.4851840000000  0.5562130000000  0.5435570000000 1.0
C      1  0.4858190000000  0.4918780000000  0.5677240000000 1.0
END
