TITL C-9265-7156-34 1.09841436112119e-06 125000 -358.629271990114 0 0 60 (C1) n - 1
REM
REM in /home/bkarasulu/CARBON/AIRSS/Generating-Clusters/EDIP-Nigel-Params/Higher-Symm/Box-15A/Only-C60/SD-CG/HFTN-CG
REM
REM
REM
REM
REM
REM ./C.cell (414f73aa93bd7a1190c7fd0f31ff2f98)
REM
REM compiler GCC version 9.2.1 20190827 (Red Hat 9.2.1-1)
REM options -cpp -mtune=generic -march=x86-64 -g -O0 -fpre-include=/usr/include/finclude/math-vector-fortran.h
REM seed -1693917700 199280623 -163394141 1456071963 1173553186 -1206142466 1736360216 -206773532 -231763022 -1472975858 1578898176 24250544 21747622 -1338882534 1510670368 -1437248843 1691590218 244233250 1973226095 -1082553670 -1019628011 -552130983 -542286493 1833799336 374488953 853718513 1474325610 1353819855 229625860 -1032429541 1837955388 -193483600 797076707
REM
CELL 1.54180   50.00000   50.00000   50.00000   90.00000   90.00000   90.00000
LATT -1
SFAC C  
C      1  0.4964780000000  0.4593510000000  0.5200640000000 1.0
C      1  0.4968350000000  0.5392090000000  0.5268110000000 1.0
C      1  0.4988550000000  0.5020630000000  0.4576830000000 1.0
C      1  0.4948610000000  0.4286440000000  0.5577010000000 1.0
C      1  0.4922510000000  0.5865680000000  0.5336760000000 1.0
C      1  0.4929660000000  0.4877440000000  0.4108620000000 1.0
C      1  0.5164350000000  0.5600070000000  0.4675170000000 1.0
C      1  0.5159100000000  0.4405410000000  0.4637160000000 1.0
C      1  0.5170440000000  0.4992790000000  0.5685860000000 1.0
C      1  0.4926410000000  0.5073020000000  0.4297660000000 1.0
C      1  0.4919630000000  0.4329680000000  0.5310530000000 1.0
C      1  0.4900920000000  0.5615300000000  0.5437650000000 1.0
C      1  0.4939360000000  0.4544190000000  0.5696510000000 1.0
C      1  0.4917400000000  0.5837720000000  0.5054380000000 1.0
C      1  0.4922370000000  0.4633440000000  0.4255120000000 1.0
C      1  0.4762050000000  0.5377590000000  0.5027470000000 1.0
C      1  0.4774790000000  0.4815800000000  0.4682760000000 1.0
C      1  0.4760460000000  0.4796590000000  0.5326170000000 1.0
C      1  0.4899570000000  0.5624740000000  0.4546300000000 1.0
C      1  0.4900860000000  0.4274220000000  0.4686640000000 1.0
C      1  0.4904720000000  0.5079960000000  0.5785860000000 1.0
C      1  0.4433000000000  0.4409930000000  0.4760700000000 1.0
C      1  0.4431170000000  0.5074270000000  0.5639670000000 1.0
C      1  0.4433020000000  0.5489010000000  0.4620700000000 1.0
C      1  0.5671570000000  0.5083080000000  0.5188350000000 1.0
C      1  0.5706380000000  0.5146560000000  0.4715120000000 1.0
C      1  0.5646010000000  0.4953990000000  0.4915490000000 1.0
C      1  0.5289280000000  0.5324030000000  0.4689490000000 1.0
C      1  0.5342860000000  0.4503430000000  0.4845990000000 1.0
C      1  0.5281410000000  0.5135310000000  0.5445730000000 1.0
C      1  0.4644270000000  0.4372700000000  0.4570940000000 1.0
C      1  0.4645660000000  0.4931260000000  0.5764490000000 1.0
C      1  0.4639370000000  0.5678360000000  0.4681500000000 1.0
C      1  0.5300600000000  0.4964290000000  0.5190520000000 1.0
C      1  0.5321060000000  0.5246630000000  0.4971560000000 1.0
C      1  0.5411750000000  0.4785570000000  0.4805140000000 1.0
C      1  0.4853160000000  0.5292400000000  0.4727900000000 1.0
C      1  0.4853720000000  0.4587020000000  0.4898810000000 1.0
C      1  0.4844600000000  0.5108120000000  0.5410760000000 1.0
C      1  0.4693000000000  0.4686630000000  0.5603330000000 1.0
C      1  0.4682490000000  0.5668560000000  0.4975150000000 1.0
C      1  0.4691850000000  0.4639250000000  0.4445740000000 1.0
C      1  0.5479060000000  0.5528260000000  0.5316930000000 1.0
C      1  0.5448610000000  0.5019760000000  0.4359840000000 1.0
C      1  0.5446530000000  0.4487440000000  0.5276010000000 1.0
C      1  0.5545900000000  0.5263600000000  0.5398720000000 1.0
C      1  0.5518590000000  0.5236630000000  0.4526130000000 1.0
C      1  0.5449340000000  0.4345260000000  0.5048890000000 1.0
C      1  0.4572490000000  0.5244170000000  0.4622850000000 1.0
C      1  0.4564650000000  0.4536740000000  0.4975260000000 1.0
C      1  0.4558310000000  0.5203190000000  0.5424350000000 1.0
C      1  0.5237930000000  0.4681620000000  0.5310600000000 1.0
C      1  0.5246860000000  0.5472630000000  0.5139780000000 1.0
C      1  0.5273530000000  0.4866780000000  0.4543220000000 1.0
C      1  0.5170290000000  0.5702360000000  0.4957420000000 1.0
C      1  0.5171420000000  0.4606590000000  0.4421150000000 1.0
C      1  0.5177020000000  0.4708060000000  0.5606910000000 1.0
C      1  0.4520540000000  0.4799380000000  0.5123790000000 1.0
C      1  0.4523350000000  0.5189140000000  0.5121370000000 1.0
C      1  0.4534470000000  0.4991730000000  0.4786510000000 1.0
END
