TITL C-9268-6400-243 -1.55547152453236e-06 125000 -356.322575673792 0 0 60 (C2h) n - 1
REM
REM in /home/bkarasulu/CARBON/AIRSS/Generating-Clusters/EDIP-Nigel-Params/Higher-Symm/Box-15A/Only-C60/SD-CG/HFTN-CG
REM
REM
REM
REM
REM
REM ./C.cell (414f73aa93bd7a1190c7fd0f31ff2f98)
REM
REM compiler GCC version 9.2.1 20190827 (Red Hat 9.2.1-1)
REM options -cpp -mtune=generic -march=x86-64 -g -O0 -fpre-include=/usr/include/finclude/math-vector-fortran.h
REM seed -1378362992 -2146898883 -659947221 -1332717056 1255698402 -165064176 532170345 47922964 802175961 -1579749409 -1936699887 1709243479 32961586 323887055 -379121586 -1600053898 -365287413 -316403593 677176742 -650818205 1247859132 -70675529 1955817340 -1676508028 1991932617 -954534120 1791907358 1125436339 1064567495 1016613635 -751113992 680734763 1818425468
REM
CELL 1.54180   50.00000   50.00000   50.00000   90.00000   90.00000   90.00000
LATT -1
SFAC C  
C      1  0.4774230000000  0.4417850000000  0.5401910000000 1.0
C      1  0.4774180000000  0.5582140000000  0.4598110000000 1.0
C      1  0.5233230000000  0.4413870000000  0.5397700000000 1.0
C      1  0.5233180000000  0.5586140000000  0.4602280000000 1.0
C      1  0.4849420000000  0.4303970000000  0.4901920000000 1.0
C      1  0.4849420000000  0.5696030000000  0.5098100000000 1.0
C      1  0.5150800000000  0.4304600000000  0.4898820000000 1.0
C      1  0.5150790000000  0.5695400000000  0.5101160000000 1.0
C      1  0.5334570000000  0.4332590000000  0.5141080000000 1.0
C      1  0.5334550000000  0.5667420000000  0.4858880000000 1.0
C      1  0.4668770000000  0.4332730000000  0.5147120000000 1.0
C      1  0.4668740000000  0.5667270000000  0.4852910000000 1.0
C      1  0.5586030000000  0.5548810000000  0.4916220000000 1.0
C      1  0.5586040000000  0.4451200000000  0.5083730000000 1.0
C      1  0.4416870000000  0.5548120000000  0.4909210000000 1.0
C      1  0.4416890000000  0.4451870000000  0.5090850000000 1.0
C      1  0.4526050000000  0.4821140000000  0.4458480000000 1.0
C      1  0.4526100000000  0.5178850000000  0.5541570000000 1.0
C      1  0.5469500000000  0.4827080000000  0.4455660000000 1.0
C      1  0.5469550000000  0.5172930000000  0.5544290000000 1.0
C      1  0.4430940000000  0.5084840000000  0.4730400000000 1.0
C      1  0.4430970000000  0.4915150000000  0.5269660000000 1.0
C      1  0.5565780000000  0.5087540000000  0.4731000000000 1.0
C      1  0.5565810000000  0.4912470000000  0.5268950000000 1.0
C      1  0.5193510000000  0.5104440000000  0.4448580000000 1.0
C      1  0.5193570000000  0.4895570000000  0.5551400000000 1.0
C      1  0.4802850000000  0.5100580000000  0.4447940000000 1.0
C      1  0.4802910000000  0.4899420000000  0.5552080000000 1.0
C      1  0.4336110000000  0.4717710000000  0.5054160000000 1.0
C      1  0.4336100000000  0.5282280000000  0.4945900000000 1.0
C      1  0.5662560000000  0.4718550000000  0.5050350000000 1.0
C      1  0.5662550000000  0.5281460000000  0.4949590000000 1.0
C      1  0.4715340000000  0.5638850000000  0.5341370000000 1.0
C      1  0.4715320000000  0.4361150000000  0.4658660000000 1.0
C      1  0.5281160000000  0.5636920000000  0.5346310000000 1.0
C      1  0.5281140000000  0.4363080000000  0.4653670000000 1.0
C      1  0.5154440000000  0.4598200000000  0.5600690000000 1.0
C      1  0.5154380000000  0.5401800000000  0.4399290000000 1.0
C      1  0.4862410000000  0.4605840000000  0.5598950000000 1.0
C      1  0.4862350000000  0.5394160000000  0.4401070000000 1.0
C      1  0.4729370000000  0.5370190000000  0.5423700000000 1.0
C      1  0.4729330000000  0.4629810000000  0.4576330000000 1.0
C      1  0.5268200000000  0.5367200000000  0.5425680000000 1.0
C      1  0.5268170000000  0.4632810000000  0.4574290000000 1.0
C      1  0.4737100000000  0.5084660000000  0.4740870000000 1.0
C      1  0.4737130000000  0.4915340000000  0.5259160000000 1.0
C      1  0.5259450000000  0.5086580000000  0.4742180000000 1.0
C      1  0.5259480000000  0.4913420000000  0.5257790000000 1.0
C      1  0.5670220000000  0.5183890000000  0.5223310000000 1.0
C      1  0.5670210000000  0.4816130000000  0.4776620000000 1.0
C      1  0.4326590000000  0.5186550000000  0.5220310000000 1.0
C      1  0.4326570000000  0.4813440000000  0.4779760000000 1.0
C      1  0.4843520000000  0.4698760000000  0.5088740000000 1.0
C      1  0.4843500000000  0.5301240000000  0.4911280000000 1.0
C      1  0.5153750000000  0.4697190000000  0.5088340000000 1.0
C      1  0.5153740000000  0.5302810000000  0.4911650000000 1.0
C      1  0.5153880000000  0.5196020000000  0.5211460000000 1.0
C      1  0.5153870000000  0.4803980000000  0.4788520000000 1.0
C      1  0.4843410000000  0.5196690000000  0.5211320000000 1.0
C      1  0.4843390000000  0.4803300000000  0.4788700000000 1.0
END
