TITL C-9261-551-156 1.12732763699998e-05 125000 -372.425034643103 0 0 60 (C5) n - 1
REM
REM in /home/bkarasulu/CARBON/AIRSS/Generating-Clusters/EDIP-Nigel-Params/Higher-Symm/Box-15A/Only-C60/SD-CG/HFTN-CG
REM
REM
REM
REM
REM
REM ./C.cell (414f73aa93bd7a1190c7fd0f31ff2f98)
REM
REM compiler GCC version 9.2.1 20190827 (Red Hat 9.2.1-1)
REM options -cpp -mtune=generic -march=x86-64 -g -O0 -fpre-include=/usr/include/finclude/math-vector-fortran.h
REM seed -411022721 92629498 -404701543 79900276 -2056659952 -727255466 762841935 1674788139 1305911814 -500419796 320645268 -254261657 2138840080 -168108089 -431813766 -1821307617 721673564 1296619548 -523866203 -1932258554 -391215734 -693025515 1645395271 146388435 845284199 -1979844623 1509737043 -178871684 1518031837 -797983136 -1280806163 -271297803 2063084046
REM
CELL 1.54180   50.00000   50.00000   50.00000   90.00000   90.00000   90.00000
LATT -1
SFAC C  
C      1  0.4560150000000  0.5248740000000  0.5691420000000 1.0
C      1  0.5520700000000  0.5253490000000  0.5630880000000 1.0
C      1  0.5759950000000  0.5255020000000  0.4698620000000 1.0
C      1  0.4947260000000  0.5251210000000  0.4182990000000 1.0
C      1  0.4205740000000  0.5247330000000  0.4796570000000 1.0
C      1  0.5743000000000  0.5154030000000  0.5180180000000 1.0
C      1  0.5400390000000  0.5152650000000  0.4348370000000 1.0
C      1  0.4503430000000  0.5148200000000  0.4417160000000 1.0
C      1  0.4291680000000  0.5146830000000  0.5291500000000 1.0
C      1  0.5057780000000  0.5150430000000  0.5763070000000 1.0
C      1  0.4954260000000  0.4916060000000  0.4758290000000 1.0
C      1  0.4756310000000  0.4915000000000  0.4969180000000 1.0
C      1  0.4895700000000  0.4915600000000  0.5222620000000 1.0
C      1  0.5179800000000  0.4917020000000  0.5168360000000 1.0
C      1  0.5216000000000  0.4917300000000  0.4881390000000 1.0
C      1  0.4383090000000  0.4799630000000  0.4658700000000 1.0
C      1  0.4485510000000  0.4799830000000  0.5482130000000 1.0
C      1  0.5300280000000  0.4803780000000  0.5639170000000 1.0
C      1  0.5701420000000  0.4806030000000  0.4912800000000 1.0
C      1  0.5134560000000  0.4803460000000  0.4306830000000 1.0
C      1  0.5377080000000  0.4473110000000  0.4772090000000 1.0
C      1  0.4901760000000  0.4470840000000  0.4573290000000 1.0
C      1  0.4565810000000  0.4469040000000  0.4963920000000 1.0
C      1  0.4833500000000  0.4470200000000  0.5404140000000 1.0
C      1  0.5334890000000  0.4472710000000  0.5285580000000 1.0
C      1  0.4603670000000  0.4842280000000  0.4425800000000 1.0
C      1  0.4332030000000  0.4840650000000  0.5200190000000 1.0
C      1  0.4984560000000  0.4843680000000  0.5697840000000 1.0
C      1  0.5659490000000  0.4847180000000  0.5231020000000 1.0
C      1  0.5424090000000  0.4846320000000  0.4444860000000 1.0
C      1  0.4370300000000  0.5439090000000  0.4909220000000 1.0
C      1  0.4717420000000  0.5440550000000  0.5568870000000 1.0
C      1  0.5452040000000  0.5444220000000  0.5442590000000 1.0
C      1  0.5558950000000  0.5445020000000  0.4704890000000 1.0
C      1  0.4890400000000  0.5441850000000  0.4375250000000 1.0
C      1  0.5438180000000  0.4767140000000  0.4748130000000 1.0
C      1  0.4896750000000  0.4764560000000  0.4506470000000 1.0
C      1  0.4499610000000  0.4762440000000  0.4946730000000 1.0
C      1  0.4795590000000  0.4763710000000  0.5460480000000 1.0
C      1  0.5375660000000  0.4766610000000  0.5337740000000 1.0
C      1  0.5521800000000  0.5543820000000  0.4963010000000 1.0
C      1  0.5124030000000  0.5542030000000  0.4489900000000 1.0
C      1  0.4551170000000  0.5539120000000  0.4722010000000 1.0
C      1  0.4594890000000  0.5539110000000  0.5338570000000 1.0
C      1  0.5194780000000  0.5542010000000  0.5487510000000 1.0
C      1  0.5402330000000  0.4382140000000  0.5032420000000 1.0
C      1  0.5157480000000  0.4381080000000  0.4630120000000 1.0
C      1  0.4699230000000  0.4378790000000  0.4738670000000 1.0
C      1  0.4660850000000  0.4378420000000  0.5208050000000 1.0
C      1  0.5095390000000  0.4380500000000  0.5389590000000 1.0
C      1  0.5841480000000  0.5076310000000  0.4898320000000 1.0
C      1  0.5163050000000  0.5073240000000  0.4167960000000 1.0
C      1  0.4258810000000  0.5068630000000  0.4587490000000 1.0
C      1  0.4378370000000  0.5068850000000  0.5577130000000 1.0
C      1  0.5356520000000  0.5073600000000  0.5769240000000 1.0
C      1  0.4457740000000  0.5361180000000  0.5170760000000 1.0
C      1  0.4993460000000  0.5363670000000  0.5566880000000 1.0
C      1  0.5535740000000  0.5366480000000  0.5179780000000 1.0
C      1  0.5335160000000  0.5365730000000  0.4544420000000 1.0
C      1  0.4668930000000  0.5362450000000  0.4538840000000 1.0
END
