TITL C-9259-5960-15 -0.000179794921709835 125000 -365.425814424615 0 0 60 (C1) n - 1
REM
REM in /home/bkarasulu/CARBON/AIRSS/Generating-Clusters/EDIP-Nigel-Params/Higher-Symm/Box-15A/Only-C60/SD-CG/HFTN-CG
REM
REM
REM
REM
REM
REM ./C.cell (414f73aa93bd7a1190c7fd0f31ff2f98)
REM
REM compiler GCC version 9.2.1 20190827 (Red Hat 9.2.1-1)
REM options -cpp -mtune=generic -march=x86-64 -g -O0 -fpre-include=/usr/include/finclude/math-vector-fortran.h
REM seed -1209348662 -1509114728 -1527486982 1759888664 -1275773306 876330448 838554076 46402385 -2002712909 -1206668979 -1265128251 708180846 -1792359475 907661979 1482025942 807560492 -1041682947 -632215863 -1506007787 -1984805117 -700023342 100369500 378653061 449064386 -1810368419 876308308 1151557865 1507315820 190648418 -1525509010 -1344065636 1439832403 316705664
REM
CELL 1.54180   50.00000   50.00000   50.00000   90.00000   90.00000   90.00000
LATT -1
SFAC C  
C      1  0.4778040000000  0.4399620000000  0.5203600000000 1.0
C      1  0.4601570000000  0.5439360000000  0.5181130000000 1.0
C      1  0.5619600000000  0.5061050000000  0.5233950000000 1.0
C      1  0.4730770000000  0.4512320000000  0.4910800000000 1.0
C      1  0.4746160000000  0.5472360000000  0.4903990000000 1.0
C      1  0.5568370000000  0.4966210000000  0.4945990000000 1.0
C      1  0.5334880000000  0.4615930000000  0.4257510000000 1.0
C      1  0.4500780000000  0.4923270000000  0.4221370000000 1.0
C      1  0.5172860000000  0.5461600000000  0.4208570000000 1.0
C      1  0.4558530000000  0.5423610000000  0.4658710000000 1.0
C      1  0.5543250000000  0.5216380000000  0.4686300000000 1.0
C      1  0.4871160000000  0.4403860000000  0.4656120000000 1.0
C      1  0.4799780000000  0.5582210000000  0.5336370000000 1.0
C      1  0.5520500000000  0.4839740000000  0.5410950000000 1.0
C      1  0.4613250000000  0.4603250000000  0.5357130000000 1.0
C      1  0.5276190000000  0.4965570000000  0.4930960000000 1.0
C      1  0.4881460000000  0.4760910000000  0.4919420000000 1.0
C      1  0.4897470000000  0.5231130000000  0.4877560000000 1.0
C      1  0.5211670000000  0.5209250000000  0.4314800000000 1.0
C      1  0.5078100000000  0.4704100000000  0.4307930000000 1.0
C      1  0.4698240000000  0.5101850000000  0.4293790000000 1.0
C      1  0.5019220000000  0.5297490000000  0.5670050000000 1.0
C      1  0.5248360000000  0.4904750000000  0.5552650000000 1.0
C      1  0.4852980000000  0.4785750000000  0.5773920000000 1.0
C      1  0.4765810000000  0.4838820000000  0.5485370000000 1.0
C      1  0.4986750000000  0.5335880000000  0.5369110000000 1.0
C      1  0.5022660000000  0.4956140000000  0.5347670000000 1.0
C      1  0.4374550000000  0.5001600000000  0.5146760000000 1.0
C      1  0.5240290000000  0.5392440000000  0.5193550000000 1.0
C      1  0.5242620000000  0.4535420000000  0.5139720000000 1.0
C      1  0.4899100000000  0.5805770000000  0.5194800000000 1.0
C      1  0.5523030000000  0.4597660000000  0.5240050000000 1.0
C      1  0.4387150000000  0.4698280000000  0.5178830000000 1.0
C      1  0.5428040000000  0.4797460000000  0.4445490000000 1.0
C      1  0.4599230000000  0.4744960000000  0.4409580000000 1.0
C      1  0.4968500000000  0.5500190000000  0.4391970000000 1.0
C      1  0.5093570000000  0.4440330000000  0.5580840000000 1.0
C      1  0.4556080000000  0.5146650000000  0.5590450000000 1.0
C      1  0.5486110000000  0.5319390000000  0.5611160000000 1.0
C      1  0.4550870000000  0.5176130000000  0.5302920000000 1.0
C      1  0.5500600000000  0.5316050000000  0.5329440000000 1.0
C      1  0.5059250000000  0.4371490000000  0.5311270000000 1.0
C      1  0.5120040000000  0.4683260000000  0.5717370000000 1.0
C      1  0.4784530000000  0.5152740000000  0.5777710000000 1.0
C      1  0.5275830000000  0.5161630000000  0.5710060000000 1.0
C      1  0.4453380000000  0.4979430000000  0.4846230000000 1.0
C      1  0.5261060000000  0.5657790000000  0.4925460000000 1.0
C      1  0.5337870000000  0.4430580000000  0.4874810000000 1.0
C      1  0.5397410000000  0.5476620000000  0.4730230000000 1.0
C      1  0.5139910000000  0.4339260000000  0.4703020000000 1.0
C      1  0.4363510000000  0.5221800000000  0.4706400000000 1.0
C      1  0.5106770000000  0.4800260000000  0.5091530000000 1.0
C      1  0.4749900000000  0.4993130000000  0.4840340000000 1.0
C      1  0.5180520000000  0.5232380000000  0.4930130000000 1.0
C      1  0.4712340000000  0.5368740000000  0.4409130000000 1.0
C      1  0.5436580000000  0.5085020000000  0.4444610000000 1.0
C      1  0.4840170000000  0.4585500000000  0.4421900000000 1.0
C      1  0.4965170000000  0.5700620000000  0.4942300000000 1.0
C      1  0.5624510000000  0.4661400000000  0.4953300000000 1.0
C      1  0.4443100000000  0.4613610000000  0.4892930000000 1.0
END
