TITL C-9256-7861-223 7.4210740904173e-07 125000 -361.755630816204 0 0 60 (C2) n - 1
REM
REM in /home/bkarasulu/CARBON/AIRSS/Generating-Clusters/EDIP-Nigel-Params/Higher-Symm/Box-15A/Only-C60/SD-CG/HFTN-CG
REM
REM
REM
REM
REM
REM ./C.cell (414f73aa93bd7a1190c7fd0f31ff2f98)
REM
REM compiler GCC version 9.2.1 20190827 (Red Hat 9.2.1-1)
REM options -cpp -mtune=generic -march=x86-64 -g -O0 -fpre-include=/usr/include/finclude/math-vector-fortran.h
REM seed 419859837 -1180652203 720852510 -1631544832 1470206933 -1530723523 -477143050 -513381167 -826928089 -1593822107 1944053135 1187182576 -1148293906 98613949 378963083 47820369 -1758278505 -511368766 1087290254 -2062756338 -819015180 -837386347 1818550573 1775610132 554972973 -178257097 1005719356 -1624209986 -24215265 1522807936 898250558 -1927085888 2065916705
REM
CELL 1.54180   50.00000   50.00000   50.00000   90.00000   90.00000   90.00000
LATT -1
SFAC C  
C      1  0.5128760000000  0.5528870000000  0.4418860000000 1.0
C      1  0.4505050000000  0.5544430000000  0.4673460000000 1.0
C      1  0.4446740000000  0.5518180000000  0.5222260000000 1.0
C      1  0.4881840000000  0.5535750000000  0.5577080000000 1.0
C      1  0.5505720000000  0.5536940000000  0.5322410000000 1.0
C      1  0.5563450000000  0.5505340000000  0.4773830000000 1.0
C      1  0.5433450000000  0.5139600000000  0.5612840000000 1.0
C      1  0.5811320000000  0.5089420000000  0.4910310000000 1.0
C      1  0.5345990000000  0.5092870000000  0.4266900000000 1.0
C      1  0.4569370000000  0.5143520000000  0.4386080000000 1.0
C      1  0.4190630000000  0.5106250000000  0.5088940000000 1.0
C      1  0.4655980000000  0.5105330000000  0.5732340000000 1.0
C      1  0.5280280000000  0.4370070000000  0.5008300000000 1.0
C      1  0.5142060000000  0.4370360000000  0.4757130000000 1.0
C      1  0.4855510000000  0.4377730000000  0.4751540000000 1.0
C      1  0.4707230000000  0.4375740000000  0.4996490000000 1.0
C      1  0.4845450000000  0.4375190000000  0.5247660000000 1.0
C      1  0.5132080000000  0.4376890000000  0.5253210000000 1.0
C      1  0.5182620000000  0.5209630000000  0.4781930000000 1.0
C      1  0.4921240000000  0.5319040000000  0.4770360000000 1.0
C      1  0.4721380000000  0.5220590000000  0.4946470000000 1.0
C      1  0.4821610000000  0.5214890000000  0.5216450000000 1.0
C      1  0.5085120000000  0.5319150000000  0.5227210000000 1.0
C      1  0.5282960000000  0.5215400000000  0.5051870000000 1.0
C      1  0.5528590000000  0.5375020000000  0.5070420000000 1.0
C      1  0.5351520000000  0.5366280000000  0.4598020000000 1.0
C      1  0.4851620000000  0.5451710000000  0.4523320000000 1.0
C      1  0.4478980000000  0.5384920000000  0.4926680000000 1.0
C      1  0.4655880000000  0.5376260000000  0.5399150000000 1.0
C      1  0.5157390000000  0.5452290000000  0.5473230000000 1.0
C      1  0.5592270000000  0.4715830000000  0.4999870000000 1.0
C      1  0.5306050000000  0.4712680000000  0.4489010000000 1.0
C      1  0.4710910000000  0.4738490000000  0.4492870000000 1.0
C      1  0.4402190000000  0.4727690000000  0.5002260000000 1.0
C      1  0.4688330000000  0.4722740000000  0.5513150000000 1.0
C      1  0.5283860000000  0.4736660000000  0.5509140000000 1.0
C      1  0.5283600000000  0.4436020000000  0.4525620000000 1.0
C      1  0.4726000000000  0.4459930000000  0.4518310000000 1.0
C      1  0.4438230000000  0.4450210000000  0.4990220000000 1.0
C      1  0.4705250000000  0.4445410000000  0.5478650000000 1.0
C      1  0.5263220000000  0.4458270000000  0.5485820000000 1.0
C      1  0.5550710000000  0.4439220000000  0.5014020000000 1.0
C      1  0.5252230000000  0.5357570000000  0.4219150000000 1.0
C      1  0.4477560000000  0.5409060000000  0.4425190000000 1.0
C      1  0.4198140000000  0.5369190000000  0.5197770000000 1.0
C      1  0.4755000000000  0.5368470000000  0.5778080000000 1.0
C      1  0.5530530000000  0.5402950000000  0.5571710000000 1.0
C      1  0.5809040000000  0.5351620000000  0.4799470000000 1.0
C      1  0.5540590000000  0.4877980000000  0.4522870000000 1.0
C      1  0.4869120000000  0.4908840000000  0.4322230000000 1.0
C      1  0.4329800000000  0.4908160000000  0.4788120000000 1.0
C      1  0.4457120000000  0.4892420000000  0.5478010000000 1.0
C      1  0.5129090000000  0.4911430000000  0.5678460000000 1.0
C      1  0.5668250000000  0.4896450000000  0.5212630000000 1.0
C      1  0.5692120000000  0.4861360000000  0.4770460000000 1.0
C      1  0.5156070000000  0.4872870000000  0.4300700000000 1.0
C      1  0.4481990000000  0.4909670000000  0.4539530000000 1.0
C      1  0.4305270000000  0.4876930000000  0.5230540000000 1.0
C      1  0.4841480000000  0.4881340000000  0.5700240000000 1.0
C      1  0.5516150000000  0.4902880000000  0.5461190000000 1.0
END
