TITL C-9266-5713-68 0.00016480714929991 125000 -353.096113973513 0 0 60 (C2) n - 1
REM
REM in /home/bkarasulu/CARBON/AIRSS/Generating-Clusters/EDIP-Nigel-Params/Higher-Symm/Box-15A/Only-C60/SD-CG/HFTN-CG
REM
REM
REM
REM
REM
REM ./C.cell (414f73aa93bd7a1190c7fd0f31ff2f98)
REM
REM compiler GCC version 9.2.1 20190827 (Red Hat 9.2.1-1)
REM options -cpp -mtune=generic -march=x86-64 -g -O0 -fpre-include=/usr/include/finclude/math-vector-fortran.h
REM seed 1099581085 -1078422237 -1358218394 534686520 429615099 743076123 -845878690 -1725539667 55309081 2120915951 -1347296300 37105814 -1995660537 -2107933119 -1989369371 -1858485786 200404902 -1245423577 -1842064820 387064670 -2054528131 1973025498 1691706445 -545131140 -407831841 -1464350819 -831882239 1416153756 -2003343459 -1438896558 -225069986 461551726 -1616193504
REM
CELL 1.54180   50.00000   50.00000   50.00000   90.00000   90.00000   90.00000
LATT -1
SFAC C  
C      1  0.5464850000000  0.4731620000000  0.5509550000000 1.0
C      1  0.4535140000000  0.5268410000000  0.5509520000000 1.0
C      1  0.5469810000000  0.5272950000000  0.4481060000000 1.0
C      1  0.4530190000000  0.4727010000000  0.4481080000000 1.0
C      1  0.4833040000000  0.4822410000000  0.4971670000000 1.0
C      1  0.5166960000000  0.5177590000000  0.4971660000000 1.0
C      1  0.4841490000000  0.5153950000000  0.5030640000000 1.0
C      1  0.5158510000000  0.4846060000000  0.5030650000000 1.0
C      1  0.5389040000000  0.5735100000000  0.4808050000000 1.0
C      1  0.4610960000000  0.4264880000000  0.4808100000000 1.0
C      1  0.5384070000000  0.4269850000000  0.5191070000000 1.0
C      1  0.4615920000000  0.5730160000000  0.5191010000000 1.0
C      1  0.5262250000000  0.4849650000000  0.4389690000000 1.0
C      1  0.4737760000000  0.5150310000000  0.4389670000000 1.0
C      1  0.5264890000000  0.5155220000000  0.5609600000000 1.0
C      1  0.4735110000000  0.4844820000000  0.5609610000000 1.0
C      1  0.5377770000000  0.5260890000000  0.5191200000000 1.0
C      1  0.4622230000000  0.4739120000000  0.5191220000000 1.0
C      1  0.5366720000000  0.4755040000000  0.4813220000000 1.0
C      1  0.4633290000000  0.5244940000000  0.4813200000000 1.0
C      1  0.4928710000000  0.4432770000000  0.5138980000000 1.0
C      1  0.5071280000000  0.5567240000000  0.5138940000000 1.0
C      1  0.4941870000000  0.5549270000000  0.4874870000000 1.0
C      1  0.5058140000000  0.4450720000000  0.4874910000000 1.0
C      1  0.5502610000000  0.4978250000000  0.4454630000000 1.0
C      1  0.4497400000000  0.5021710000000  0.4454630000000 1.0
C      1  0.5503220000000  0.5024260000000  0.5544670000000 1.0
C      1  0.4496780000000  0.4975780000000  0.5544670000000 1.0
C      1  0.4700390000000  0.5741270000000  0.4902910000000 1.0
C      1  0.5299610000000  0.4258730000000  0.4902970000000 1.0
C      1  0.4686700000000  0.4241470000000  0.5098650000000 1.0
C      1  0.5313300000000  0.5758540000000  0.5098600000000 1.0
C      1  0.4994660000000  0.5221610000000  0.4433920000000 1.0
C      1  0.5005350000000  0.4778340000000  0.4433930000000 1.0
C      1  0.4992360000000  0.4779040000000  0.5562480000000 1.0
C      1  0.5007640000000  0.5221000000000  0.5562460000000 1.0
C      1  0.4564920000000  0.5523420000000  0.4770530000000 1.0
C      1  0.5435080000000  0.4476570000000  0.4770580000000 1.0
C      1  0.4550100000000  0.4460520000000  0.5232570000000 1.0
C      1  0.5449900000000  0.5539500000000  0.5232540000000 1.0
C      1  0.5619230000000  0.5570130000000  0.4782360000000 1.0
C      1  0.4380780000000  0.4429860000000  0.4782400000000 1.0
C      1  0.5615120000000  0.4434250000000  0.5214110000000 1.0
C      1  0.4384880000000  0.5565770000000  0.5214060000000 1.0
C      1  0.5665440000000  0.5313820000000  0.4690090000000 1.0
C      1  0.4334560000000  0.4686160000000  0.4690110000000 1.0
C      1  0.5662390000000  0.4692300000000  0.5301820000000 1.0
C      1  0.4337610000000  0.5307720000000  0.5301790000000 1.0
C      1  0.5150030000000  0.4392890000000  0.5336490000000 1.0
C      1  0.4849960000000  0.5607140000000  0.5336440000000 1.0
C      1  0.5152750000000  0.5606720000000  0.4670220000000 1.0
C      1  0.4847250000000  0.4393260000000  0.4670260000000 1.0
C      1  0.5195660000000  0.4687280000000  0.5385880000000 1.0
C      1  0.4804340000000  0.5312750000000  0.5385860000000 1.0
C      1  0.5201480000000  0.5315560000000  0.4606240000000 1.0
C      1  0.4798520000000  0.4684410000000  0.4606260000000 1.0
C      1  0.4410170000000  0.4928620000000  0.5265360000000 1.0
C      1  0.5589830000000  0.5071400000000  0.5265360000000 1.0
C      1  0.4416980000000  0.5061600000000  0.4737490000000 1.0
C      1  0.5583020000000  0.4938380000000  0.4737500000000 1.0
END
