TITL C-9263-351-327 -3.34695196772019e-06 125000 -359.99820770076 0 0 60 (C1) n - 1
REM
REM in /home/bkarasulu/CARBON/AIRSS/Generating-Clusters/EDIP-Nigel-Params/Higher-Symm/Box-15A/Only-C60/SD-CG/HFTN-CG
REM
REM
REM
REM
REM
REM ./C.cell (414f73aa93bd7a1190c7fd0f31ff2f98)
REM
REM compiler GCC version 9.2.1 20190827 (Red Hat 9.2.1-1)
REM options -cpp -mtune=generic -march=x86-64 -g -O0 -fpre-include=/usr/include/finclude/math-vector-fortran.h
REM seed 1759808459 822886779 -885928173 -2004758264 1433019400 -15064443 -2033246619 1401867924 -1702788434 1552147513 985030370 -244073971 -479147912 -1538420822 -1655075105 -845352186 -1114431927 -1561607690 1583558393 1929992949 1720010998 -160992332 -202256873 -715234796 757799177 787195110 -252192829 -1875757361 -643161716 -1634418889 1719412897 -1948581428 943358377
REM
CELL 1.54180   50.00000   50.00000   50.00000   90.00000   90.00000   90.00000
LATT -1
SFAC C  
C      1  0.4836790000000  0.4559340000000  0.5239570000000 1.0
C      1  0.5127860000000  0.4577900000000  0.5314590000000 1.0
C      1  0.5376490000000  0.4556680000000  0.5154420000000 1.0
C      1  0.5376770000000  0.4517330000000  0.4866140000000 1.0
C      1  0.4950990000000  0.4525670000000  0.4604390000000 1.0
C      1  0.4704960000000  0.4655420000000  0.4703680000000 1.0
C      1  0.4658990000000  0.4614160000000  0.5002920000000 1.0
C      1  0.5767890000000  0.5007990000000  0.4580090000000 1.0
C      1  0.5099060000000  0.4964840000000  0.4213960000000 1.0
C      1  0.4385750000000  0.5003620000000  0.4468140000000 1.0
C      1  0.4128790000000  0.5054820000000  0.5067790000000 1.0
C      1  0.4581550000000  0.4974310000000  0.5578250000000 1.0
C      1  0.5307110000000  0.4964770000000  0.5813010000000 1.0
C      1  0.5742740000000  0.5063520000000  0.5304260000000 1.0
C      1  0.4390780000000  0.5578630000000  0.4910090000000 1.0
C      1  0.4566230000000  0.5445350000000  0.5496270000000 1.0
C      1  0.5048670000000  0.5528380000000  0.5606790000000 1.0
C      1  0.5417140000000  0.5416460000000  0.5285260000000 1.0
C      1  0.5581200000000  0.5524560000000  0.4807670000000 1.0
C      1  0.5216770000000  0.5283260000000  0.4549790000000 1.0
C      1  0.4721000000000  0.5292270000000  0.4678910000000 1.0
C      1  0.4826090000000  0.5087760000000  0.5668560000000 1.0
C      1  0.5400200000000  0.5199350000000  0.5671760000000 1.0
C      1  0.5800200000000  0.5229710000000  0.5064300000000 1.0
C      1  0.5591310000000  0.5120030000000  0.4378280000000 1.0
C      1  0.4854540000000  0.5110400000000  0.4295590000000 1.0
C      1  0.4251730000000  0.5227040000000  0.4606460000000 1.0
C      1  0.4313830000000  0.5219200000000  0.5214010000000 1.0
C      1  0.5679810000000  0.5148190000000  0.4812890000000 1.0
C      1  0.5306600000000  0.5051290000000  0.4402960000000 1.0
C      1  0.4674510000000  0.5007310000000  0.4536340000000 1.0
C      1  0.4073150000000  0.5152040000000  0.4812070000000 1.0
C      1  0.4414330000000  0.5190250000000  0.5483670000000 1.0
C      1  0.5022560000000  0.4911930000000  0.5777590000000 1.0
C      1  0.5486210000000  0.5160840000000  0.5400770000000 1.0
C      1  0.4271150000000  0.4746520000000  0.4475760000000 1.0
C      1  0.4170950000000  0.4782000000000  0.5092090000000 1.0
C      1  0.4506470000000  0.4707230000000  0.5613840000000 1.0
C      1  0.5412330000000  0.4716350000000  0.5708930000000 1.0
C      1  0.5793290000000  0.4788630000000  0.5290590000000 1.0
C      1  0.5759210000000  0.4729420000000  0.4601300000000 1.0
C      1  0.5056470000000  0.4694420000000  0.4154540000000 1.0
C      1  0.4941570000000  0.5353390000000  0.4465210000000 1.0
C      1  0.4452890000000  0.5433250000000  0.4678880000000 1.0
C      1  0.4365890000000  0.5500490000000  0.5173380000000 1.0
C      1  0.4821570000000  0.5370760000000  0.5611530000000 1.0
C      1  0.5311500000000  0.5547100000000  0.5525800000000 1.0
C      1  0.5639930000000  0.5484180000000  0.5096550000000 1.0
C      1  0.5468470000000  0.5433490000000  0.4556170000000 1.0
C      1  0.4983890000000  0.4503610000000  0.4329390000000 1.0
C      1  0.4468470000000  0.4578360000000  0.4558060000000 1.0
C      1  0.4388260000000  0.4625900000000  0.5066820000000 1.0
C      1  0.4674510000000  0.4554180000000  0.5466960000000 1.0
C      1  0.5171200000000  0.4607280000000  0.5597840000000 1.0
C      1  0.5629370000000  0.4575840000000  0.5270370000000 1.0
C      1  0.5619480000000  0.4539620000000  0.4730200000000 1.0
C      1  0.5047980000000  0.4827150000000  0.4955070000000 1.0
C      1  0.4989060000000  0.5076620000000  0.5036300000000 1.0
C      1  0.5155370000000  0.4662930000000  0.4753360000000 1.0
C      1  0.4833880000000  0.5268650000000  0.4939900000000 1.0
END
