TITL C-9256-7861-257 1.34137432753933e-05 125000 -364.839313472677 0 0 60 (C1) n - 1
REM
REM in /home/bkarasulu/CARBON/AIRSS/Generating-Clusters/EDIP-Nigel-Params/Higher-Symm/Box-15A/Only-C60/SD-CG/HFTN-CG
REM
REM
REM
REM
REM
REM ./C.cell (414f73aa93bd7a1190c7fd0f31ff2f98)
REM
REM compiler GCC version 9.2.1 20190827 (Red Hat 9.2.1-1)
REM options -cpp -mtune=generic -march=x86-64 -g -O0 -fpre-include=/usr/include/finclude/math-vector-fortran.h
REM seed 1211363245 929639638 -2018041194 -917954914 -1292948010 608900890 1028252723 -718661447 -1445795368 1649371604 -1208390020 1287222451 -431212996 1103521903 348276430 -475528542 288403578 569535886 367398518 133613322 -1084914376 170923921 572796304 636413823 -815757001 -663083546 1738508372 849825515 554509606 1869371662 1693809704 -43562814 1281374617
REM
CELL 1.54180   50.00000   50.00000   50.00000   90.00000   90.00000   90.00000
LATT -1
SFAC C  
C      1  0.5594840000000  0.5070210000000  0.5375080000000 1.0
C      1  0.4431080000000  0.5082430000000  0.5373540000000 1.0
C      1  0.5652590000000  0.4814990000000  0.5471970000000 1.0
C      1  0.4363180000000  0.4829250000000  0.5474100000000 1.0
C      1  0.5330230000000  0.4565640000000  0.4527150000000 1.0
C      1  0.4687190000000  0.4574030000000  0.4533880000000 1.0
C      1  0.5314270000000  0.4503610000000  0.5393520000000 1.0
C      1  0.4701320000000  0.4553520000000  0.5322280000000 1.0
C      1  0.4304570000000  0.4582820000000  0.5066040000000 1.0
C      1  0.5678720000000  0.4545160000000  0.5082770000000 1.0
C      1  0.4324790000000  0.5125000000000  0.5120210000000 1.0
C      1  0.5693450000000  0.5104580000000  0.5118280000000 1.0
C      1  0.5160510000000  0.4954170000000  0.4653920000000 1.0
C      1  0.4857240000000  0.4961420000000  0.4657000000000 1.0
C      1  0.4868270000000  0.5103760000000  0.5127020000000 1.0
C      1  0.5160670000000  0.5103480000000  0.5125000000000 1.0
C      1  0.4846370000000  0.4352900000000  0.4884550000000 1.0
C      1  0.5140010000000  0.4348670000000  0.4895980000000 1.0
C      1  0.5305660000000  0.5147340000000  0.5393370000000 1.0
C      1  0.4720030000000  0.5166320000000  0.5384550000000 1.0
C      1  0.4504640000000  0.5556840000000  0.4930820000000 1.0
C      1  0.5465420000000  0.5605370000000  0.4907360000000 1.0
C      1  0.5589540000000  0.4627750000000  0.4606780000000 1.0
C      1  0.4426990000000  0.4646770000000  0.4600100000000 1.0
C      1  0.5156670000000  0.4613100000000  0.5063550000000 1.0
C      1  0.4821320000000  0.4615580000000  0.5053100000000 1.0
C      1  0.4670570000000  0.5718450000000  0.5118590000000 1.0
C      1  0.5264590000000  0.5729060000000  0.5084410000000 1.0
C      1  0.4828980000000  0.5591010000000  0.5329640000000 1.0
C      1  0.5120020000000  0.5581710000000  0.5290370000000 1.0
C      1  0.5324640000000  0.5579890000000  0.4647870000000 1.0
C      1  0.4643380000000  0.5563480000000  0.4667700000000 1.0
C      1  0.4849710000000  0.4713210000000  0.4328550000000 1.0
C      1  0.5160800000000  0.4712890000000  0.4330170000000 1.0
C      1  0.4871460000000  0.5036120000000  0.5636490000000 1.0
C      1  0.5164900000000  0.4964580000000  0.5584170000000 1.0
C      1  0.4738870000000  0.4913320000000  0.4935440000000 1.0
C      1  0.5272100000000  0.4898350000000  0.4937210000000 1.0
C      1  0.4859410000000  0.5234600000000  0.4314700000000 1.0
C      1  0.5159010000000  0.5229000000000  0.4310370000000 1.0
C      1  0.5120710000000  0.4695360000000  0.5495000000000 1.0
C      1  0.4843030000000  0.4657820000000  0.5546420000000 1.0
C      1  0.5141720000000  0.5430660000000  0.5740000000000 1.0
C      1  0.4878520000000  0.5331010000000  0.5752930000000 1.0
C      1  0.4414310000000  0.4595130000000  0.5325610000000 1.0
C      1  0.5590060000000  0.4570650000000  0.5349660000000 1.0
C      1  0.4773450000000  0.5323870000000  0.4578740000000 1.0
C      1  0.5259220000000  0.5313280000000  0.4567600000000 1.0
C      1  0.4804710000000  0.5779350000000  0.4830270000000 1.0
C      1  0.5127130000000  0.5772720000000  0.4812570000000 1.0
C      1  0.5241230000000  0.4329840000000  0.4637530000000 1.0
C      1  0.4757880000000  0.4321190000000  0.4620830000000 1.0
C      1  0.5274830000000  0.5433370000000  0.5491520000000 1.0
C      1  0.4712460000000  0.5498190000000  0.5576200000000 1.0
C      1  0.5701680000000  0.4704650000000  0.4851150000000 1.0
C      1  0.4305280000000  0.4740300000000  0.4833260000000 1.0
C      1  0.5571730000000  0.4954260000000  0.4914040000000 1.0
C      1  0.4443170000000  0.4983140000000  0.4907980000000 1.0
C      1  0.5260480000000  0.4969970000000  0.4251520000000 1.0
C      1  0.4750400000000  0.4974820000000  0.4259590000000 1.0
END
