TITL C-9262-5533-255 1.35324942488268e-06 125000 -357.453012457609 0 0 60 (C1) n - 1
REM
REM in /home/bkarasulu/CARBON/AIRSS/Generating-Clusters/EDIP-Nigel-Params/Higher-Symm/Box-15A/Only-C60/SD-CG/HFTN-CG
REM
REM
REM
REM
REM
REM ./C.cell (414f73aa93bd7a1190c7fd0f31ff2f98)
REM
REM compiler GCC version 9.2.1 20190827 (Red Hat 9.2.1-1)
REM options -cpp -mtune=generic -march=x86-64 -g -O0 -fpre-include=/usr/include/finclude/math-vector-fortran.h
REM seed 692891786 221597947 -182868017 1956985059 -39755083 -2056657352 483348589 -490559520 1710915785 -1068838722 -93648268 11462708 652597350 -2096020793 -577382419 -445363544 1878584783 -965578779 852957682 -1633226875 -631990627 2082471992 1378342453 -499334733 -617040378 645880413 -370245283 1234798414 71833355 1686818236 1520581554 430214741 -43276196
REM
CELL 1.54180   50.00000   50.00000   50.00000   90.00000   90.00000   90.00000
LATT -1
SFAC C  
C      1  0.5474310000000  0.5360630000000  0.4602010000000 1.0
C      1  0.5482530000000  0.5500460000000  0.5066790000000 1.0
C      1  0.5486040000000  0.5293320000000  0.5496670000000 1.0
C      1  0.5478920000000  0.4814820000000  0.5547180000000 1.0
C      1  0.5460530000000  0.4521100000000  0.5180420000000 1.0
C      1  0.5453730000000  0.4512460000000  0.4708060000000 1.0
C      1  0.5445360000000  0.4908800000000  0.4436960000000 1.0
C      1  0.5038360000000  0.4721300000000  0.5322980000000 1.0
C      1  0.5026480000000  0.4588200000000  0.4962630000000 1.0
C      1  0.5024460000000  0.4769970000000  0.4666280000000 1.0
C      1  0.5034550000000  0.5130970000000  0.4616190000000 1.0
C      1  0.5051370000000  0.5380520000000  0.4861330000000 1.0
C      1  0.5054930000000  0.5344530000000  0.5246110000000 1.0
C      1  0.5056240000000  0.5051700000000  0.5432060000000 1.0
C      1  0.5293510000000  0.4444000000000  0.4952300000000 1.0
C      1  0.5282140000000  0.4680370000000  0.4531370000000 1.0
C      1  0.5295220000000  0.5167240000000  0.4464750000000 1.0
C      1  0.5322270000000  0.5506340000000  0.4816200000000 1.0
C      1  0.5322130000000  0.5469420000000  0.5311850000000 1.0
C      1  0.5319330000000  0.5063100000000  0.5581980000000 1.0
C      1  0.5305280000000  0.4608880000000  0.5412990000000 1.0
C      1  0.4262510000000  0.5111060000000  0.4695330000000 1.0
C      1  0.4413650000000  0.5257490000000  0.4912040000000 1.0
C      1  0.4276640000000  0.5269580000000  0.5190300000000 1.0
C      1  0.4440620000000  0.5027590000000  0.5291530000000 1.0
C      1  0.4325780000000  0.4753970000000  0.5256220000000 1.0
C      1  0.4343270000000  0.4656260000000  0.4978290000000 1.0
C      1  0.4402520000000  0.4845840000000  0.4745520000000 1.0
C      1  0.5726220000000  0.5180080000000  0.5348990000000 1.0
C      1  0.5719080000000  0.4880350000000  0.5372370000000 1.0
C      1  0.5635600000000  0.4750360000000  0.5095230000000 1.0
C      1  0.5700600000000  0.4674150000000  0.4785240000000 1.0
C      1  0.5694300000000  0.4917860000000  0.4603960000000 1.0
C      1  0.5695470000000  0.5199180000000  0.4727520000000 1.0
C      1  0.5650550000000  0.5254210000000  0.5061020000000 1.0
C      1  0.4641120000000  0.5113470000000  0.5844280000000 1.0
C      1  0.4646490000000  0.4388170000000  0.5387850000000 1.0
C      1  0.4628770000000  0.4285380000000  0.4789890000000 1.0
C      1  0.4635860000000  0.4586690000000  0.4266760000000 1.0
C      1  0.4569580000000  0.5240810000000  0.4354670000000 1.0
C      1  0.4637410000000  0.5783610000000  0.4748700000000 1.0
C      1  0.4589820000000  0.5586060000000  0.5379130000000 1.0
C      1  0.4316600000000  0.5213010000000  0.4441680000000 1.0
C      1  0.4541210000000  0.5524870000000  0.4824590000000 1.0
C      1  0.4339630000000  0.5502250000000  0.5329050000000 1.0
C      1  0.4554040000000  0.5069900000000  0.5574940000000 1.0
C      1  0.4436670000000  0.4563910000000  0.5445690000000 1.0
C      1  0.4428270000000  0.4381650000000  0.4956980000000 1.0
C      1  0.4506540000000  0.4711530000000  0.4493870000000 1.0
C      1  0.4845650000000  0.5083390000000  0.5646090000000 1.0
C      1  0.4820090000000  0.4587740000000  0.5474680000000 1.0
C      1  0.4813730000000  0.4379900000000  0.4974740000000 1.0
C      1  0.4807920000000  0.4664880000000  0.4478530000000 1.0
C      1  0.4820450000000  0.5199580000000  0.4438820000000 1.0
C      1  0.4837790000000  0.5586190000000  0.4800510000000 1.0
C      1  0.4844550000000  0.5513040000000  0.5341090000000 1.0
C      1  0.4909130000000  0.5003350000000  0.5018420000000 1.0
C      1  0.5183830000000  0.4995320000000  0.5011030000000 1.0
C      1  0.5475180000000  0.4995520000000  0.4979540000000 1.0
C      1  0.4623980000000  0.4995580000000  0.5028480000000 1.0
END
