TITL C-9262-5533-180 5.49822821387522e-06 125000 -363.422605156454 0 0 60 (C1) n - 1
REM
REM in /home/bkarasulu/CARBON/AIRSS/Generating-Clusters/EDIP-Nigel-Params/Higher-Symm/Box-15A/Only-C60/SD-CG/HFTN-CG
REM
REM
REM
REM
REM
REM ./C.cell (414f73aa93bd7a1190c7fd0f31ff2f98)
REM
REM compiler GCC version 9.2.1 20190827 (Red Hat 9.2.1-1)
REM options -cpp -mtune=generic -march=x86-64 -g -O0 -fpre-include=/usr/include/finclude/math-vector-fortran.h
REM seed 1700937416 -1941918654 -1875702919 -1358420900 -882235548 -623873907 336921593 -1197658443 2139413126 449982971 -1894089357 1398291742 1770239327 -1845563038 67931184 -626842324 -317283273 -63970474 194401497 923276115 -183592441 -941024941 2128176380 1419258442 -992417330 -1458321910 333890650 259706134 621168645 1325967265 -913401158 1178131258 -1739359614
REM
CELL 1.54180   50.00000   50.00000   50.00000   90.00000   90.00000   90.00000
LATT -1
SFAC C  
C      1  0.4770620000000  0.4347530000000  0.4795850000000 1.0
C      1  0.5714340000000  0.5227160000000  0.4864960000000 1.0
C      1  0.4586040000000  0.5502610000000  0.4747020000000 1.0
C      1  0.5237340000000  0.4341330000000  0.5162750000000 1.0
C      1  0.4295520000000  0.5187950000000  0.5151840000000 1.0
C      1  0.5412770000000  0.5488840000000  0.5286560000000 1.0
C      1  0.4838630000000  0.4719170000000  0.4294060000000 1.0
C      1  0.5162260000000  0.5095960000000  0.4329750000000 1.0
C      1  0.4869660000000  0.5000480000000  0.4351530000000 1.0
C      1  0.5093650000000  0.4714260000000  0.5691280000000 1.0
C      1  0.4848810000000  0.5135670000000  0.5666740000000 1.0
C      1  0.5121730000000  0.4992680000000  0.5621260000000 1.0
C      1  0.4916940000000  0.4536020000000  0.5547790000000 1.0
C      1  0.5413210000000  0.5050820000000  0.5568200000000 1.0
C      1  0.4722050000000  0.5386940000000  0.5550740000000 1.0
C      1  0.5074110000000  0.4603920000000  0.4417770000000 1.0
C      1  0.4585760000000  0.5077670000000  0.4425010000000 1.0
C      1  0.5252050000000  0.5352140000000  0.4459560000000 1.0
C      1  0.4611800000000  0.5565790000000  0.5044580000000 1.0
C      1  0.4718100000000  0.4405830000000  0.5083990000000 1.0
C      1  0.5683110000000  0.5077960000000  0.5121900000000 1.0
C      1  0.5367200000000  0.5578230000000  0.5001140000000 1.0
C      1  0.5286700000000  0.4428710000000  0.4881100000000 1.0
C      1  0.4341930000000  0.5059500000000  0.4886430000000 1.0
C      1  0.5623140000000  0.4781510000000  0.5097190000000 1.0
C      1  0.4877700000000  0.5663280000000  0.5140750000000 1.0
C      1  0.4532120000000  0.4644630000000  0.5125750000000 1.0
C      1  0.4400230000000  0.4762950000000  0.4886840000000 1.0
C      1  0.5091230000000  0.5665720000000  0.4947950000000 1.0
C      1  0.5454030000000  0.4682240000000  0.4867380000000 1.0
C      1  0.4792740000000  0.5099980000000  0.4858820000000 1.0
C      1  0.4988570000000  0.4785370000000  0.4834560000000 1.0
C      1  0.5257840000000  0.5157110000000  0.4864330000000 1.0
C      1  0.5231440000000  0.5074760000000  0.5154170000000 1.0
C      1  0.5012240000000  0.4767650000000  0.5145690000000 1.0
C      1  0.4738650000000  0.5123010000000  0.5153410000000 1.0
C      1  0.4979800000000  0.5429810000000  0.4556380000000 1.0
C      1  0.4476120000000  0.4803670000000  0.4398900000000 1.0
C      1  0.5274950000000  0.4838090000000  0.4432260000000 1.0
C      1  0.4965890000000  0.5489060000000  0.5369980000000 1.0
C      1  0.5566810000000  0.4813970000000  0.5573530000000 1.0
C      1  0.4731830000000  0.4797830000000  0.5565870000000 1.0
C      1  0.4996200000000  0.5210670000000  0.5256750000000 1.0
C      1  0.4712280000000  0.4841660000000  0.5264350000000 1.0
C      1  0.5596120000000  0.4641170000000  0.5352840000000 1.0
C      1  0.5002030000000  0.5310640000000  0.4823840000000 1.0
C      1  0.5273000000000  0.4880480000000  0.4731220000000 1.0
C      1  0.4476040000000  0.4639660000000  0.4634690000000 1.0
C      1  0.4977670000000  0.4475280000000  0.5247360000000 1.0
C      1  0.5463690000000  0.5189570000000  0.5303590000000 1.0
C      1  0.4541750000000  0.5340000000000  0.5242300000000 1.0
C      1  0.5024840000000  0.4497430000000  0.4715280000000 1.0
C      1  0.4550230000000  0.5196430000000  0.4708670000000 1.0
C      1  0.5460530000000  0.5370420000000  0.4786300000000 1.0
C      1  0.5865950000000  0.5112220000000  0.4678270000000 1.0
C      1  0.4773840000000  0.5629860000000  0.4568840000000 1.0
C      1  0.4545500000000  0.4369020000000  0.4627780000000 1.0
C      1  0.4144530000000  0.5055340000000  0.5326340000000 1.0
C      1  0.5221860000000  0.5580410000000  0.5475980000000 1.0
C      1  0.5454280000000  0.4401950000000  0.5330020000000 1.0
END
