TITL C-9270-2362-306 5.43776776425622e-07 125000 -364.7643796636 0 0 60 (C1) n - 1
REM
REM in /home/bkarasulu/CARBON/AIRSS/Generating-Clusters/EDIP-Nigel-Params/Higher-Symm/Box-15A/Only-C60/SD-CG/HFTN-CG
REM
REM
REM
REM
REM
REM ./C.cell (414f73aa93bd7a1190c7fd0f31ff2f98)
REM
REM compiler GCC version 9.2.1 20190827 (Red Hat 9.2.1-1)
REM options -cpp -mtune=generic -march=x86-64 -g -O0 -fpre-include=/usr/include/finclude/math-vector-fortran.h
REM seed -1080280697 1868118223 -1649592899 326963145 578288808 -862440842 -1052476687 1466480538 -1008616798 33428491 364590599 -2068574738 -2034150101 648522046 1686007620 643102032 1541503246 -810498738 -1339297283 1479877746 1489276014 -1875872394 -729908496 -1557830283 803478268 1956768537 782364468 -13389763 -1030391541 -1755305008 -1190899580 -6541857 1082639404
REM
CELL 1.54180   50.00000   50.00000   50.00000   90.00000   90.00000   90.00000
LATT -1
SFAC C  
C      1  0.4338270000000  0.4567750000000  0.4887580000000 1.0
C      1  0.5149740000000  0.5508000000000  0.5149910000000 1.0
C      1  0.4905820000000  0.4457110000000  0.4677770000000 1.0
C      1  0.5122710000000  0.4704470000000  0.4387320000000 1.0
C      1  0.4872060000000  0.4379740000000  0.5141120000000 1.0
C      1  0.4634320000000  0.5165820000000  0.5503290000000 1.0
C      1  0.4778160000000  0.5111750000000  0.4598920000000 1.0
C      1  0.4248950000000  0.5034080000000  0.4655710000000 1.0
C      1  0.5180010000000  0.5295580000000  0.4910120000000 1.0
C      1  0.5446960000000  0.4499410000000  0.4735580000000 1.0
C      1  0.5250990000000  0.4338430000000  0.5454570000000 1.0
C      1  0.5164410000000  0.5625380000000  0.4712640000000 1.0
C      1  0.4968140000000  0.5159690000000  0.4374020000000 1.0
C      1  0.4369990000000  0.5252260000000  0.4787300000000 1.0
C      1  0.4913940000000  0.5122460000000  0.4883490000000 1.0
C      1  0.4706090000000  0.5608200000000  0.4638180000000 1.0
C      1  0.4244130000000  0.4648850000000  0.5127050000000 1.0
C      1  0.5436720000000  0.5544830000000  0.5237650000000 1.0
C      1  0.5162920000000  0.4336650000000  0.5175760000000 1.0
C      1  0.5288730000000  0.4506960000000  0.4504630000000 1.0
C      1  0.4827680000000  0.4717060000000  0.5605140000000 1.0
C      1  0.5661500000000  0.4674970000000  0.4705670000000 1.0
C      1  0.5209740000000  0.4896000000000  0.5202380000000 1.0
C      1  0.4484330000000  0.5063510000000  0.5271950000000 1.0
C      1  0.4578150000000  0.4706960000000  0.4842130000000 1.0
C      1  0.4685850000000  0.4337020000000  0.5351550000000 1.0
C      1  0.4637130000000  0.4833200000000  0.4571040000000 1.0
C      1  0.5475750000000  0.5277170000000  0.5349840000000 1.0
C      1  0.4460290000000  0.4766990000000  0.5265220000000 1.0
C      1  0.5341020000000  0.4517960000000  0.5012330000000 1.0
C      1  0.5450610000000  0.5099010000000  0.4431800000000 1.0
C      1  0.5194410000000  0.4987240000000  0.4393450000000 1.0
C      1  0.4367860000000  0.4878100000000  0.4459910000000 1.0
C      1  0.5059050000000  0.4564200000000  0.5691850000000 1.0
C      1  0.5182680000000  0.4961120000000  0.5505500000000 1.0
C      1  0.4620890000000  0.5452630000000  0.5547620000000 1.0
C      1  0.5593180000000  0.5571450000000  0.5006570000000 1.0
C      1  0.5044750000000  0.5713550000000  0.4961790000000 1.0
C      1  0.4628740000000  0.5499020000000  0.5106780000000 1.0
C      1  0.5403230000000  0.5105470000000  0.5114070000000 1.0
C      1  0.4839060000000  0.4592700000000  0.4928160000000 1.0
C      1  0.4963380000000  0.5431890000000  0.5368160000000 1.0
C      1  0.5012570000000  0.5426930000000  0.4308330000000 1.0
C      1  0.5326870000000  0.5204460000000  0.5574580000000 1.0
C      1  0.5643740000000  0.4911310000000  0.5107350000000 1.0
C      1  0.4972330000000  0.5623280000000  0.4502070000000 1.0
C      1  0.5686600000000  0.4930430000000  0.4818720000000 1.0
C      1  0.4573010000000  0.5336280000000  0.4590820000000 1.0
C      1  0.4848510000000  0.5611400000000  0.5549660000000 1.0
C      1  0.4566660000000  0.5230190000000  0.5023580000000 1.0
C      1  0.4987330000000  0.4857600000000  0.5002140000000 1.0
C      1  0.5556040000000  0.4621170000000  0.5192560000000 1.0
C      1  0.4625460000000  0.4596630000000  0.5439390000000 1.0
C      1  0.5582520000000  0.5406230000000  0.4791840000000 1.0
C      1  0.5469310000000  0.4540750000000  0.5489130000000 1.0
C      1  0.4828010000000  0.5000370000000  0.5639440000000 1.0
C      1  0.4841450000000  0.4628600000000  0.4454870000000 1.0
C      1  0.5299570000000  0.4727740000000  0.5657500000000 1.0
C      1  0.5538180000000  0.5148550000000  0.4694440000000 1.0
C      1  0.4749510000000  0.5683440000000  0.4928090000000 1.0
END
