TITL C-9256-7861-86 -1.08940470846703e-06 125000 -369.766670782276 0 0 60 (C1) n - 1
REM
REM in /home/bkarasulu/CARBON/AIRSS/Generating-Clusters/EDIP-Nigel-Params/Higher-Symm/Box-15A/Only-C60/SD-CG/HFTN-CG
REM
REM
REM
REM
REM
REM ./C.cell (414f73aa93bd7a1190c7fd0f31ff2f98)
REM
REM compiler GCC version 9.2.1 20190827 (Red Hat 9.2.1-1)
REM options -cpp -mtune=generic -march=x86-64 -g -O0 -fpre-include=/usr/include/finclude/math-vector-fortran.h
REM seed 2064646321 -700488276 848563930 41716026 -1984793512 1556181386 -544059271 -843588602 1549799022 -166946627 -1122189218 1482499947 -1674785952 -367600050 -2060835361 -2125130494 -1258442750 -682974588 -1854288478 124752603 -1615238647 1372922168 -1515587296 515704397 1972271044 -1179025202 1833536326 -1291107994 -2052888897 564219298 1762544139 2038848324 888498244
REM
CELL 1.54180   50.00000   50.00000   50.00000   90.00000   90.00000   90.00000
LATT -1
SFAC C  
C      1  0.4930150000000  0.4773420000000  0.5134270000000 1.0
C      1  0.5195860000000  0.4868610000000  0.5008100000000 1.0
C      1  0.5161980000000  0.5200990000000  0.4999070000000 1.0
C      1  0.4861870000000  0.5223440000000  0.5117820000000 1.0
C      1  0.4724930000000  0.4975600000000  0.4991830000000 1.0
C      1  0.4942200000000  0.5202220000000  0.4237860000000 1.0
C      1  0.4783840000000  0.4972830000000  0.4168740000000 1.0
C      1  0.4955540000000  0.4766380000000  0.4270980000000 1.0
C      1  0.5220680000000  0.4848050000000  0.4208660000000 1.0
C      1  0.5204520000000  0.5120880000000  0.4166590000000 1.0
C      1  0.5342290000000  0.5576980000000  0.4720790000000 1.0
C      1  0.4590130000000  0.5469690000000  0.4780500000000 1.0
C      1  0.4383130000000  0.4737000000000  0.4724460000000 1.0
C      1  0.5060830000000  0.4378950000000  0.4762890000000 1.0
C      1  0.5656900000000  0.4861540000000  0.4726020000000 1.0
C      1  0.4913950000000  0.5231460000000  0.4535800000000 1.0
C      1  0.4745790000000  0.4990100000000  0.4668150000000 1.0
C      1  0.4921690000000  0.4751270000000  0.4567570000000 1.0
C      1  0.5188040000000  0.4855740000000  0.4690810000000 1.0
C      1  0.5175390000000  0.5166890000000  0.4677330000000 1.0
C      1  0.5207820000000  0.4865660000000  0.5821280000000 1.0
C      1  0.5195480000000  0.5168290000000  0.5818080000000 1.0
C      1  0.4906000000000  0.5244450000000  0.5760850000000 1.0
C      1  0.4739030000000  0.4999230000000  0.5807880000000 1.0
C      1  0.4929080000000  0.4765650000000  0.5767870000000 1.0
C      1  0.4321730000000  0.5152900000000  0.5010310000000 1.0
C      1  0.4660120000000  0.4461120000000  0.5034090000000 1.0
C      1  0.5458830000000  0.4513600000000  0.4999800000000 1.0
C      1  0.5598050000000  0.5258140000000  0.5019030000000 1.0
C      1  0.4958900000000  0.5667120000000  0.5046220000000 1.0
C      1  0.5520140000000  0.5010550000000  0.5167710000000 1.0
C      1  0.5202870000000  0.5585940000000  0.5203350000000 1.0
C      1  0.4440240000000  0.5332620000000  0.5214710000000 1.0
C      1  0.4505840000000  0.4658390000000  0.5196310000000 1.0
C      1  0.5248460000000  0.4474640000000  0.5198550000000 1.0
C      1  0.5411840000000  0.5499380000000  0.5003800000000 1.0
C      1  0.4689830000000  0.5475960000000  0.5066200000000 1.0
C      1  0.4358760000000  0.4846340000000  0.5008720000000 1.0
C      1  0.4980390000000  0.4399000000000  0.5052030000000 1.0
C      1  0.5623470000000  0.4766170000000  0.5010620000000 1.0
C      1  0.4820310000000  0.4390640000000  0.4588570000000 1.0
C      1  0.5433750000000  0.4717710000000  0.4575160000000 1.0
C      1  0.5418690000000  0.5314330000000  0.4577400000000 1.0
C      1  0.4824390000000  0.5501720000000  0.4605870000000 1.0
C      1  0.4460730000000  0.4988580000000  0.4570380000000 1.0
C      1  0.4597720000000  0.4509130000000  0.4748500000000 1.0
C      1  0.5362030000000  0.4449130000000  0.4721170000000 1.0
C      1  0.5642990000000  0.5175350000000  0.4733840000000 1.0
C      1  0.5039400000000  0.5656990000000  0.4753450000000 1.0
C      1  0.4385010000000  0.5244280000000  0.4734300000000 1.0
C      1  0.5361930000000  0.5262740000000  0.5582590000000 1.0
C      1  0.4887630000000  0.5342300000000  0.5487840000000 1.0
C      1  0.4524290000000  0.4976490000000  0.5600590000000 1.0
C      1  0.4885490000000  0.4657790000000  0.5500360000000 1.0
C      1  0.5396520000000  0.4778020000000  0.5608430000000 1.0
C      1  0.4449950000000  0.5214900000000  0.5469140000000 1.0
C      1  0.4620920000000  0.4747600000000  0.5445320000000 1.0
C      1  0.5312020000000  0.4555300000000  0.5458100000000 1.0
C      1  0.5502740000000  0.5020100000000  0.5470490000000 1.0
C      1  0.5156900000000  0.5379710000000  0.5402850000000 1.0
END
