TITL C-9265-7156-83 1.16227661651376e-06 125000 -363.986374135602 0 0 60 (C1) n - 1
REM
REM in /home/bkarasulu/CARBON/AIRSS/Generating-Clusters/EDIP-Nigel-Params/Higher-Symm/Box-15A/Only-C60/SD-CG/HFTN-CG
REM
REM
REM
REM
REM
REM ./C.cell (414f73aa93bd7a1190c7fd0f31ff2f98)
REM
REM compiler GCC version 9.2.1 20190827 (Red Hat 9.2.1-1)
REM options -cpp -mtune=generic -march=x86-64 -g -O0 -fpre-include=/usr/include/finclude/math-vector-fortran.h
REM seed -1793522701 1393092286 -788047803 1439619745 -999461150 365497117 100915537 -1584973978 -103609523 -1483754982 2086135178 -1061497478 -732674817 -1515213887 1694007062 1298359848 -1900937561 1660417638 -643402967 1834765416 -69776931 688084134 -888838105 83581680 -1860517223 227817180 1241544519 1429618905 1748520684 1992977870 -1441319914 1151645432 1396583077
REM
CELL 1.54180   50.00000   50.00000   50.00000   90.00000   90.00000   90.00000
LATT -1
SFAC C  
C      1  0.4585390000000  0.5166550000000  0.4423690000000 1.0
C      1  0.5440090000000  0.4873040000000  0.5598750000000 1.0
C      1  0.5560150000000  0.4929740000000  0.5333770000000 1.0
C      1  0.4391890000000  0.5163960000000  0.4654260000000 1.0
C      1  0.4458050000000  0.4664660000000  0.4755780000000 1.0
C      1  0.5544720000000  0.5368800000000  0.5278530000000 1.0
C      1  0.5424020000000  0.4305300000000  0.4824840000000 1.0
C      1  0.4602390000000  0.5670090000000  0.5179040000000 1.0
C      1  0.5141720000000  0.5455250000000  0.5042880000000 1.0
C      1  0.4864570000000  0.4487440000000  0.4968660000000 1.0
C      1  0.4707190000000  0.4477720000000  0.4300760000000 1.0
C      1  0.5209860000000  0.5585660000000  0.5645900000000 1.0
C      1  0.5478910000000  0.4946530000000  0.4292070000000 1.0
C      1  0.4533060000000  0.5053940000000  0.5659270000000 1.0
C      1  0.5324120000000  0.4516400000000  0.5513340000000 1.0
C      1  0.4719580000000  0.5522870000000  0.4477710000000 1.0
C      1  0.5075710000000  0.5319600000000  0.5292060000000 1.0
C      1  0.4924840000000  0.4581100000000  0.4696980000000 1.0
C      1  0.5724160000000  0.5154520000000  0.5297700000000 1.0
C      1  0.4330000000000  0.4919140000000  0.4796240000000 1.0
C      1  0.4874200000000  0.5382960000000  0.4286140000000 1.0
C      1  0.5151640000000  0.4639630000000  0.5700440000000 1.0
C      1  0.5048350000000  0.5733800000000  0.5043900000000 1.0
C      1  0.4993820000000  0.4224630000000  0.5012880000000 1.0
C      1  0.5498060000000  0.4725260000000  0.4601920000000 1.0
C      1  0.4409270000000  0.5237900000000  0.5345790000000 1.0
C      1  0.5270520000000  0.4291880000000  0.5057860000000 1.0
C      1  0.4776320000000  0.5709540000000  0.4963120000000 1.0
C      1  0.4504050000000  0.5324990000000  0.4862510000000 1.0
C      1  0.5483260000000  0.4753800000000  0.5117430000000 1.0
C      1  0.5447750000000  0.5157100000000  0.4756270000000 1.0
C      1  0.4579980000000  0.4815700000000  0.5226220000000 1.0
C      1  0.4685710000000  0.4658760000000  0.4541960000000 1.0
C      1  0.5301210000000  0.5357130000000  0.5477560000000 1.0
C      1  0.4550460000000  0.5501550000000  0.5398200000000 1.0
C      1  0.5392950000000  0.4443440000000  0.4580260000000 1.0
C      1  0.5178130000000  0.5220580000000  0.4637640000000 1.0
C      1  0.4856410000000  0.4797970000000  0.5334990000000 1.0
C      1  0.5017350000000  0.4645910000000  0.5159350000000 1.0
C      1  0.4995890000000  0.5329670000000  0.4826560000000 1.0
C      1  0.4566100000000  0.4572840000000  0.5019690000000 1.0
C      1  0.5440230000000  0.5401230000000  0.5000970000000 1.0
C      1  0.5288550000000  0.4546890000000  0.5219570000000 1.0
C      1  0.4744730000000  0.5477050000000  0.4771290000000 1.0
C      1  0.4753580000000  0.4923140000000  0.4423150000000 1.0
C      1  0.5296940000000  0.5127460000000  0.5674430000000 1.0
C      1  0.5604650000000  0.5094490000000  0.4505500000000 1.0
C      1  0.4412000000000  0.4872760000000  0.5470990000000 1.0
C      1  0.5215010000000  0.5035230000000  0.4199380000000 1.0
C      1  0.4794970000000  0.4973950000000  0.5774950000000 1.0
C      1  0.4512150000000  0.5107860000000  0.5081090000000 1.0
C      1  0.5434220000000  0.4869840000000  0.4852270000000 1.0
C      1  0.5032830000000  0.5178380000000  0.5826200000000 1.0
C      1  0.4970990000000  0.4849470000000  0.4230780000000 1.0
C      1  0.4993330000000  0.4541130000000  0.4239860000000 1.0
C      1  0.4962290000000  0.5466060000000  0.5745640000000 1.0
C      1  0.4788290000000  0.5382660000000  0.5518300000000 1.0
C      1  0.5099950000000  0.4440040000000  0.4510680000000 1.0
C      1  0.5133840000000  0.5275770000000  0.4353850000000 1.0
C      1  0.4899610000000  0.4749220000000  0.5618160000000 1.0
END
