TITL C-9258-7861-282 -3.71427456081707e-06 125000 -373.283866323383 0 0 60 (Cs) n - 1
REM
REM in /home/bkarasulu/CARBON/AIRSS/Generating-Clusters/EDIP-Nigel-Params/Higher-Symm/Box-15A/Only-C60/SD-CG/HFTN-CG
REM
REM
REM
REM
REM
REM ./C.cell (414f73aa93bd7a1190c7fd0f31ff2f98)
REM
REM compiler GCC version 9.2.1 20190827 (Red Hat 9.2.1-1)
REM options -cpp -mtune=generic -march=x86-64 -g -O0 -fpre-include=/usr/include/finclude/math-vector-fortran.h
REM seed 1149857790 1100532773 895098184 -222059435 753508462 1305881890 194515913 1326584720 1918123214 1599979622 1236040441 -447101609 621478487 10305013 -1210139046 -1322138405 -1146932615 -1013254607 -1735650612 -275949042 -12357211 5796152 2118054766 1302671104 363649716 1679620234 597087866 707360945 1762192883 1316851620 -1589383214 -136176616 16782340
REM
CELL 1.54180   50.00000   50.00000   50.00000   90.00000   90.00000   90.00000
LATT -1
SFAC C  
C      1  0.4416630000000  0.5236620000000  0.4540960000000 1.0
C      1  0.4422080000000  0.4639300000000  0.4646850000000 1.0
C      1  0.4432810000000  0.4559100000000  0.5249390000000 1.0
C      1  0.4376640000000  0.5107950000000  0.5513490000000 1.0
C      1  0.4406260000000  0.5520800000000  0.5073870000000 1.0
C      1  0.5579230000000  0.5232190000000  0.4533520000000 1.0
C      1  0.5570590000000  0.4634920000000  0.4639500000000 1.0
C      1  0.5566960000000  0.4554770000000  0.5242130000000 1.0
C      1  0.5630690000000  0.5103170000000  0.5505460000000 1.0
C      1  0.5598590000000  0.5516250000000  0.5066230000000 1.0
C      1  0.5626590000000  0.4789970000000  0.5111450000000 1.0
C      1  0.5640230000000  0.5048380000000  0.5235310000000 1.0
C      1  0.5643280000000  0.5246870000000  0.5029360000000 1.0
C      1  0.5623700000000  0.5112400000000  0.4777560000000 1.0
C      1  0.5612720000000  0.4831040000000  0.4828050000000 1.0
C      1  0.4373310000000  0.4794740000000  0.5119480000000 1.0
C      1  0.4363220000000  0.5053240000000  0.5243490000000 1.0
C      1  0.4359050000000  0.5251760000000  0.5037580000000 1.0
C      1  0.4374380000000  0.5117160000000  0.4785560000000 1.0
C      1  0.4383860000000  0.4835720000000  0.4835920000000 1.0
C      1  0.5192530000000  0.4251490000000  0.5246270000000 1.0
C      1  0.5284250000000  0.4982020000000  0.5791500000000 1.0
C      1  0.5197760000000  0.5725220000000  0.5227100000000 1.0
C      1  0.5191430000000  0.5450690000000  0.4355540000000 1.0
C      1  0.5188100000000  0.4529200000000  0.4371020000000 1.0
C      1  0.4804940000000  0.4252970000000  0.5248750000000 1.0
C      1  0.4725780000000  0.4984140000000  0.5795070000000 1.0
C      1  0.4810690000000  0.5726700000000  0.5229580000000 1.0
C      1  0.4803770000000  0.5452170000000  0.4358020000000 1.0
C      1  0.4800280000000  0.4530680000000  0.4373500000000 1.0
C      1  0.5146560000000  0.4750660000000  0.5729780000000 1.0
C      1  0.5149010000000  0.5563160000000  0.5463420000000 1.0
C      1  0.5143870000000  0.5634250000000  0.4575320000000 1.0
C      1  0.5138680000000  0.4795210000000  0.4266130000000 1.0
C      1  0.5141050000000  0.4236520000000  0.4960960000000 1.0
C      1  0.4860900000000  0.4751750000000  0.5731610000000 1.0
C      1  0.4861240000000  0.5564260000000  0.5465260000000 1.0
C      1  0.4855540000000  0.5635350000000  0.4577160000000 1.0
C      1  0.4850380000000  0.4796300000000  0.4267970000000 1.0
C      1  0.4852650000000  0.4237620000000  0.4962810000000 1.0
C      1  0.4567760000000  0.5187900000000  0.5695620000000 1.0
C      1  0.4607310000000  0.5705480000000  0.5030820000000 1.0
C      1  0.4603230000000  0.5250750000000  0.4337800000000 1.0
C      1  0.4601730000000  0.4448400000000  0.4560560000000 1.0
C      1  0.4626450000000  0.4422650000000  0.5391770000000 1.0
C      1  0.5442530000000  0.5184560000000  0.5690020000000 1.0
C      1  0.5398410000000  0.5702470000000  0.5025760000000 1.0
C      1  0.5390160000000  0.5247750000000  0.4332760000000 1.0
C      1  0.5388400000000  0.4445400000000  0.4555520000000 1.0
C      1  0.5374130000000  0.4419800000000  0.5386980000000 1.0
C      1  0.4686040000000  0.5744680000000  0.4768140000000 1.0
C      1  0.4679440000000  0.5010520000000  0.4223010000000 1.0
C      1  0.4678260000000  0.4259270000000  0.4747670000000 1.0
C      1  0.4721260000000  0.4538290000000  0.5625010000000 1.0
C      1  0.4691890000000  0.5427170000000  0.5636280000000 1.0
C      1  0.5316630000000  0.5742280000000  0.4764100000000 1.0
C      1  0.5310660000000  0.5008120000000  0.4218970000000 1.0
C      1  0.5312830000000  0.4256850000000  0.4743610000000 1.0
C      1  0.5283200000000  0.4536150000000  0.5621410000000 1.0
C      1  0.5319480000000  0.5424780000000  0.5632260000000 1.0
END
