TITL C-9266-5713-294 -2.60072335842836e-05 125000 -343.135405783797 0 0 60 (S4) n - 1
REM
REM in /home/bkarasulu/CARBON/AIRSS/Generating-Clusters/EDIP-Nigel-Params/Higher-Symm/Box-15A/Only-C60/SD-CG/HFTN-CG
REM
REM
REM
REM
REM
REM ./C.cell (414f73aa93bd7a1190c7fd0f31ff2f98)
REM
REM compiler GCC version 9.2.1 20190827 (Red Hat 9.2.1-1)
REM options -cpp -mtune=generic -march=x86-64 -g -O0 -fpre-include=/usr/include/finclude/math-vector-fortran.h
REM seed 1075144499 352608344 928749942 339524758 649179955 -502990087 -217215098 661776110 773969293 21370770 614468286 -569845101 -1948746680 -1026064601 225457159 -1603504528 1137770748 -201034352 1305949109 14825953 -1989848710 949605491 -29848096 -37287438 2134211057 -2050943919 379343493 -1344201473 1448102879 -359544509 -1732448772 1986479116 -301198382
REM
CELL 1.54180   50.00000   50.00000   50.00000   90.00000   90.00000   90.00000
LATT -1
SFAC C  
C      1  0.5049190000000  0.4659980000000  0.5715190000000 1.0
C      1  0.4659990000000  0.4950810000000  0.4284810000000 1.0
C      1  0.4950800000000  0.5340010000000  0.5715190000000 1.0
C      1  0.5340020000000  0.5049200000000  0.4284810000000 1.0
C      1  0.5587030000000  0.5328390000000  0.4596590000000 1.0
C      1  0.5328390000000  0.4412970000000  0.5403410000000 1.0
C      1  0.4412970000000  0.4671610000000  0.4596580000000 1.0
C      1  0.4671610000000  0.5587030000000  0.5403420000000 1.0
C      1  0.4696650000000  0.5242030000000  0.5786240000000 1.0
C      1  0.5242030000000  0.5303350000000  0.4213760000000 1.0
C      1  0.5303350000000  0.4757960000000  0.5786240000000 1.0
C      1  0.4757970000000  0.4696660000000  0.4213760000000 1.0
C      1  0.4804930000000  0.4448930000000  0.4312640000000 1.0
C      1  0.4448920000000  0.5195070000000  0.5687360000000 1.0
C      1  0.5195080000000  0.5551080000000  0.4312650000000 1.0
C      1  0.5551070000000  0.4804920000000  0.5687360000000 1.0
C      1  0.5055950000000  0.4784180000000  0.4619180000000 1.0
C      1  0.4784180000000  0.4944050000000  0.5380820000000 1.0
C      1  0.4944050000000  0.5215820000000  0.4619180000000 1.0
C      1  0.5215820000000  0.5055940000000  0.5380820000000 1.0
C      1  0.5498270000000  0.4502170000000  0.5173450000000 1.0
C      1  0.4502170000000  0.4501730000000  0.4826540000000 1.0
C      1  0.4501730000000  0.5497830000000  0.5173450000000 1.0
C      1  0.5497830000000  0.5498270000000  0.4826550000000 1.0
C      1  0.4829850000000  0.5465860000000  0.4720480000000 1.0
C      1  0.5465860000000  0.5170150000000  0.5279530000000 1.0
C      1  0.5170150000000  0.4534140000000  0.4720470000000 1.0
C      1  0.4534140000000  0.4829850000000  0.5279520000000 1.0
C      1  0.5171440000000  0.4753590000000  0.5300970000000 1.0
C      1  0.4753590000000  0.4828560000000  0.4699030000000 1.0
C      1  0.4828560000000  0.5246410000000  0.5300970000000 1.0
C      1  0.5246410000000  0.5171440000000  0.4699040000000 1.0
C      1  0.4315150000000  0.5250800000000  0.5216520000000 1.0
C      1  0.5250800000000  0.5684850000000  0.4783490000000 1.0
C      1  0.5684850000000  0.4749190000000  0.5216520000000 1.0
C      1  0.4749200000000  0.4315150000000  0.4783480000000 1.0
C      1  0.4735060000000  0.5017300000000  0.4948830000000 1.0
C      1  0.5017300000000  0.5264940000000  0.5051170000000 1.0
C      1  0.5264940000000  0.4982700000000  0.4948830000000 1.0
C      1  0.4982700000000  0.4735060000000  0.5051160000000 1.0
C      1  0.5151100000000  0.5153420000000  0.5642720000000 1.0
C      1  0.5153420000000  0.4848910000000  0.4357290000000 1.0
C      1  0.4848900000000  0.4846570000000  0.5642710000000 1.0
C      1  0.4846580000000  0.5151100000000  0.4357290000000 1.0
C      1  0.5671790000000  0.4907550000000  0.5459680000000 1.0
C      1  0.4907550000000  0.4328210000000  0.4540320000000 1.0
C      1  0.4328210000000  0.5092440000000  0.5459680000000 1.0
C      1  0.5092450000000  0.5671790000000  0.4540330000000 1.0
C      1  0.4473030000000  0.5185650000000  0.4932360000000 1.0
C      1  0.5185650000000  0.5526970000000  0.5067640000000 1.0
C      1  0.5526970000000  0.4814350000000  0.4932360000000 1.0
C      1  0.4814350000000  0.4473030000000  0.5067630000000 1.0
C      1  0.5545620000000  0.5074180000000  0.4479650000000 1.0
C      1  0.5074170000000  0.4454380000000  0.5520350000000 1.0
C      1  0.4454390000000  0.4925830000000  0.4479650000000 1.0
C      1  0.4925820000000  0.5545610000000  0.5520350000000 1.0
C      1  0.4529780000000  0.4572910000000  0.5146440000000 1.0
C      1  0.4572920000000  0.5470220000000  0.4853560000000 1.0
C      1  0.5470220000000  0.5427080000000  0.5146440000000 1.0
C      1  0.5427080000000  0.4529780000000  0.4853560000000 1.0
END
