TITL C-9266-5713-204 1.36394185154423e-05 125000 -362.002114493558 0 0 60 (C1) n - 1
REM
REM in /home/bkarasulu/CARBON/AIRSS/Generating-Clusters/EDIP-Nigel-Params/Higher-Symm/Box-15A/Only-C60/SD-CG/HFTN-CG
REM
REM
REM
REM
REM
REM ./C.cell (414f73aa93bd7a1190c7fd0f31ff2f98)
REM
REM compiler GCC version 9.2.1 20190827 (Red Hat 9.2.1-1)
REM options -cpp -mtune=generic -march=x86-64 -g -O0 -fpre-include=/usr/include/finclude/math-vector-fortran.h
REM seed 146881744 1162847891 -2138605118 1401103451 1612145738 -833146260 858194922 1282355713 -1515744593 1069613830 1707255235 1273062806 748034094 903585494 -1016486330 -416407302 -739090065 -374530320 -179384490 1789527831 1903062638 -1727207462 -784669225 -452166573 -1566975943 -234138188 -355820540 1267783602 998472985 -404602250 -1154850965 -1109052905 -1532788669
REM
CELL 1.54180   50.00000   50.00000   50.00000   90.00000   90.00000   90.00000
LATT -1
SFAC C  
C      1  0.5330870000000  0.4813110000000  0.5349770000000 1.0
C      1  0.4697000000000  0.4814490000000  0.5289920000000 1.0
C      1  0.4978070000000  0.5424460000000  0.5309370000000 1.0
C      1  0.5297710000000  0.5697220000000  0.5161030000000 1.0
C      1  0.5435310000000  0.4389490000000  0.5130980000000 1.0
C      1  0.4256100000000  0.4883030000000  0.5174060000000 1.0
C      1  0.5360550000000  0.4858480000000  0.4425270000000 1.0
C      1  0.4623120000000  0.4749800000000  0.4437200000000 1.0
C      1  0.4988970000000  0.5288400000000  0.4510010000000 1.0
C      1  0.4422480000000  0.5011440000000  0.4727510000000 1.0
C      1  0.5399820000000  0.5451450000000  0.4715750000000 1.0
C      1  0.5170880000000  0.4468670000000  0.4701280000000 1.0
C      1  0.4650710000000  0.4549530000000  0.4660680000000 1.0
C      1  0.4791400000000  0.5458400000000  0.4648450000000 1.0
C      1  0.5505210000000  0.4940550000000  0.4668310000000 1.0
C      1  0.4802280000000  0.5145950000000  0.5660050000000 1.0
C      1  0.5238750000000  0.4984390000000  0.5741860000000 1.0
C      1  0.4972440000000  0.4924120000000  0.5678240000000 1.0
C      1  0.5246500000000  0.5401040000000  0.4485420000000 1.0
C      1  0.5173830000000  0.4644900000000  0.4474110000000 1.0
C      1  0.4403190000000  0.4927090000000  0.4451260000000 1.0
C      1  0.5258770000000  0.5055040000000  0.4246070000000 1.0
C      1  0.4833840000000  0.4865500000000  0.4298540000000 1.0
C      1  0.4981380000000  0.5102600000000  0.4286470000000 1.0
C      1  0.4945430000000  0.5659690000000  0.4807750000000 1.0
C      1  0.5610400000000  0.4714090000000  0.4822320000000 1.0
C      1  0.4421280000000  0.4549070000000  0.4854500000000 1.0
C      1  0.4919410000000  0.4723980000000  0.5464890000000 1.0
C      1  0.4766170000000  0.5382920000000  0.5515650000000 1.0
C      1  0.5465920000000  0.4975120000000  0.5577090000000 1.0
C      1  0.5132870000000  0.4434980000000  0.5142900000000 1.0
C      1  0.4373870000000  0.5158000000000  0.5182320000000 1.0
C      1  0.5458460000000  0.5519570000000  0.5336190000000 1.0
C      1  0.5449710000000  0.4457930000000  0.4835660000000 1.0
C      1  0.4271890000000  0.4806470000000  0.4887120000000 1.0
C      1  0.5212950000000  0.5574980000000  0.4903890000000 1.0
C      1  0.5164730000000  0.5140900000000  0.4911310000000 1.0
C      1  0.5073260000000  0.4893550000000  0.4756490000000 1.0
C      1  0.4733390000000  0.4961120000000  0.4809420000000 1.0
C      1  0.5540690000000  0.5203700000000  0.4816020000000 1.0
C      1  0.4880090000000  0.4384130000000  0.4794300000000 1.0
C      1  0.4572730000000  0.5352550000000  0.4835880000000 1.0
C      1  0.4904410000000  0.5283590000000  0.5034910000000 1.0
C      1  0.5314550000000  0.5080930000000  0.5172270000000 1.0
C      1  0.4789390000000  0.4729040000000  0.5027820000000 1.0
C      1  0.5638710000000  0.5192280000000  0.5438320000000 1.0
C      1  0.4979920000000  0.4439380000000  0.5396560000000 1.0
C      1  0.4514800000000  0.5456600000000  0.5377500000000 1.0
C      1  0.4666970000000  0.5105010000000  0.5190260000000 1.0
C      1  0.5255840000000  0.5308820000000  0.5376180000000 1.0
C      1  0.5094020000000  0.4722540000000  0.5052650000000 1.0
C      1  0.5704100000000  0.5093570000000  0.5141820000000 1.0
C      1  0.4767530000000  0.4307270000000  0.5101230000000 1.0
C      1  0.4557060000000  0.5551850000000  0.5089950000000 1.0
C      1  0.5011320000000  0.5725740000000  0.5270120000000 1.0
C      1  0.5556880000000  0.4625240000000  0.5273040000000 1.0
C      1  0.4435570000000  0.4671360000000  0.5308900000000 1.0
C      1  0.4480920000000  0.4430790000000  0.5121950000000 1.0
C      1  0.4796260000000  0.5741950000000  0.5052910000000 1.0
C      1  0.5719370000000  0.4792150000000  0.5088280000000 1.0
END
