TITL C-9255-4564-149 -1.47215541263096e-06 125000 -367.834740115894 0 0 60 (C1) n - 1
REM
REM in /home/bkarasulu/CARBON/AIRSS/Generating-Clusters/EDIP-Nigel-Params/Higher-Symm/Box-15A/Only-C60/SD-CG/HFTN-CG
REM
REM
REM
REM
REM
REM ./C.cell (414f73aa93bd7a1190c7fd0f31ff2f98)
REM
REM compiler GCC version 9.2.1 20190827 (Red Hat 9.2.1-1)
REM options -cpp -mtune=generic -march=x86-64 -g -O0 -fpre-include=/usr/include/finclude/math-vector-fortran.h
REM seed 784674195 1482139881 -1777579799 -1992353516 1381500160 504206551 -1127577630 -477518683 -840502372 1941961738 1993531626 1399604273 -463497273 1590899152 -1688756872 -196409524 459145913 -1727825537 1249147855 1897178770 -1456410671 -1142582865 1566061059 1350206395 -1353191905 471383392 1849276630 1049524601 1884457503 -1737361890 241859382 -1971940 1844933457
REM
CELL 1.54180   50.00000   50.00000   50.00000   90.00000   90.00000   90.00000
LATT -1
SFAC C  
C      1  0.4937640000000  0.5493300000000  0.4680560000000 1.0
C      1  0.5051970000000  0.5319970000000  0.5499550000000 1.0
C      1  0.4945780000000  0.4502160000000  0.5329230000000 1.0
C      1  0.5057720000000  0.4689390000000  0.4504110000000 1.0
C      1  0.5608040000000  0.4798930000000  0.5223970000000 1.0
C      1  0.4397480000000  0.4777190000000  0.4799860000000 1.0
C      1  0.5609980000000  0.5191770000000  0.4773190000000 1.0
C      1  0.4393580000000  0.5229200000000  0.5194380000000 1.0
C      1  0.4315260000000  0.4667120000000  0.5068900000000 1.0
C      1  0.5694080000000  0.4924780000000  0.4660010000000 1.0
C      1  0.4306560000000  0.5339530000000  0.4926920000000 1.0
C      1  0.5685900000000  0.5068470000000  0.5337010000000 1.0
C      1  0.4552810000000  0.5251840000000  0.4531990000000 1.0
C      1  0.5431400000000  0.5453120000000  0.5249400000000 1.0
C      1  0.4567350000000  0.4758430000000  0.5456480000000 1.0
C      1  0.5442790000000  0.4536030000000  0.4742410000000 1.0
C      1  0.5506530000000  0.4607640000000  0.5426900000000 1.0
C      1  0.4499790000000  0.4573990000000  0.4609000000000 1.0
C      1  0.5500270000000  0.5381780000000  0.4573750000000 1.0
C      1  0.4494090000000  0.5427900000000  0.5391620000000 1.0
C      1  0.4699820000000  0.4419400000000  0.4728130000000 1.0
C      1  0.5297250000000  0.5263260000000  0.4422280000000 1.0
C      1  0.4689860000000  0.5593330000000  0.5280030000000 1.0
C      1  0.5309330000000  0.4722920000000  0.5589220000000 1.0
C      1  0.4803950000000  0.5111820000000  0.4463100000000 1.0
C      1  0.5183200000000  0.5551140000000  0.5122470000000 1.0
C      1  0.4816880000000  0.4886490000000  0.5547600000000 1.0
C      1  0.5192010000000  0.4467590000000  0.4881460000000 1.0
C      1  0.4938920000000  0.5114540000000  0.5189200000000 1.0
C      1  0.5064710000000  0.4809710000000  0.5125650000000 1.0
C      1  0.4944140000000  0.4889610000000  0.4817350000000 1.0
C      1  0.5069650000000  0.5194580000000  0.4890790000000 1.0
C      1  0.4630540000000  0.5499420000000  0.4668560000000 1.0
C      1  0.5357870000000  0.5321800000000  0.5498390000000 1.0
C      1  0.4639850000000  0.4508140000000  0.5327130000000 1.0
C      1  0.5366110000000  0.4673580000000  0.4495020000000 1.0
C      1  0.5360300000000  0.4847410000000  0.5039450000000 1.0
C      1  0.4644190000000  0.4964320000000  0.4849970000000 1.0
C      1  0.5363620000000  0.5131720000000  0.4955010000000 1.0
C      1  0.4642080000000  0.5049740000000  0.5133920000000 1.0
C      1  0.5544000000000  0.5125460000000  0.5575960000000 1.0
C      1  0.4454700000000  0.4428160000000  0.5130640000000 1.0
C      1  0.5555940000000  0.4867450000000  0.4419370000000 1.0
C      1  0.4444130000000  0.5578550000000  0.4864200000000 1.0
C      1  0.4831170000000  0.5163010000000  0.5643600000000 1.0
C      1  0.5170920000000  0.4377600000000  0.5159500000000 1.0
C      1  0.4829100000000  0.4838700000000  0.4358920000000 1.0
C      1  0.5165170000000  0.5624720000000  0.4839380000000 1.0
C      1  0.5660080000000  0.5294890000000  0.5139580000000 1.0
C      1  0.4340940000000  0.4865940000000  0.5294150000000 1.0
C      1  0.5666210000000  0.4698900000000  0.4857310000000 1.0
C      1  0.4332720000000  0.5140840000000  0.4701480000000 1.0
C      1  0.4971840000000  0.4469650000000  0.4688490000000 1.0
C      1  0.5024350000000  0.5303680000000  0.4467150000000 1.0
C      1  0.4961620000000  0.5536440000000  0.5313520000000 1.0
C      1  0.5034670000000  0.4689250000000  0.5547020000000 1.0
C      1  0.5413820000000  0.4377260000000  0.5299630000000 1.0
C      1  0.4589250000000  0.4693340000000  0.4372720000000 1.0
C      1  0.5409170000000  0.5612910000000  0.4701010000000 1.0
C      1  0.4586920000000  0.5300210000000  0.5622410000000 1.0
END
