TITL C-9265-7156-165 7.57471356160235e-06 125000 -359.43369354851 0 0 60 (C1) n - 1
REM
REM in /home/bkarasulu/CARBON/AIRSS/Generating-Clusters/EDIP-Nigel-Params/Higher-Symm/Box-15A/Only-C60/SD-CG/HFTN-CG
REM
REM
REM
REM
REM
REM ./C.cell (414f73aa93bd7a1190c7fd0f31ff2f98)
REM
REM compiler GCC version 9.2.1 20190827 (Red Hat 9.2.1-1)
REM options -cpp -mtune=generic -march=x86-64 -g -O0 -fpre-include=/usr/include/finclude/math-vector-fortran.h
REM seed 1460460167 317566631 -356191879 -1335211117 -436613747 -441492635 -907909948 -1030394530 -1066293140 1916476887 -171899430 70666517 1360625798 -1837829479 -1012335869 183392623 1339706403 -1417375140 -1712764793 821216929 502156546 226296876 783642694 1885091550 1679856662 919554793 -1235811786 -560666551 1211364317 -2062802917 1561542907 2089572467 317571662
REM
CELL 1.54180   50.00000   50.00000   50.00000   90.00000   90.00000   90.00000
LATT -1
SFAC C  
C      1  0.5401450000000  0.5548860000000  0.5139180000000 1.0
C      1  0.4916250000000  0.4449700000000  0.5357220000000 1.0
C      1  0.5142360000000  0.4442440000000  0.4638420000000 1.0
C      1  0.4947880000000  0.5463960000000  0.5047060000000 1.0
C      1  0.5592040000000  0.4905520000000  0.5594550000000 1.0
C      1  0.4399150000000  0.5293740000000  0.5258810000000 1.0
C      1  0.4955610000000  0.4659150000000  0.4295710000000 1.0
C      1  0.5406060000000  0.4711550000000  0.5525330000000 1.0
C      1  0.5167730000000  0.4450730000000  0.5183540000000 1.0
C      1  0.5152080000000  0.4957210000000  0.5175710000000 1.0
C      1  0.4651480000000  0.4429080000000  0.4689620000000 1.0
C      1  0.5686600000000  0.5315560000000  0.4787670000000 1.0
C      1  0.4967270000000  0.5039790000000  0.5718010000000 1.0
C      1  0.5668630000000  0.4799870000000  0.4815950000000 1.0
C      1  0.5583510000000  0.4640350000000  0.4609800000000 1.0
C      1  0.5167090000000  0.5389010000000  0.4451410000000 1.0
C      1  0.5149280000000  0.4331410000000  0.4912300000000 1.0
C      1  0.4519100000000  0.4840420000000  0.5526780000000 1.0
C      1  0.5263580000000  0.5100670000000  0.4925260000000 1.0
C      1  0.5329160000000  0.4705780000000  0.5233970000000 1.0
C      1  0.4762130000000  0.5738960000000  0.4718750000000 1.0
C      1  0.5503350000000  0.5298020000000  0.5015370000000 1.0
C      1  0.4960340000000  0.5323220000000  0.5769190000000 1.0
C      1  0.4334290000000  0.4826060000000  0.4797760000000 1.0
C      1  0.5361540000000  0.4551100000000  0.4472680000000 1.0
C      1  0.4857590000000  0.4801120000000  0.4887350000000 1.0
C      1  0.5184000000000  0.4720100000000  0.5701820000000 1.0
C      1  0.5015060000000  0.5241150000000  0.4862900000000 1.0
C      1  0.4315880000000  0.5532480000000  0.5337600000000 1.0
C      1  0.5313630000000  0.5122690000000  0.4416800000000 1.0
C      1  0.4820940000000  0.5517510000000  0.5629270000000 1.0
C      1  0.5561710000000  0.4730590000000  0.5064160000000 1.0
C      1  0.5063610000000  0.5590480000000  0.5517570000000 1.0
C      1  0.4425290000000  0.5067540000000  0.4654890000000 1.0
C      1  0.4910300000000  0.5294190000000  0.4582770000000 1.0
C      1  0.4813750000000  0.4512570000000  0.4930110000000 1.0
C      1  0.4541020000000  0.5025720000000  0.4402570000000 1.0
C      1  0.4931570000000  0.4609940000000  0.5615900000000 1.0
C      1  0.5012480000000  0.5682220000000  0.4833480000000 1.0
C      1  0.4678260000000  0.5489230000000  0.4615410000000 1.0
C      1  0.5512520000000  0.5137010000000  0.5456030000000 1.0
C      1  0.4630570000000  0.5273770000000  0.5069830000000 1.0
C      1  0.5220630000000  0.5163260000000  0.5383860000000 1.0
C      1  0.4503110000000  0.5318280000000  0.4791960000000 1.0
C      1  0.5219820000000  0.5607780000000  0.4641230000000 1.0
C      1  0.5283180000000  0.4940740000000  0.4651540000000 1.0
C      1  0.4667520000000  0.4499450000000  0.5196530000000 1.0
C      1  0.5659940000000  0.5176510000000  0.5223100000000 1.0
C      1  0.5159780000000  0.5447460000000  0.5276490000000 1.0
C      1  0.4818270000000  0.5049710000000  0.4450450000000 1.0
C      1  0.4211940000000  0.5097800000000  0.5189420000000 1.0
C      1  0.4559140000000  0.4782270000000  0.5247300000000 1.0
C      1  0.4757870000000  0.4838370000000  0.5668140000000 1.0
C      1  0.4304180000000  0.4847830000000  0.5095500000000 1.0
C      1  0.5761910000000  0.5054570000000  0.4748650000000 1.0
C      1  0.4887810000000  0.4442520000000  0.4489640000000 1.0
C      1  0.4413450000000  0.4581910000000  0.4674240000000 1.0
C      1  0.4773450000000  0.4975510000000  0.5121230000000 1.0
C      1  0.5245300000000  0.4762060000000  0.4292890000000 1.0
C      1  0.4976560000000  0.4853470000000  0.4619290000000 1.0
END
