TITL C-9257-5531-303 1.32321252316599e-06 125000 -365.349456055296 0 0 60 (C2) n - 1
REM
REM in /home/bkarasulu/CARBON/AIRSS/Generating-Clusters/EDIP-Nigel-Params/Higher-Symm/Box-15A/Only-C60/SD-CG/HFTN-CG
REM
REM
REM
REM
REM
REM ./C.cell (414f73aa93bd7a1190c7fd0f31ff2f98)
REM
REM compiler GCC version 9.2.1 20190827 (Red Hat 9.2.1-1)
REM options -cpp -mtune=generic -march=x86-64 -g -O0 -fpre-include=/usr/include/finclude/math-vector-fortran.h
REM seed -325090309 -1111502415 797600680 1844238555 1756545863 -1923721370 558664965 -39693035 1918791346 -2060534007 166851346 -1807880513 1765329199 412616671 609176210 -1709860394 763931234 -729422643 1119821461 271672529 -1736731285 -1944534473 -1405087042 -387902538 -1457564374 -716885821 -917178950 -41721499 -760177670 -1290572234 1975159413 1652900139 -337443635
REM
CELL 1.54180   50.00000   50.00000   50.00000   90.00000   90.00000   90.00000
LATT -1
SFAC C  
C      1  0.4852650000000  0.5730180000000  0.5455580000000 1.0
C      1  0.5204400000000  0.4371580000000  0.5388520000000 1.0
C      1  0.5210840000000  0.5622070000000  0.4604760000000 1.0
C      1  0.4815740000000  0.4274890000000  0.4549780000000 1.0
C      1  0.4455740000000  0.4601600000000  0.5091180000000 1.0
C      1  0.5657530000000  0.5284900000000  0.5047240000000 1.0
C      1  0.5646640000000  0.4695150000000  0.4931660000000 1.0
C      1  0.4465510000000  0.5414900000000  0.4926270000000 1.0
C      1  0.4676120000000  0.4730880000000  0.5636200000000 1.0
C      1  0.5318460000000  0.5249220000000  0.5671130000000 1.0
C      1  0.5288820000000  0.4741490000000  0.4319050000000 1.0
C      1  0.4664100000000  0.5279210000000  0.4374470000000 1.0
C      1  0.4339130000000  0.5257160000000  0.4731100000000 1.0
C      1  0.5617790000000  0.4660460000000  0.4659720000000 1.0
C      1  0.5638570000000  0.5320330000000  0.5319960000000 1.0
C      1  0.4340620000000  0.4763030000000  0.5290260000000 1.0
C      1  0.5076210000000  0.4181290000000  0.4974280000000 1.0
C      1  0.4824430000000  0.5748760000000  0.5013190000000 1.0
C      1  0.4801290000000  0.4256970000000  0.4992870000000 1.0
C      1  0.5102000000000  0.5815990000000  0.5022830000000 1.0
C      1  0.5510020000000  0.5237700000000  0.4827840000000 1.0
C      1  0.4472990000000  0.4715770000000  0.4837880000000 1.0
C      1  0.4487440000000  0.5300130000000  0.5178940000000 1.0
C      1  0.5507810000000  0.4746730000000  0.5155700000000 1.0
C      1  0.4688560000000  0.5795610000000  0.5252280000000 1.0
C      1  0.5284200000000  0.4299610000000  0.5129920000000 1.0
C      1  0.5301130000000  0.5691440000000  0.4860610000000 1.0
C      1  0.4656380000000  0.4214410000000  0.4758320000000 1.0
C      1  0.5480550000000  0.5128150000000  0.5469390000000 1.0
C      1  0.4514680000000  0.4903590000000  0.5463100000000 1.0
C      1  0.4503130000000  0.5111430000000  0.4552790000000 1.0
C      1  0.5460970000000  0.4857450000000  0.4515370000000 1.0
C      1  0.4732060000000  0.5605270000000  0.4549200000000 1.0
C      1  0.5319970000000  0.4441520000000  0.4566940000000 1.0
C      1  0.5350730000000  0.5548220000000  0.5422210000000 1.0
C      1  0.4728410000000  0.4402980000000  0.5459530000000 1.0
C      1  0.5041790000000  0.5314110000000  0.5619880000000 1.0
C      1  0.4971720000000  0.4729890000000  0.5625270000000 1.0
C      1  0.4959780000000  0.5271150000000  0.4375840000000 1.0
C      1  0.5012090000000  0.4685060000000  0.4379250000000 1.0
C      1  0.4638800000000  0.5147720000000  0.5357960000000 1.0
C      1  0.5356550000000  0.4895990000000  0.5336720000000 1.0
C      1  0.5348490000000  0.5093230000000  0.4651870000000 1.0
C      1  0.4623060000000  0.4863560000000  0.4653980000000 1.0
C      1  0.4920260000000  0.5274960000000  0.4866510000000 1.0
C      1  0.5055720000000  0.4719890000000  0.4882420000000 1.0
C      1  0.5068040000000  0.5278220000000  0.5115570000000 1.0
C      1  0.4916250000000  0.4727540000000  0.5136140000000 1.0
C      1  0.5001980000000  0.4435200000000  0.5573720000000 1.0
C      1  0.5073640000000  0.5606300000000  0.5572750000000 1.0
C      1  0.5036500000000  0.4392020000000  0.4425460000000 1.0
C      1  0.5000690000000  0.5564760000000  0.4426240000000 1.0
C      1  0.5046440000000  0.5127100000000  0.4626320000000 1.0
C      1  0.4925300000000  0.4839590000000  0.4630280000000 1.0
C      1  0.4942240000000  0.5162440000000  0.5371860000000 1.0
C      1  0.5054590000000  0.4871350000000  0.5372040000000 1.0
C      1  0.4723620000000  0.4489580000000  0.5171410000000 1.0
C      1  0.5285910000000  0.5485270000000  0.5118020000000 1.0
C      1  0.5266980000000  0.4506280000000  0.4873040000000 1.0
C      1  0.4733950000000  0.5518710000000  0.4837360000000 1.0
END
