TITL C-9262-5533-153 -1.06083474253603e-06 125000 -363.940671664575 0 0 60 (C1) n - 1
REM
REM in /home/bkarasulu/CARBON/AIRSS/Generating-Clusters/EDIP-Nigel-Params/Higher-Symm/Box-15A/Only-C60/SD-CG/HFTN-CG
REM
REM
REM
REM
REM
REM ./C.cell (414f73aa93bd7a1190c7fd0f31ff2f98)
REM
REM compiler GCC version 9.2.1 20190827 (Red Hat 9.2.1-1)
REM options -cpp -mtune=generic -march=x86-64 -g -O0 -fpre-include=/usr/include/finclude/math-vector-fortran.h
REM seed 1855742551 -1638416908 -1466565069 1523120075 -2126743796 1254525690 305087649 -1525711347 -1755798414 1118492139 1086380879 -662614980 1599804154 -807337314 1277276116 2126936652 711941963 -1723146798 1498844294 -279548490 1122362510 2058842980 491193861 347980357 1415935449 418158022 -1217369309 -97097897 1467542617 -762971378 -1276256924 -2127090442 -1545034922
REM
CELL 1.54180   50.00000   50.00000   50.00000   90.00000   90.00000   90.00000
LATT -1
SFAC C  
C      1  0.4397820000000  0.5458960000000  0.4714770000000 1.0
C      1  0.5584740000000  0.5495900000000  0.4786520000000 1.0
C      1  0.5691720000000  0.5409200000000  0.5034990000000 1.0
C      1  0.4293610000000  0.5416390000000  0.4979270000000 1.0
C      1  0.4856510000000  0.4983060000000  0.5784430000000 1.0
C      1  0.5146770000000  0.4953330000000  0.5770350000000 1.0
C      1  0.5262930000000  0.4546320000000  0.5553900000000 1.0
C      1  0.4749330000000  0.4500440000000  0.5616440000000 1.0
C      1  0.4877840000000  0.5677470000000  0.5098740000000 1.0
C      1  0.5166650000000  0.5672810000000  0.5109630000000 1.0
C      1  0.5314620000000  0.5081650000000  0.4846350000000 1.0
C      1  0.4696330000000  0.5111890000000  0.4875200000000 1.0
C      1  0.5696650000000  0.5049900000000  0.4565200000000 1.0
C      1  0.4331440000000  0.4981160000000  0.4594100000000 1.0
C      1  0.4448790000000  0.5073030000000  0.5527300000000 1.0
C      1  0.5562000000000  0.5044660000000  0.5515000000000 1.0
C      1  0.5340110000000  0.4521440000000  0.4573510000000 1.0
C      1  0.4675300000000  0.4527560000000  0.4600060000000 1.0
C      1  0.5116090000000  0.5645070000000  0.4725430000000 1.0
C      1  0.4833300000000  0.5631820000000  0.4816000000000 1.0
C      1  0.5287460000000  0.5075030000000  0.5546230000000 1.0
C      1  0.4716280000000  0.5120880000000  0.5576470000000 1.0
C      1  0.4682290000000  0.5386340000000  0.4718480000000 1.0
C      1  0.5311540000000  0.5396170000000  0.4808490000000 1.0
C      1  0.4883160000000  0.4864350000000  0.4320990000000 1.0
C      1  0.5167430000000  0.4891490000000  0.4308880000000 1.0
C      1  0.4442850000000  0.5051200000000  0.4359290000000 1.0
C      1  0.5560390000000  0.5152370000000  0.4355380000000 1.0
C      1  0.5151630000000  0.5296050000000  0.5421690000000 1.0
C      1  0.4865070000000  0.5236180000000  0.5347860000000 1.0
C      1  0.5180460000000  0.4484490000000  0.4799730000000 1.0
C      1  0.4685740000000  0.4472020000000  0.4873990000000 1.0
C      1  0.5163970000000  0.4660860000000  0.5790810000000 1.0
C      1  0.4879620000000  0.4605070000000  0.5833500000000 1.0
C      1  0.5125130000000  0.5361470000000  0.4465540000000 1.0
C      1  0.4823120000000  0.5332710000000  0.4450920000000 1.0
C      1  0.4861360000000  0.5013270000000  0.5109620000000 1.0
C      1  0.5151620000000  0.4941070000000  0.5041900000000 1.0
C      1  0.4737590000000  0.4460570000000  0.5341910000000 1.0
C      1  0.5261800000000  0.4484360000000  0.5280640000000 1.0
C      1  0.5283490000000  0.5155780000000  0.4318170000000 1.0
C      1  0.4715080000000  0.5098190000000  0.4312830000000 1.0
C      1  0.5328560000000  0.4668170000000  0.4349310000000 1.0
C      1  0.4759800000000  0.4619520000000  0.4362790000000 1.0
C      1  0.4243160000000  0.5130830000000  0.5042560000000 1.0
C      1  0.5755090000000  0.5120730000000  0.5044050000000 1.0
C      1  0.5121070000000  0.4642020000000  0.5056590000000 1.0
C      1  0.4806080000000  0.4644920000000  0.5105210000000 1.0
C      1  0.5725090000000  0.5016540000000  0.5303550000000 1.0
C      1  0.4282660000000  0.5075440000000  0.5316590000000 1.0
C      1  0.5155240000000  0.4212800000000  0.5205170000000 1.0
C      1  0.4843590000000  0.4200130000000  0.5245250000000 1.0
C      1  0.5581700000000  0.5506680000000  0.5276820000000 1.0
C      1  0.4452240000000  0.5500800000000  0.5194280000000 1.0
C      1  0.5304850000000  0.5469060000000  0.5246310000000 1.0
C      1  0.4723330000000  0.5493110000000  0.5266650000000 1.0
C      1  0.5109680000000  0.4211700000000  0.4892170000000 1.0
C      1  0.4802530000000  0.4202770000000  0.4939530000000 1.0
C      1  0.5599970000000  0.4984390000000  0.4822980000000 1.0
C      1  0.4425730000000  0.4978420000000  0.4859700000000 1.0
END
