TITL C-9255-4564-155 7.36207437574621e-07 125000 -352.169546594143 0 0 60 (C2) n - 1
REM
REM in /home/bkarasulu/CARBON/AIRSS/Generating-Clusters/EDIP-Nigel-Params/Higher-Symm/Box-15A/Only-C60/SD-CG/HFTN-CG
REM
REM
REM
REM
REM
REM ./C.cell (414f73aa93bd7a1190c7fd0f31ff2f98)
REM
REM compiler GCC version 9.2.1 20190827 (Red Hat 9.2.1-1)
REM options -cpp -mtune=generic -march=x86-64 -g -O0 -fpre-include=/usr/include/finclude/math-vector-fortran.h
REM seed -1104773207 108920082 1923212102 2051949723 -1305149412 -977204707 1588551297 -1291041101 -1885773399 -597756334 969583168 891496055 221926330 1467398755 1590287852 -2030580508 -1463851329 1905054631 -1204369263 -1572455922 -1155224867 619445793 1220575155 1535971191 -2004867509 -1008341418 519788905 -492480575 1453929437 1018640359 1895724085 78474858 -1462355869
REM
CELL 1.54180   50.00000   50.00000   50.00000   90.00000   90.00000   90.00000
LATT -1
SFAC C  
C      1  0.5163230000000  0.5304900000000  0.5032700000000 1.0
C      1  0.4836760000000  0.4695100000000  0.5032720000000 1.0
C      1  0.5137930000000  0.4692720000000  0.4974670000000 1.0
C      1  0.4862070000000  0.5307270000000  0.4974630000000 1.0
C      1  0.4655510000000  0.5488260000000  0.4659680000000 1.0
C      1  0.5344520000000  0.4511710000000  0.4659760000000 1.0
C      1  0.4639700000000  0.4517530000000  0.5333090000000 1.0
C      1  0.5360270000000  0.5482500000000  0.5333070000000 1.0
C      1  0.4364660000000  0.4949150000000  0.5368350000000 1.0
C      1  0.5635300000000  0.5050890000000  0.5368400000000 1.0
C      1  0.4362680000000  0.5040620000000  0.4628410000000 1.0
C      1  0.5637360000000  0.4959340000000  0.4628470000000 1.0
C      1  0.4469440000000  0.5197260000000  0.5501130000000 1.0
C      1  0.5530520000000  0.4802800000000  0.5501200000000 1.0
C      1  0.4470140000000  0.4794370000000  0.4493940000000 1.0
C      1  0.5529910000000  0.5205570000000  0.4493960000000 1.0
C      1  0.5550930000000  0.4581470000000  0.5325860000000 1.0
C      1  0.4449040000000  0.5418560000000  0.5325760000000 1.0
C      1  0.5562060000000  0.5433320000000  0.4663070000000 1.0
C      1  0.4437970000000  0.4566640000000  0.4663070000000 1.0
C      1  0.5320840000000  0.5084870000000  0.4897740000000 1.0
C      1  0.4679170000000  0.4915120000000  0.4897720000000 1.0
C      1  0.5303470000000  0.4894810000000  0.5128390000000 1.0
C      1  0.4696520000000  0.5105210000000  0.5128350000000 1.0
C      1  0.5011680000000  0.5628600000000  0.4778940000000 1.0
C      1  0.4988340000000  0.4371370000000  0.4779010000000 1.0
C      1  0.5014450000000  0.4376510000000  0.5220230000000 1.0
C      1  0.4985530000000  0.5623510000000  0.5220160000000 1.0
C      1  0.5263650000000  0.4311800000000  0.5042090000000 1.0
C      1  0.4736350000000  0.5688210000000  0.5041990000000 1.0
C      1  0.5262460000000  0.5689450000000  0.4958210000000 1.0
C      1  0.4737540000000  0.4310550000000  0.4958270000000 1.0
C      1  0.5167590000000  0.4691640000000  0.4535440000000 1.0
C      1  0.4832450000000  0.5308310000000  0.4535390000000 1.0
C      1  0.5177410000000  0.5312700000000  0.5470140000000 1.0
C      1  0.4822550000000  0.4687360000000  0.5470160000000 1.0
C      1  0.4915140000000  0.5419020000000  0.5530100000000 1.0
C      1  0.5084810000000  0.4581040000000  0.5530160000000 1.0
C      1  0.4911180000000  0.4582360000000  0.4470270000000 1.0
C      1  0.5088870000000  0.5417580000000  0.4470230000000 1.0
C      1  0.4753350000000  0.4823400000000  0.4432290000000 1.0
C      1  0.5246700000000  0.5176540000000  0.4432300000000 1.0
C      1  0.4751850000000  0.5176580000000  0.5576010000000 1.0
C      1  0.5248100000000  0.4823490000000  0.5576060000000 1.0
C      1  0.4452800000000  0.5362110000000  0.4818390000000 1.0
C      1  0.5547210000000  0.4637870000000  0.4818480000000 1.0
C      1  0.4427520000000  0.4624050000000  0.5170880000000 1.0
C      1  0.5572470000000  0.5375970000000  0.5170890000000 1.0
C      1  0.4318690000000  0.5063850000000  0.5109680000000 1.0
C      1  0.5681300000000  0.4936160000000  0.5109750000000 1.0
C      1  0.4292790000000  0.4917670000000  0.4876660000000 1.0
C      1  0.5707230000000  0.5082320000000  0.4876710000000 1.0
C      1  0.5149750000000  0.5024320000000  0.5378130000000 1.0
C      1  0.4850220000000  0.4975730000000  0.5378120000000 1.0
C      1  0.5152770000000  0.4976690000000  0.4634270000000 1.0
C      1  0.4847260000000  0.5023270000000  0.4634250000000 1.0
C      1  0.4480010000000  0.4462820000000  0.4923970000000 1.0
C      1  0.5520000000000  0.5537170000000  0.4923950000000 1.0
C      1  0.4489210000000  0.5522640000000  0.5067090000000 1.0
C      1  0.5510790000000  0.4477370000000  0.5067190000000 1.0
END
