TITL C-9262-5533-149 2.58471130075955e-06 125000 -361.08626926747 0 0 60 (C1) n - 1
REM
REM in /home/bkarasulu/CARBON/AIRSS/Generating-Clusters/EDIP-Nigel-Params/Higher-Symm/Box-15A/Only-C60/SD-CG/HFTN-CG
REM
REM
REM
REM
REM
REM ./C.cell (414f73aa93bd7a1190c7fd0f31ff2f98)
REM
REM compiler GCC version 9.2.1 20190827 (Red Hat 9.2.1-1)
REM options -cpp -mtune=generic -march=x86-64 -g -O0 -fpre-include=/usr/include/finclude/math-vector-fortran.h
REM seed 823580019 1344099776 -455572921 -207209023 -655262074 562533797 2130783331 1168184972 -1089838280 1756495718 807601243 54802500 2014880902 936464066 1737664623 1244464372 211112833 1977735458 -1997606960 1632002289 -1816996511 159378119 994076707 -935856824 741422733 817392237 -19822926 1167028518 48558100 -1532463089 1405975168 596559977 -448517605
REM
CELL 1.54180   50.00000   50.00000   50.00000   90.00000   90.00000   90.00000
LATT -1
SFAC C  
C      1  0.5263790000000  0.5128720000000  0.5476730000000 1.0
C      1  0.5230160000000  0.4844300000000  0.4496230000000 1.0
C      1  0.4759970000000  0.5156490000000  0.5515560000000 1.0
C      1  0.4787030000000  0.4867620000000  0.4520680000000 1.0
C      1  0.5221550000000  0.5130810000000  0.4522720000000 1.0
C      1  0.5262310000000  0.4844190000000  0.5498900000000 1.0
C      1  0.4778150000000  0.5153830000000  0.4497020000000 1.0
C      1  0.4760360000000  0.4871340000000  0.5488480000000 1.0
C      1  0.5794650000000  0.4699640000000  0.5123160000000 1.0
C      1  0.5720300000000  0.5153440000000  0.4898460000000 1.0
C      1  0.4236940000000  0.4825520000000  0.5121870000000 1.0
C      1  0.4236110000000  0.5178330000000  0.4861370000000 1.0
C      1  0.5724190000000  0.4847980000000  0.4897320000000 1.0
C      1  0.5792510000000  0.5302250000000  0.5123850000000 1.0
C      1  0.4227870000000  0.4797040000000  0.4840290000000 1.0
C      1  0.4217080000000  0.5206430000000  0.5142820000000 1.0
C      1  0.5594100000000  0.4602180000000  0.5291270000000 1.0
C      1  0.5571230000000  0.5330710000000  0.4713620000000 1.0
C      1  0.4416000000000  0.4664890000000  0.5281370000000 1.0
C      1  0.4416420000000  0.5343490000000  0.4707300000000 1.0
C      1  0.5581990000000  0.4668550000000  0.4708400000000 1.0
C      1  0.5584430000000  0.5381430000000  0.5292250000000 1.0
C      1  0.4427570000000  0.4646020000000  0.4696470000000 1.0
C      1  0.4406460000000  0.5361500000000  0.5296850000000 1.0
C      1  0.5144470000000  0.5202850000000  0.5205000000000 1.0
C      1  0.5149150000000  0.4760060000000  0.4759110000000 1.0
C      1  0.4853130000000  0.5239990000000  0.5256140000000 1.0
C      1  0.4862920000000  0.4800240000000  0.4814030000000 1.0
C      1  0.5140110000000  0.5196940000000  0.4814850000000 1.0
C      1  0.5157790000000  0.4762490000000  0.5244870000000 1.0
C      1  0.4853720000000  0.5235760000000  0.4761770000000 1.0
C      1  0.4865200000000  0.4803510000000  0.5204970000000 1.0
C      1  0.4506380000000  0.4806840000000  0.4469740000000 1.0
C      1  0.4472810000000  0.5202890000000  0.5532820000000 1.0
C      1  0.5517140000000  0.4808180000000  0.4462310000000 1.0
C      1  0.5547200000000  0.5180550000000  0.5494390000000 1.0
C      1  0.4476510000000  0.4818060000000  0.5517930000000 1.0
C      1  0.4490880000000  0.5191150000000  0.4469400000000 1.0
C      1  0.5548050000000  0.4793360000000  0.5505280000000 1.0
C      1  0.5502890000000  0.5191100000000  0.4471810000000 1.0
C      1  0.5171820000000  0.5700940000000  0.5258360000000 1.0
C      1  0.5200500000000  0.4289550000000  0.4728800000000 1.0
C      1  0.4794570000000  0.5708750000000  0.5260890000000 1.0
C      1  0.4823920000000  0.4307310000000  0.4744850000000 1.0
C      1  0.5175320000000  0.5690930000000  0.4736080000000 1.0
C      1  0.5180260000000  0.4287910000000  0.5257470000000 1.0
C      1  0.4798040000000  0.5702460000000  0.4739480000000 1.0
C      1  0.4803880000000  0.4311540000000  0.5264700000000 1.0
C      1  0.5313870000000  0.5447980000000  0.4850500000000 1.0
C      1  0.5322040000000  0.4532540000000  0.5156990000000 1.0
C      1  0.4673600000000  0.5451380000000  0.4847340000000 1.0
C      1  0.4678670000000  0.4561390000000  0.5153250000000 1.0
C      1  0.5315540000000  0.5455710000000  0.5158480000000 1.0
C      1  0.5323760000000  0.4537970000000  0.4843300000000 1.0
C      1  0.4672180000000  0.5454210000000  0.5160530000000 1.0
C      1  0.4683490000000  0.4554280000000  0.4846220000000 1.0
C      1  0.4995400000000  0.4297460000000  0.5465010000000 1.0
C      1  0.4985470000000  0.5700260000000  0.4533790000000 1.0
C      1  0.5002810000000  0.4293860000000  0.4533110000000 1.0
C      1  0.4985300000000  0.5712910000000  0.5463460000000 1.0
END
