TITL C-9268-6400-311 4.17839088755479e-06 125000 -369.804076088201 0 0 60 (C1) n - 1
REM
REM in /home/bkarasulu/CARBON/AIRSS/Generating-Clusters/EDIP-Nigel-Params/Higher-Symm/Box-15A/Only-C60/SD-CG/HFTN-CG
REM
REM
REM
REM
REM
REM ./C.cell (414f73aa93bd7a1190c7fd0f31ff2f98)
REM
REM compiler GCC version 9.2.1 20190827 (Red Hat 9.2.1-1)
REM options -cpp -mtune=generic -march=x86-64 -g -O0 -fpre-include=/usr/include/finclude/math-vector-fortran.h
REM seed -1241194605 -1053143266 908153653 148661243 -1061649354 652032325 1175085843 1031139259 633889505 798614455 -795144681 163244659 1974962303 -1928174814 2120328017 51411844 -695916024 2049280512 1126711104 1917787917 -1901402758 -660017556 -779158221 131986513 -1212528946 -1098985160 -620634450 -1763336297 -1765725670 -771256464 -1423704389 -1032006352 -1546185100
REM
CELL 1.54180   50.00000   50.00000   50.00000   90.00000   90.00000   90.00000
LATT -1
SFAC C  
C      1  0.4533240000000  0.5309940000000  0.5593110000000 1.0
C      1  0.4807960000000  0.4475830000000  0.4885250000000 1.0
C      1  0.4944240000000  0.5404170000000  0.4403920000000 1.0
C      1  0.4321430000000  0.4948740000000  0.5316830000000 1.0
C      1  0.5210390000000  0.5563490000000  0.5303360000000 1.0
C      1  0.5373450000000  0.5438420000000  0.4729500000000 1.0
C      1  0.5378190000000  0.4633760000000  0.4982040000000 1.0
C      1  0.5523290000000  0.5067880000000  0.4440390000000 1.0
C      1  0.5059410000000  0.5455230000000  0.4692970000000 1.0
C      1  0.4463140000000  0.5016320000000  0.5576280000000 1.0
C      1  0.4941910000000  0.5215970000000  0.5122730000000 1.0
C      1  0.5638570000000  0.4843160000000  0.5337780000000 1.0
C      1  0.4944400000000  0.5050750000000  0.5599180000000 1.0
C      1  0.4873530000000  0.4692040000000  0.5069830000000 1.0
C      1  0.5051690000000  0.4414630000000  0.5486670000000 1.0
C      1  0.5138100000000  0.5875060000000  0.4931470000000 1.0
C      1  0.5324600000000  0.5751100000000  0.5103650000000 1.0
C      1  0.5359350000000  0.4868800000000  0.4346480000000 1.0
C      1  0.5493640000000  0.5019390000000  0.5535460000000 1.0
C      1  0.4959730000000  0.5123290000000  0.4296980000000 1.0
C      1  0.5084260000000  0.4975150000000  0.4739480000000 1.0
C      1  0.4938440000000  0.5708770000000  0.4830090000000 1.0
C      1  0.5392290000000  0.5330640000000  0.5240580000000 1.0
C      1  0.4696710000000  0.4656410000000  0.5331130000000 1.0
C      1  0.5737750000000  0.4983000000000  0.5111820000000 1.0
C      1  0.5224470000000  0.4635540000000  0.5446420000000 1.0
C      1  0.4408860000000  0.4772840000000  0.4766480000000 1.0
C      1  0.5479410000000  0.4628470000000  0.4277090000000 1.0
C      1  0.4359860000000  0.5474010000000  0.5440840000000 1.0
C      1  0.4655990000000  0.5323300000000  0.4424010000000 1.0
C      1  0.5084880000000  0.4404140000000  0.4445250000000 1.0
C      1  0.4498730000000  0.5607320000000  0.5017520000000 1.0
C      1  0.4778390000000  0.4388960000000  0.5435640000000 1.0
C      1  0.5492080000000  0.5567740000000  0.4956560000000 1.0
C      1  0.4708890000000  0.4585530000000  0.4633240000000 1.0
C      1  0.4652780000000  0.5197120000000  0.4685090000000 1.0
C      1  0.4397170000000  0.4670130000000  0.5250490000000 1.0
C      1  0.5545780000000  0.5208940000000  0.4676710000000 1.0
C      1  0.4688660000000  0.4179550000000  0.5272800000000 1.0
C      1  0.4401380000000  0.5140040000000  0.5103500000000 1.0
C      1  0.4917560000000  0.4629080000000  0.4431110000000 1.0
C      1  0.4718210000000  0.4861620000000  0.5565390000000 1.0
C      1  0.5367450000000  0.4406130000000  0.4819850000000 1.0
C      1  0.4662230000000  0.4276500000000  0.5020580000000 1.0
C      1  0.4924020000000  0.5470280000000  0.5265810000000 1.0
C      1  0.5715110000000  0.5121810000000  0.4881310000000 1.0
C      1  0.4828320000000  0.5329730000000  0.5539190000000 1.0
C      1  0.5562400000000  0.5285250000000  0.5471940000000 1.0
C      1  0.4925410000000  0.5211150000000  0.4822450000000 1.0
C      1  0.4425910000000  0.5059790000000  0.4819420000000 1.0
C      1  0.5140460000000  0.4823910000000  0.4991030000000 1.0
C      1  0.5326950000000  0.4322920000000  0.4557640000000 1.0
C      1  0.4360480000000  0.5420200000000  0.5167470000000 1.0
C      1  0.5076910000000  0.4893620000000  0.4449560000000 1.0
C      1  0.5462260000000  0.4607710000000  0.5266920000000 1.0
C      1  0.4769440000000  0.5657560000000  0.5069240000000 1.0
C      1  0.5191430000000  0.5067720000000  0.5189910000000 1.0
C      1  0.5201930000000  0.4943040000000  0.5468470000000 1.0
C      1  0.5535860000000  0.4383800000000  0.4380410000000 1.0
C      1  0.4320650000000  0.4622610000000  0.4983710000000 1.0
END
