TITL C-9261-551-49 -3.49118750305866e-05 125000 -365.523173311674 0 0 60 (C1) n - 1
REM
REM in /home/bkarasulu/CARBON/AIRSS/Generating-Clusters/EDIP-Nigel-Params/Higher-Symm/Box-15A/Only-C60/SD-CG/HFTN-CG
REM
REM
REM
REM
REM
REM ./C.cell (414f73aa93bd7a1190c7fd0f31ff2f98)
REM
REM compiler GCC version 9.2.1 20190827 (Red Hat 9.2.1-1)
REM options -cpp -mtune=generic -march=x86-64 -g -O0 -fpre-include=/usr/include/finclude/math-vector-fortran.h
REM seed -1289843021 -923126863 1750055548 -178927627 -577958722 302844131 -47637385 1344050902 -15090055 410850924 -1724267289 1588809083 -953664179 -571737628 620580438 -730955479 -990983991 -1434406187 283249510 -171436820 1914876439 275661202 -1037006863 -1761668635 -979929894 -1228204680 1245514498 1385762135 630427004 -1931344467 2143629827 -1932410499 2134303074
REM
CELL 1.54180   50.00000   50.00000   50.00000   90.00000   90.00000   90.00000
LATT -1
SFAC C  
C      1  0.5201380000000  0.4653320000000  0.4397090000000 1.0
C      1  0.5653780000000  0.4622290000000  0.4999690000000 1.0
C      1  0.5221220000000  0.4576440000000  0.5617430000000 1.0
C      1  0.4490040000000  0.4585160000000  0.5398520000000 1.0
C      1  0.4474980000000  0.4646710000000  0.4637400000000 1.0
C      1  0.4637990000000  0.5523440000000  0.4401960000000 1.0
C      1  0.5382160000000  0.5382600000000  0.4533550000000 1.0
C      1  0.5562620000000  0.5521470000000  0.5262980000000 1.0
C      1  0.4948380000000  0.5432980000000  0.5547620000000 1.0
C      1  0.4500190000000  0.5638830000000  0.5106110000000 1.0
C      1  0.5177050000000  0.4849980000000  0.5680280000000 1.0
C      1  0.4436870000000  0.4863720000000  0.5390910000000 1.0
C      1  0.4489350000000  0.4929530000000  0.4607220000000 1.0
C      1  0.5259180000000  0.4930580000000  0.4409320000000 1.0
C      1  0.5672350000000  0.4902760000000  0.5053070000000 1.0
C      1  0.4595960000000  0.4957960000000  0.5179940000000 1.0
C      1  0.4743260000000  0.5020990000000  0.4689240000000 1.0
C      1  0.5250660000000  0.4987790000000  0.4684560000000 1.0
C      1  0.5420970000000  0.4993180000000  0.5154820000000 1.0
C      1  0.5013280000000  0.4943710000000  0.5473080000000 1.0
C      1  0.5165240000000  0.4313530000000  0.4795700000000 1.0
C      1  0.5247390000000  0.4291880000000  0.5079520000000 1.0
C      1  0.4994380000000  0.4287540000000  0.5236110000000 1.0
C      1  0.4765350000000  0.4301130000000  0.5051620000000 1.0
C      1  0.4871550000000  0.4327340000000  0.4781010000000 1.0
C      1  0.4806730000000  0.5570430000000  0.4774820000000 1.0
C      1  0.5085260000000  0.5670090000000  0.4722330000000 1.0
C      1  0.5255680000000  0.5633050000000  0.4967260000000 1.0
C      1  0.5036380000000  0.5638140000000  0.5163920000000 1.0
C      1  0.4775450000000  0.5714770000000  0.5036680000000 1.0
C      1  0.4700620000000  0.4504190000000  0.5567410000000 1.0
C      1  0.4375780000000  0.4555280000000  0.4884760000000 1.0
C      1  0.4929240000000  0.4587090000000  0.4367310000000 1.0
C      1  0.5599160000000  0.4552500000000  0.4733050000000 1.0
C      1  0.5450790000000  0.4519970000000  0.5462560000000 1.0
C      1  0.4739480000000  0.4495330000000  0.4566360000000 1.0
C      1  0.5339910000000  0.4485690000000  0.4618680000000 1.0
C      1  0.5420360000000  0.4521140000000  0.5173020000000 1.0
C      1  0.4972670000000  0.4423240000000  0.5506910000000 1.0
C      1  0.4509560000000  0.4448330000000  0.5119450000000 1.0
C      1  0.5146410000000  0.5533090000000  0.4484120000000 1.0
C      1  0.5634830000000  0.5479570000000  0.5000950000000 1.0
C      1  0.5112420000000  0.5648650000000  0.5442090000000 1.0
C      1  0.4563170000000  0.5420010000000  0.5292860000000 1.0
C      1  0.4439300000000  0.5564200000000  0.4592220000000 1.0
C      1  0.5242600000000  0.4757950000000  0.5111130000000 1.0
C      1  0.4996290000000  0.4729920000000  0.5275610000000 1.0
C      1  0.4760410000000  0.4739410000000  0.5090730000000 1.0
C      1  0.4857340000000  0.4769490000000  0.4808710000000 1.0
C      1  0.5156470000000  0.4754300000000  0.4822650000000 1.0
C      1  0.4904380000000  0.5474870000000  0.4351670000000 1.0
C      1  0.5557500000000  0.5451440000000  0.4738620000000 1.0
C      1  0.5386800000000  0.5602980000000  0.5453340000000 1.0
C      1  0.4672840000000  0.5496090000000  0.5542990000000 1.0
C      1  0.4373770000000  0.5574860000000  0.4859730000000 1.0
C      1  0.5269510000000  0.5260270000000  0.5124830000000 1.0
C      1  0.5006310000000  0.5214550000000  0.5337750000000 1.0
C      1  0.4746640000000  0.5217010000000  0.5161870000000 1.0
C      1  0.4842130000000  0.5262590000000  0.4852770000000 1.0
C      1  0.5158250000000  0.5244670000000  0.4822090000000 1.0
END
