TITL C-9257-5531-258 -3.92113131354945e-06 125000 -362.252524063621 0 0 60 (C1) n - 1
REM
REM in /home/bkarasulu/CARBON/AIRSS/Generating-Clusters/EDIP-Nigel-Params/Higher-Symm/Box-15A/Only-C60/SD-CG/HFTN-CG
REM
REM
REM
REM
REM
REM ./C.cell (414f73aa93bd7a1190c7fd0f31ff2f98)
REM
REM compiler GCC version 9.2.1 20190827 (Red Hat 9.2.1-1)
REM options -cpp -mtune=generic -march=x86-64 -g -O0 -fpre-include=/usr/include/finclude/math-vector-fortran.h
REM seed -510354500 1396072582 1833222577 1519780719 -1365664427 -1482615424 226200624 295559031 1571656196 1568528048 -554076453 -2042242994 -699491538 -510825738 2139133810 -846280524 -1864724120 -10724968 1564345046 -1559753927 -1295445114 191529214 -2050419096 -85521272 1226130581 -708115066 -1500510725 -981670923 -398397804 -1068513205 -434875190 1708869030 -646026981
REM
CELL 1.54180   50.00000   50.00000   50.00000   90.00000   90.00000   90.00000
LATT -1
SFAC C  
C      1  0.5317950000000  0.5021050000000  0.4960720000000 1.0
C      1  0.4994160000000  0.5565080000000  0.4586310000000 1.0
C      1  0.5631230000000  0.4672160000000  0.4841970000000 1.0
C      1  0.4860170000000  0.5318450000000  0.4496690000000 1.0
C      1  0.4467800000000  0.5354050000000  0.4795100000000 1.0
C      1  0.4312460000000  0.5209400000000  0.5014260000000 1.0
C      1  0.5557870000000  0.5021610000000  0.4530250000000 1.0
C      1  0.4619820000000  0.4524660000000  0.4470480000000 1.0
C      1  0.4524190000000  0.5606520000000  0.5207880000000 1.0
C      1  0.4815570000000  0.4899820000000  0.4195280000000 1.0
C      1  0.5536790000000  0.4776980000000  0.4385430000000 1.0
C      1  0.5382420000000  0.5518720000000  0.4890830000000 1.0
C      1  0.4864760000000  0.5215540000000  0.5017630000000 1.0
C      1  0.5205600000000  0.4498570000000  0.4612130000000 1.0
C      1  0.5274320000000  0.5456620000000  0.4631550000000 1.0
C      1  0.4832390000000  0.4498660000000  0.4698630000000 1.0
C      1  0.4493720000000  0.4748350000000  0.4832610000000 1.0
C      1  0.4714060000000  0.5199810000000  0.4735690000000 1.0
C      1  0.5419940000000  0.4544390000000  0.5516260000000 1.0
C      1  0.4356100000000  0.4474140000000  0.4588860000000 1.0
C      1  0.4649890000000  0.4923950000000  0.4661280000000 1.0
C      1  0.5290730000000  0.4666850000000  0.5751030000000 1.0
C      1  0.4768880000000  0.5631950000000  0.5408080000000 1.0
C      1  0.5425150000000  0.5289380000000  0.5061800000000 1.0
C      1  0.5187570000000  0.5380710000000  0.5476740000000 1.0
C      1  0.5045840000000  0.4981900000000  0.5080520000000 1.0
C      1  0.5302220000000  0.5174070000000  0.4551920000000 1.0
C      1  0.4611850000000  0.4525780000000  0.5184370000000 1.0
C      1  0.5070000000000  0.5135600000000  0.4370450000000 1.0
C      1  0.4894970000000  0.4802640000000  0.5496700000000 1.0
C      1  0.5105910000000  0.4562450000000  0.4362330000000 1.0
C      1  0.5345290000000  0.4974770000000  0.5517860000000 1.0
C      1  0.5043210000000  0.5578180000000  0.5300420000000 1.0
C      1  0.4219020000000  0.4682010000000  0.4731490000000 1.0
C      1  0.4466040000000  0.4756520000000  0.5271790000000 1.0
C      1  0.5243850000000  0.4409060000000  0.5342790000000 1.0
C      1  0.4619440000000  0.4818930000000  0.4390220000000 1.0
C      1  0.4664280000000  0.5203250000000  0.5348780000000 1.0
C      1  0.5532490000000  0.5211290000000  0.5484010000000 1.0
C      1  0.5070200000000  0.5019760000000  0.5381710000000 1.0
C      1  0.5224760000000  0.4536800000000  0.5094160000000 1.0
C      1  0.4715500000000  0.4393690000000  0.4956630000000 1.0
C      1  0.4406540000000  0.5332740000000  0.5263710000000 1.0
C      1  0.5072320000000  0.4789960000000  0.4209880000000 1.0
C      1  0.4874440000000  0.5670300000000  0.4847650000000 1.0
C      1  0.4628760000000  0.4922070000000  0.5450300000000 1.0
C      1  0.4309480000000  0.4894730000000  0.5040350000000 1.0
C      1  0.5485410000000  0.4588030000000  0.4594040000000 1.0
C      1  0.4754940000000  0.5386570000000  0.5582850000000 1.0
C      1  0.5562550000000  0.4775070000000  0.5335330000000 1.0
C      1  0.5030170000000  0.5480700000000  0.5021240000000 1.0
C      1  0.5438910000000  0.4742340000000  0.5058740000000 1.0
C      1  0.5025710000000  0.4792450000000  0.5764030000000 1.0
C      1  0.5034180000000  0.5066020000000  0.5829560000000 1.0
C      1  0.4971450000000  0.4672800000000  0.5024090000000 1.0
C      1  0.5718600000000  0.4955580000000  0.4782200000000 1.0
C      1  0.5015450000000  0.5318870000000  0.5707350000000 1.0
C      1  0.5726470000000  0.5050880000000  0.5315840000000 1.0
C      1  0.4574520000000  0.5621610000000  0.4903130000000 1.0
C      1  0.5691720000000  0.5155140000000  0.5036050000000 1.0
END
