TITL C-9268-6400-347 -1.29438467577338e-06 125000 -359.645913744267 0 0 60 (C1) n - 1
REM
REM in /home/bkarasulu/CARBON/AIRSS/Generating-Clusters/EDIP-Nigel-Params/Higher-Symm/Box-15A/Only-C60/SD-CG/HFTN-CG
REM
REM
REM
REM
REM
REM ./C.cell (414f73aa93bd7a1190c7fd0f31ff2f98)
REM
REM compiler GCC version 9.2.1 20190827 (Red Hat 9.2.1-1)
REM options -cpp -mtune=generic -march=x86-64 -g -O0 -fpre-include=/usr/include/finclude/math-vector-fortran.h
REM seed -944867961 456308112 -1609607168 -769139815 -2125864000 -113797334 706418528 -993181219 -1535533238 160212107 2115133144 645557447 22795576 226427714 -1426941742 1433527694 1733119375 -1764925349 753807700 1396811114 1617704406 618623014 -2021378928 -2134692974 2059319096 -1997992353 573400464 -1870682632 -1425129160 -1975328532 860810043 273395905 -465729018
REM
CELL 1.54180   50.00000   50.00000   50.00000   90.00000   90.00000   90.00000
LATT -1
SFAC C  
C      1  0.5528520000000  0.4669720000000  0.5575560000000 1.0
C      1  0.5192270000000  0.4698870000000  0.4288430000000 1.0
C      1  0.4273670000000  0.4667660000000  0.5161300000000 1.0
C      1  0.4431850000000  0.5085450000000  0.4582060000000 1.0
C      1  0.4938040000000  0.5082770000000  0.5689420000000 1.0
C      1  0.5659930000000  0.5058560000000  0.4721670000000 1.0
C      1  0.5077400000000  0.4456470000000  0.4424670000000 1.0
C      1  0.4478070000000  0.4468830000000  0.5223570000000 1.0
C      1  0.5478140000000  0.4459770000000  0.5376480000000 1.0
C      1  0.4253200000000  0.5111020000000  0.4926580000000 1.0
C      1  0.5325610000000  0.5113370000000  0.5688290000000 1.0
C      1  0.5422120000000  0.5125110000000  0.4418690000000 1.0
C      1  0.4290350000000  0.4827310000000  0.4916330000000 1.0
C      1  0.5304020000000  0.4827000000000  0.5683670000000 1.0
C      1  0.5351790000000  0.4857430000000  0.4476840000000 1.0
C      1  0.4963180000000  0.5027070000000  0.4710490000000 1.0
C      1  0.4785130000000  0.5017720000000  0.5144980000000 1.0
C      1  0.5251910000000  0.4993710000000  0.5106550000000 1.0
C      1  0.5529320000000  0.5477790000000  0.4901720000000 1.0
C      1  0.4689710000000  0.5507360000000  0.4588710000000 1.0
C      1  0.4824460000000  0.5494720000000  0.5477760000000 1.0
C      1  0.4595620000000  0.4596840000000  0.5466080000000 1.0
C      1  0.5624700000000  0.4581480000000  0.5136540000000 1.0
C      1  0.4783060000000  0.4561520000000  0.4375060000000 1.0
C      1  0.4928250000000  0.4729560000000  0.4760270000000 1.0
C      1  0.4863430000000  0.4710450000000  0.5054560000000 1.0
C      1  0.5145190000000  0.4680050000000  0.5144270000000 1.0
C      1  0.4433670000000  0.4801300000000  0.4662050000000 1.0
C      1  0.5010170000000  0.4799130000000  0.5672060000000 1.0
C      1  0.5563450000000  0.4781660000000  0.4664400000000 1.0
C      1  0.4922350000000  0.5095810000000  0.4419840000000 1.0
C      1  0.4562880000000  0.5092620000000  0.5339210000000 1.0
C      1  0.5524920000000  0.5077670000000  0.5211530000000 1.0
C      1  0.5460500000000  0.5690500000000  0.5295010000000 1.0
C      1  0.4929630000000  0.5630980000000  0.4509670000000 1.0
C      1  0.4484180000000  0.5710370000000  0.5229600000000 1.0
C      1  0.4915360000000  0.4829010000000  0.4252620000000 1.0
C      1  0.4441420000000  0.4846990000000  0.5453590000000 1.0
C      1  0.5687810000000  0.4836360000000  0.5272610000000 1.0
C      1  0.4678480000000  0.4468410000000  0.5018790000000 1.0
C      1  0.5193450000000  0.4455630000000  0.5319460000000 1.0
C      1  0.5151970000000  0.4532820000000  0.4700190000000 1.0
C      1  0.5038190000000  0.5131730000000  0.5261700000000 1.0
C      1  0.5231350000000  0.5110740000000  0.4818690000000 1.0
C      1  0.4747020000000  0.5150130000000  0.4882610000000 1.0
C      1  0.4887910000000  0.4603840000000  0.5496810000000 1.0
C      1  0.5482000000000  0.4596670000000  0.4874770000000 1.0
C      1  0.4662160000000  0.4604370000000  0.4658390000000 1.0
C      1  0.4692670000000  0.5438850000000  0.4878200000000 1.0
C      1  0.5053050000000  0.5420150000000  0.5324730000000 1.0
C      1  0.5273770000000  0.5406610000000  0.4797500000000 1.0
C      1  0.5183640000000  0.5510800000000  0.4528040000000 1.0
C      1  0.4461530000000  0.5512250000000  0.5051640000000 1.0
C      1  0.5322140000000  0.5500780000000  0.5423140000000 1.0
C      1  0.5471510000000  0.5248360000000  0.5471870000000 1.0
C      1  0.5177090000000  0.5269370000000  0.4358300000000 1.0
C      1  0.4355200000000  0.5256300000000  0.5161330000000 1.0
C      1  0.5640220000000  0.5221810000000  0.4964860000000 1.0
C      1  0.4647780000000  0.5241080000000  0.4447950000000 1.0
C      1  0.4723540000000  0.5239330000000  0.5558260000000 1.0
END
