TITL C-9268-6400-270 -1.92696927831556e-07 125000 -363.258816211654 0 0 60 (C1) n - 1
REM
REM in /home/bkarasulu/CARBON/AIRSS/Generating-Clusters/EDIP-Nigel-Params/Higher-Symm/Box-15A/Only-C60/SD-CG/HFTN-CG
REM
REM
REM
REM
REM
REM ./C.cell (414f73aa93bd7a1190c7fd0f31ff2f98)
REM
REM compiler GCC version 9.2.1 20190827 (Red Hat 9.2.1-1)
REM options -cpp -mtune=generic -march=x86-64 -g -O0 -fpre-include=/usr/include/finclude/math-vector-fortran.h
REM seed 1813056472 -2086204070 -1095014026 664740282 2002658741 -1603313425 -1086790507 905475572 -2041045298 702090911 1480411402 748967234 1269126743 -1295841293 2144595401 463688918 -1520936233 -182550079 1948630144 -373513237 -206801255 -1233712440 1600019608 -1806442282 -335753319 -453686285 -1395132637 -1568101906 1436707795 -1561870353 -1200144372 2098602686 1242614127
REM
CELL 1.54180   50.00000   50.00000   50.00000   90.00000   90.00000   90.00000
LATT -1
SFAC C  
C      1  0.5587360000000  0.5005520000000  0.4627160000000 1.0
C      1  0.4721860000000  0.5386030000000  0.5538680000000 1.0
C      1  0.5333440000000  0.4638880000000  0.5233750000000 1.0
C      1  0.5711160000000  0.5065360000000  0.4885350000000 1.0
C      1  0.4864280000000  0.4813440000000  0.5056380000000 1.0
C      1  0.4564340000000  0.4799010000000  0.5070030000000 1.0
C      1  0.4509000000000  0.4852760000000  0.4426130000000 1.0
C      1  0.4708260000000  0.5192580000000  0.4153920000000 1.0
C      1  0.5175300000000  0.5634150000000  0.4618590000000 1.0
C      1  0.5432140000000  0.5101390000000  0.5408100000000 1.0
C      1  0.4462050000000  0.4627000000000  0.4846760000000 1.0
C      1  0.4658310000000  0.4641160000000  0.5545100000000 1.0
C      1  0.5402980000000  0.4449210000000  0.5032250000000 1.0
C      1  0.5060510000000  0.4146160000000  0.5168240000000 1.0
C      1  0.5133280000000  0.5072350000000  0.5337610000000 1.0
C      1  0.4581080000000  0.5137140000000  0.5560920000000 1.0
C      1  0.5015280000000  0.4939570000000  0.5682750000000 1.0
C      1  0.5544450000000  0.4831530000000  0.5304640000000 1.0
C      1  0.4853480000000  0.4356450000000  0.4836940000000 1.0
C      1  0.5127230000000  0.5134730000000  0.4808910000000 1.0
C      1  0.5051460000000  0.4543200000000  0.4416110000000 1.0
C      1  0.4396670000000  0.5440510000000  0.4896740000000 1.0
C      1  0.4910300000000  0.4514140000000  0.5459530000000 1.0
C      1  0.4873660000000  0.4592370000000  0.4641620000000 1.0
C      1  0.4993090000000  0.5376820000000  0.5621420000000 1.0
C      1  0.5185190000000  0.5553780000000  0.5125700000000 1.0
C      1  0.4651020000000  0.4366090000000  0.5064820000000 1.0
C      1  0.4839050000000  0.4278480000000  0.5286640000000 1.0
C      1  0.5544810000000  0.5341550000000  0.5270060000000 1.0
C      1  0.4493690000000  0.4632410000000  0.5303920000000 1.0
C      1  0.4935590000000  0.5345990000000  0.4111110000000 1.0
C      1  0.5583660000000  0.4598270000000  0.4871420000000 1.0
C      1  0.5474990000000  0.4735810000000  0.4627950000000 1.0
C      1  0.5214240000000  0.5014220000000  0.4349280000000 1.0
C      1  0.4353590000000  0.5491950000000  0.5190120000000 1.0
C      1  0.5069830000000  0.4186800000000  0.4896690000000 1.0
C      1  0.5560690000000  0.5528220000000  0.4802770000000 1.0
C      1  0.5586460000000  0.5306230000000  0.4987000000000 1.0
C      1  0.5147190000000  0.5182290000000  0.5758590000000 1.0
C      1  0.4611710000000  0.5108870000000  0.4409430000000 1.0
C      1  0.5423320000000  0.5153700000000  0.5696520000000 1.0
C      1  0.4773590000000  0.5175770000000  0.4646710000000 1.0
C      1  0.5063600000000  0.5273140000000  0.5094600000000 1.0
C      1  0.5401640000000  0.5470100000000  0.4561250000000 1.0
C      1  0.5706880000000  0.4812500000000  0.5049430000000 1.0
C      1  0.4454970000000  0.5086670000000  0.5053240000000 1.0
C      1  0.4304390000000  0.5129970000000  0.5525150000000 1.0
C      1  0.4580920000000  0.4634410000000  0.4582010000000 1.0
C      1  0.4959200000000  0.4866100000000  0.4789010000000 1.0
C      1  0.5340150000000  0.5174000000000  0.4575990000000 1.0
C      1  0.4734080000000  0.4909140000000  0.5645000000000 1.0
C      1  0.4760090000000  0.5317200000000  0.5103190000000 1.0
C      1  0.5083880000000  0.5111810000000  0.4114660000000 1.0
C      1  0.5391200000000  0.5571720000000  0.5320270000000 1.0
C      1  0.4674170000000  0.5389960000000  0.4827330000000 1.0
C      1  0.5055180000000  0.4747490000000  0.5285180000000 1.0
C      1  0.5234160000000  0.5712200000000  0.4885880000000 1.0
C      1  0.5262060000000  0.4729770000000  0.4415200000000 1.0
C      1  0.4264920000000  0.5204360000000  0.5257290000000 1.0
C      1  0.4608940000000  0.5567560000000  0.5338930000000 1.0
END
