TITL C-9263-351-328 -3.55475775397414e-05 125000 -353.032302877239 0 0 60 (C1) n - 1
REM
REM in /home/bkarasulu/CARBON/AIRSS/Generating-Clusters/EDIP-Nigel-Params/Higher-Symm/Box-15A/Only-C60/SD-CG/HFTN-CG
REM
REM
REM
REM
REM
REM ./C.cell (414f73aa93bd7a1190c7fd0f31ff2f98)
REM
REM compiler GCC version 9.2.1 20190827 (Red Hat 9.2.1-1)
REM options -cpp -mtune=generic -march=x86-64 -g -O0 -fpre-include=/usr/include/finclude/math-vector-fortran.h
REM seed -1735182669 -2079980298 1095283612 389444838 1912256960 509271395 -1697966140 1674925068 2108546724 1041940053 -2015170365 -964206821 2086131026 -1564719000 1195112530 -26424152 -635951114 -700396264 -1441473353 -2055446290 1424548070 202853935 -559829182 1998882616 -2029504390 -1933501709 657807207 -610742055 1579718644 -521864263 -1720683108 -155552779 -1785774378
REM
CELL 1.54180   50.00000   50.00000   50.00000   90.00000   90.00000   90.00000
LATT -1
SFAC C  
C      1  0.5257970000000  0.4687370000000  0.4518630000000 1.0
C      1  0.5289970000000  0.4743360000000  0.5519560000000 1.0
C      1  0.5241800000000  0.5562420000000  0.4978980000000 1.0
C      1  0.4729580000000  0.4638970000000  0.4468810000000 1.0
C      1  0.4750910000000  0.4728210000000  0.5514340000000 1.0
C      1  0.4698670000000  0.5542860000000  0.4965300000000 1.0
C      1  0.5350250000000  0.5453080000000  0.5536270000000 1.0
C      1  0.5317840000000  0.5213890000000  0.4363810000000 1.0
C      1  0.5293310000000  0.4350160000000  0.5145260000000 1.0
C      1  0.4696860000000  0.5439760000000  0.5537370000000 1.0
C      1  0.4698220000000  0.5228870000000  0.4324270000000 1.0
C      1  0.4643720000000  0.4433940000000  0.5159060000000 1.0
C      1  0.5252970000000  0.5510810000000  0.4697320000000 1.0
C      1  0.5252310000000  0.4481570000000  0.4720160000000 1.0
C      1  0.5299610000000  0.5008620000000  0.5628670000000 1.0
C      1  0.4710910000000  0.5501990000000  0.4679800000000 1.0
C      1  0.4713780000000  0.4480400000000  0.4711380000000 1.0
C      1  0.4777090000000  0.4996030000000  0.5644270000000 1.0
C      1  0.4826460000000  0.4585220000000  0.4976490000000 1.0
C      1  0.4872270000000  0.5211310000000  0.5455660000000 1.0
C      1  0.4834020000000  0.5240900000000  0.4589410000000 1.0
C      1  0.5145640000000  0.4557620000000  0.4989830000000 1.0
C      1  0.5186150000000  0.5219620000000  0.5449780000000 1.0
C      1  0.5154390000000  0.5241970000000  0.4610720000000 1.0
C      1  0.4771210000000  0.5157890000000  0.5172080000000 1.0
C      1  0.4690330000000  0.5000080000000  0.4721710000000 1.0
C      1  0.4711310000000  0.4899980000000  0.5008400000000 1.0
C      1  0.5308190000000  0.5166000000000  0.5159020000000 1.0
C      1  0.5309030000000  0.5022760000000  0.4801980000000 1.0
C      1  0.5308120000000  0.4823040000000  0.5082510000000 1.0
C      1  0.4464610000000  0.5221140000000  0.5189840000000 1.0
C      1  0.4421470000000  0.4980830000000  0.4596770000000 1.0
C      1  0.4417110000000  0.4834270000000  0.5141620000000 1.0
C      1  0.5586430000000  0.5290890000000  0.5188220000000 1.0
C      1  0.5585680000000  0.5007500000000  0.4673300000000 1.0
C      1  0.5585650000000  0.4707270000000  0.5158420000000 1.0
C      1  0.5564740000000  0.4429170000000  0.5054910000000 1.0
C      1  0.5614170000000  0.5328060000000  0.5483450000000 1.0
C      1  0.5581700000000  0.5246310000000  0.4493970000000 1.0
C      1  0.4391480000000  0.4540030000000  0.5047370000000 1.0
C      1  0.4440350000000  0.5307240000000  0.5478920000000 1.0
C      1  0.4420320000000  0.5230390000000  0.4431160000000 1.0
C      1  0.4452440000000  0.4731370000000  0.4456020000000 1.0
C      1  0.4453180000000  0.4782800000000  0.5441540000000 1.0
C      1  0.4421370000000  0.5452430000000  0.5007090000000 1.0
C      1  0.5543630000000  0.4755360000000  0.4536930000000 1.0
C      1  0.5572660000000  0.4715700000000  0.5446730000000 1.0
C      1  0.5528400000000  0.5532640000000  0.5039830000000 1.0
C      1  0.4864750000000  0.4509830000000  0.5651110000000 1.0
C      1  0.4800470000000  0.5783930000000  0.5070230000000 1.0
C      1  0.4871770000000  0.4552090000000  0.4241890000000 1.0
C      1  0.5133810000000  0.4547860000000  0.5644840000000 1.0
C      1  0.5070040000000  0.5762290000000  0.5070380000000 1.0
C      1  0.5129890000000  0.4624540000000  0.4279080000000 1.0
C      1  0.5546510000000  0.5488700000000  0.4664340000000 1.0
C      1  0.5543140000000  0.4449890000000  0.4760760000000 1.0
C      1  0.5591730000000  0.5057690000000  0.5608470000000 1.0
C      1  0.4422950000000  0.5456130000000  0.4627240000000 1.0
C      1  0.4422890000000  0.4500350000000  0.4758490000000 1.0
C      1  0.4463790000000  0.5044580000000  0.5626240000000 1.0
END
