TITL C-9263-351-171 -2.17485317257191e-06 125000 -365.338692294136 0 0 60 (C1) n - 1
REM
REM in /home/bkarasulu/CARBON/AIRSS/Generating-Clusters/EDIP-Nigel-Params/Higher-Symm/Box-15A/Only-C60/SD-CG/HFTN-CG
REM
REM
REM
REM
REM
REM ./C.cell (414f73aa93bd7a1190c7fd0f31ff2f98)
REM
REM compiler GCC version 9.2.1 20190827 (Red Hat 9.2.1-1)
REM options -cpp -mtune=generic -march=x86-64 -g -O0 -fpre-include=/usr/include/finclude/math-vector-fortran.h
REM seed 135102603 39952698 131953901 -1949137717 1474265719 -1008940430 -997589817 1676340081 1512313447 1144301255 -1541159503 1368690543 940744047 -1175346686 -1012931877 977272760 -1719778980 342201972 -553046980 2108890349 -466995355 1774854286 -176600253 -353048334 -258989197 -1195819632 1080810972 38768048 460381508 213147302 -333011387 2121354733 25177878
REM
CELL 1.54180   50.00000   50.00000   50.00000   90.00000   90.00000   90.00000
LATT -1
SFAC C  
C      1  0.5261730000000  0.5741810000000  0.5348000000000 1.0
C      1  0.4233770000000  0.5287950000000  0.5281820000000 1.0
C      1  0.4753100000000  0.4317490000000  0.5314120000000 1.0
C      1  0.5774140000000  0.4736890000000  0.5375340000000 1.0
C      1  0.4661020000000  0.4853850000000  0.4303570000000 1.0
C      1  0.5257130000000  0.4490510000000  0.4299220000000 1.0
C      1  0.5360870000000  0.5129470000000  0.4368530000000 1.0
C      1  0.4775950000000  0.5501570000000  0.4338630000000 1.0
C      1  0.4514870000000  0.4349820000000  0.5113240000000 1.0
C      1  0.5678650000000  0.4471640000000  0.4953430000000 1.0
C      1  0.5442200000000  0.5640970000000  0.5086580000000 1.0
C      1  0.4287070000000  0.5506340000000  0.5090630000000 1.0
C      1  0.4985140000000  0.4349000000000  0.4679090000000 1.0
C      1  0.5517440000000  0.4888720000000  0.4740800000000 1.0
C      1  0.5010330000000  0.5650060000000  0.4739560000000 1.0
C      1  0.4466460000000  0.5034560000000  0.4696780000000 1.0
C      1  0.4512840000000  0.5626550000000  0.5228770000000 1.0
C      1  0.4412400000000  0.4593410000000  0.5259000000000 1.0
C      1  0.5453460000000  0.4487820000000  0.5126820000000 1.0
C      1  0.5617410000000  0.5416360000000  0.5228930000000 1.0
C      1  0.4800270000000  0.4627720000000  0.4322910000000 1.0
C      1  0.5456840000000  0.4669140000000  0.4312410000000 1.0
C      1  0.5226210000000  0.5355970000000  0.4410260000000 1.0
C      1  0.4578440000000  0.5321420000000  0.4319400000000 1.0
C      1  0.5016130000000  0.5608280000000  0.5210430000000 1.0
C      1  0.4257650000000  0.5064910000000  0.5101950000000 1.0
C      1  0.4947020000000  0.4445550000000  0.5118490000000 1.0
C      1  0.5774440000000  0.4906070000000  0.5147810000000 1.0
C      1  0.4830070000000  0.4804430000000  0.5668780000000 1.0
C      1  0.5324080000000  0.4785090000000  0.5515880000000 1.0
C      1  0.5224090000000  0.5269740000000  0.5472070000000 1.0
C      1  0.4741060000000  0.5299860000000  0.5542070000000 1.0
C      1  0.4625220000000  0.4540990000000  0.5475560000000 1.0
C      1  0.5523260000000  0.4604480000000  0.5390950000000 1.0
C      1  0.5420020000000  0.5496810000000  0.5460580000000 1.0
C      1  0.4517310000000  0.5466780000000  0.5472390000000 1.0
C      1  0.5439880000000  0.5120030000000  0.4883510000000 1.0
C      1  0.4766710000000  0.5763560000000  0.4824890000000 1.0
C      1  0.4516230000000  0.4786140000000  0.4817810000000 1.0
C      1  0.5212620000000  0.4232170000000  0.4796080000000 1.0
C      1  0.4675200000000  0.5006790000000  0.5524730000000 1.0
C      1  0.5046650000000  0.4678140000000  0.5517510000000 1.0
C      1  0.5328160000000  0.5032940000000  0.5331980000000 1.0
C      1  0.4966050000000  0.5337330000000  0.5340660000000 1.0
C      1  0.5496520000000  0.4903980000000  0.4453770000000 1.0
C      1  0.5008850000000  0.5507120000000  0.4488530000000 1.0
C      1  0.4533000000000  0.5068100000000  0.4420510000000 1.0
C      1  0.5009270000000  0.4478340000000  0.4422440000000 1.0
C      1  0.4298470000000  0.5206800000000  0.4852310000000 1.0
C      1  0.4782660000000  0.4438730000000  0.4867170000000 1.0
C      1  0.5726330000000  0.4748360000000  0.4895390000000 1.0
C      1  0.5176380000000  0.5545410000000  0.4957270000000 1.0
C      1  0.4977820000000  0.4725240000000  0.5233660000000 1.0
C      1  0.5150300000000  0.4969180000000  0.5090100000000 1.0
C      1  0.4909990000000  0.5150770000000  0.5114410000000 1.0
C      1  0.4729970000000  0.4938250000000  0.5238040000000 1.0
C      1  0.4761190000000  0.5722260000000  0.5101760000000 1.0
C      1  0.4469580000000  0.4844220000000  0.5101400000000 1.0
C      1  0.5217320000000  0.4328570000000  0.5059120000000 1.0
C      1  0.5562760000000  0.5125560000000  0.5152130000000 1.0
END
