TITL C-9256-7861-256 -0.000238248529422119 125000 -357.309861418331 0 0 60 (C1) n - 1
REM
REM in /home/bkarasulu/CARBON/AIRSS/Generating-Clusters/EDIP-Nigel-Params/Higher-Symm/Box-15A/Only-C60/SD-CG/HFTN-CG
REM
REM
REM
REM
REM
REM ./C.cell (414f73aa93bd7a1190c7fd0f31ff2f98)
REM
REM compiler GCC version 9.2.1 20190827 (Red Hat 9.2.1-1)
REM options -cpp -mtune=generic -march=x86-64 -g -O0 -fpre-include=/usr/include/finclude/math-vector-fortran.h
REM seed -1047698488 -1398950720 -434714278 -877220175 -1796733221 -918709309 -2135389844 1842193515 1763365338 -312200234 589217404 -1213563232 -1710038417 -783074389 -813350557 871265701 833686498 -185176371 -1879473948 1446787780 -2061794820 -765114753 -1263662727 2054020000 1883670908 -1656909942 -327122556 -521421392 1778490913 488722549 400084172 1915848456 -464515536
REM
CELL 1.54180   50.00000   50.00000   50.00000   90.00000   90.00000   90.00000
LATT -1
SFAC C  
C      1  0.5516190000000  0.5779560000000  0.4868990000000 1.0
C      1  0.4857690000000  0.4225760000000  0.4531040000000 1.0
C      1  0.4534470000000  0.5758750000000  0.5122950000000 1.0
C      1  0.5131670000000  0.4259260000000  0.5432210000000 1.0
C      1  0.5737670000000  0.5636290000000  0.5291920000000 1.0
C      1  0.5237720000000  0.4392300000000  0.4260800000000 1.0
C      1  0.4284420000000  0.5601270000000  0.4727710000000 1.0
C      1  0.4726990000000  0.4380170000000  0.5689290000000 1.0
C      1  0.5098280000000  0.4214550000000  0.4415920000000 1.0
C      1  0.4431450000000  0.5777760000000  0.4877290000000 1.0
C      1  0.4886650000000  0.4222360000000  0.5531990000000 1.0
C      1  0.5612520000000  0.5806250000000  0.5116820000000 1.0
C      1  0.4334180000000  0.4710210000000  0.4341540000000 1.0
C      1  0.4317170000000  0.5265160000000  0.5627160000000 1.0
C      1  0.5621810000000  0.4744880000000  0.5696540000000 1.0
C      1  0.5673770000000  0.5212820000000  0.4433910000000 1.0
C      1  0.4541890000000  0.5581770000000  0.5334920000000 1.0
C      1  0.5341970000000  0.4438010000000  0.5441310000000 1.0
C      1  0.5502080000000  0.5592640000000  0.4666240000000 1.0
C      1  0.4641270000000  0.4396540000000  0.4548010000000 1.0
C      1  0.5196850000000  0.5268020000000  0.4471920000000 1.0
C      1  0.4510160000000  0.4740770000000  0.4797380000000 1.0
C      1  0.4779400000000  0.5235890000000  0.5482740000000 1.0
C      1  0.5504260000000  0.4790660000000  0.5223590000000 1.0
C      1  0.4726640000000  0.4556110000000  0.4098030000000 1.0
C      1  0.4094440000000  0.5430480000000  0.5228140000000 1.0
C      1  0.5216470000000  0.4562780000000  0.5893510000000 1.0
C      1  0.5918210000000  0.5389670000000  0.4815680000000 1.0
C      1  0.5267390000000  0.5538030000000  0.4525030000000 1.0
C      1  0.4522190000000  0.4458340000000  0.4792630000000 1.0
C      1  0.4782260000000  0.5517160000000  0.5461310000000 1.0
C      1  0.5481140000000  0.4509730000000  0.5210580000000 1.0
C      1  0.5696040000000  0.5168020000000  0.5464060000000 1.0
C      1  0.5367230000000  0.4868740000000  0.4252570000000 1.0
C      1  0.4288280000000  0.5124480000000  0.4595580000000 1.0
C      1  0.4575050000000  0.4853370000000  0.5708130000000 1.0
C      1  0.5592900000000  0.4910010000000  0.5473690000000 1.0
C      1  0.5423010000000  0.5129260000000  0.4337370000000 1.0
C      1  0.4395260000000  0.4870340000000  0.4562540000000 1.0
C      1  0.4548130000000  0.5109940000000  0.5604570000000 1.0
C      1  0.4811240000000  0.4848460000000  0.5190310000000 1.0
C      1  0.5184930000000  0.5153370000000  0.5196440000000 1.0
C      1  0.5271240000000  0.4897240000000  0.4789390000000 1.0
C      1  0.4834230000000  0.5102910000000  0.4780660000000 1.0
C      1  0.4300300000000  0.5445870000000  0.5413360000000 1.0
C      1  0.5404590000000  0.4568590000000  0.5689790000000 1.0
C      1  0.5718080000000  0.5409110000000  0.4625830000000 1.0
C      1  0.4552640000000  0.4536800000000  0.4313200000000 1.0
C      1  0.4721390000000  0.4892610000000  0.4928020000000 1.0
C      1  0.4941890000000  0.5068150000000  0.5309710000000 1.0
C      1  0.5338980000000  0.4962820000000  0.5054870000000 1.0
C      1  0.5105580000000  0.5113040000000  0.4708060000000 1.0
C      1  0.4993180000000  0.4607780000000  0.4052150000000 1.0
C      1  0.4063750000000  0.5382690000000  0.4958590000000 1.0
C      1  0.4945020000000  0.4595120000000  0.5926260000000 1.0
C      1  0.5945060000000  0.5379630000000  0.5089050000000 1.0
C      1  0.5718400000000  0.5354490000000  0.5259830000000 1.0
C      1  0.5175070000000  0.4669900000000  0.4263610000000 1.0
C      1  0.4285300000000  0.5323220000000  0.4788100000000 1.0
C      1  0.4773950000000  0.4660070000000  0.5707120000000 1.0
END
