TITL C-9257-5531-199 1.14987931974344e-06 125000 -372.966165052166 0 0 60 (C1) n - 1
REM
REM in /home/bkarasulu/CARBON/AIRSS/Generating-Clusters/EDIP-Nigel-Params/Higher-Symm/Box-15A/Only-C60/SD-CG/HFTN-CG
REM
REM
REM
REM
REM
REM ./C.cell (414f73aa93bd7a1190c7fd0f31ff2f98)
REM
REM compiler GCC version 9.2.1 20190827 (Red Hat 9.2.1-1)
REM options -cpp -mtune=generic -march=x86-64 -g -O0 -fpre-include=/usr/include/finclude/math-vector-fortran.h
REM seed -939703125 -1947147590 -388296710 1738469272 926982666 -1877981800 -1035209361 1774422670 -178631672 -139519573 800139136 1333688889 498863229 267028117 -534090171 475504014 475053106 1051982857 -1720039345 -1899067173 1815471056 1919969360 9265531 -1837472948 -308509621 1953264550 954323633 1344440937 -1693281472 -88265244 -1120805063 -1615076975 -12586656
REM
CELL 1.54180   50.00000   50.00000   50.00000   90.00000   90.00000   90.00000
LATT -1
SFAC C  
C      1  0.4589130000000  0.5383580000000  0.5334760000000 1.0
C      1  0.4908590000000  0.5619700000000  0.4910440000000 1.0
C      1  0.4979410000000  0.4969080000000  0.5334680000000 1.0
C      1  0.4696780000000  0.4773200000000  0.4475180000000 1.0
C      1  0.5646110000000  0.4862240000000  0.5021110000000 1.0
C      1  0.5156680000000  0.5367810000000  0.4528650000000 1.0
C      1  0.5271770000000  0.4886350000000  0.5379150000000 1.0
C      1  0.5066550000000  0.5459130000000  0.5113290000000 1.0
C      1  0.5522170000000  0.5440840000000  0.4834140000000 1.0
C      1  0.5218780000000  0.5461410000000  0.5566890000000 1.0
C      1  0.5517020000000  0.5258040000000  0.5240620000000 1.0
C      1  0.4683490000000  0.5369230000000  0.4536200000000 1.0
C      1  0.5207010000000  0.4685150000000  0.4538680000000 1.0
C      1  0.4318780000000  0.4725960000000  0.4956560000000 1.0
C      1  0.4904370000000  0.4909270000000  0.5830200000000 1.0
C      1  0.5375490000000  0.5473020000000  0.5085980000000 1.0
C      1  0.5171750000000  0.4998840000000  0.5829620000000 1.0
C      1  0.5021510000000  0.5553610000000  0.5391130000000 1.0
C      1  0.4539910000000  0.4538520000000  0.4956280000000 1.0
C      1  0.4942890000000  0.4333970000000  0.4736340000000 1.0
C      1  0.4871870000000  0.4687170000000  0.5389030000000 1.0
C      1  0.5413250000000  0.4439370000000  0.4903920000000 1.0
C      1  0.5794950000000  0.5185860000000  0.5102620000000 1.0
C      1  0.4482780000000  0.4945060000000  0.4378490000000 1.0
C      1  0.4867550000000  0.4659830000000  0.5684430000000 1.0
C      1  0.5498160000000  0.5041860000000  0.4539770000000 1.0
C      1  0.4578710000000  0.4654030000000  0.5428550000000 1.0
C      1  0.4718120000000  0.5098270000000  0.5735280000000 1.0
C      1  0.5011370000000  0.4458640000000  0.4468330000000 1.0
C      1  0.5344490000000  0.5235510000000  0.4709140000000 1.0
C      1  0.4514070000000  0.5247540000000  0.4756520000000 1.0
C      1  0.4372610000000  0.4949280000000  0.5121360000000 1.0
C      1  0.5789150000000  0.5358120000000  0.4881530000000 1.0
C      1  0.4669480000000  0.4360780000000  0.4790200000000 1.0
C      1  0.5438220000000  0.5285870000000  0.5538080000000 1.0
C      1  0.4921450000000  0.5498440000000  0.4641610000000 1.0
C      1  0.4765660000000  0.4789200000000  0.4768450000000 1.0
C      1  0.5189170000000  0.5043320000000  0.4920700000000 1.0
C      1  0.5063200000000  0.4483660000000  0.5252640000000 1.0
C      1  0.5117560000000  0.4485330000000  0.4947810000000 1.0
C      1  0.5072470000000  0.4770150000000  0.4806110000000 1.0
C      1  0.4322340000000  0.5056960000000  0.4593850000000 1.0
C      1  0.5072100000000  0.5168680000000  0.4332320000000 1.0
C      1  0.4213630000000  0.4830920000000  0.4721510000000 1.0
C      1  0.4774620000000  0.5182460000000  0.4327980000000 1.0
C      1  0.5271570000000  0.4934720000000  0.4363010000000 1.0
C      1  0.4642070000000  0.5688150000000  0.4977230000000 1.0
C      1  0.4525160000000  0.5441700000000  0.5045220000000 1.0
C      1  0.4785820000000  0.4550710000000  0.4327860000000 1.0
C      1  0.4594030000000  0.5130790000000  0.5485150000000 1.0
C      1  0.5328180000000  0.4593370000000  0.5344730000000 1.0
C      1  0.4445260000000  0.4905550000000  0.5388280000000 1.0
C      1  0.5471380000000  0.4580330000000  0.4648550000000 1.0
C      1  0.4684850000000  0.5045640000000  0.4922750000000 1.0
C      1  0.5622430000000  0.4827580000000  0.4711430000000 1.0
C      1  0.5371290000000  0.5014580000000  0.5632330000000 1.0
C      1  0.4752290000000  0.5573790000000  0.5462130000000 1.0
C      1  0.5544750000000  0.4579330000000  0.5131570000000 1.0
C      1  0.4951400000000  0.5146930000000  0.5082170000000 1.0
C      1  0.5394350000000  0.5001540000000  0.5137440000000 1.0
END
