TITL C-9259-5960-301 -1.13979848671324e-06 125000 -374.529927306586 0 0 60 (C6) n - 1
REM
REM in /home/bkarasulu/CARBON/AIRSS/Generating-Clusters/EDIP-Nigel-Params/Higher-Symm/Box-15A/Only-C60/SD-CG/HFTN-CG
REM
REM
REM
REM
REM
REM ./C.cell (414f73aa93bd7a1190c7fd0f31ff2f98)
REM
REM compiler GCC version 9.2.1 20190827 (Red Hat 9.2.1-1)
REM options -cpp -mtune=generic -march=x86-64 -g -O0 -fpre-include=/usr/include/finclude/math-vector-fortran.h
REM seed 958251503 1666735769 836450750 -1375151469 99950576 -1298934356 -253865853 -599129194 -1583976840 -1953348314 -1219449987 -1099612561 -957557949 398284853 -1521848947 1759004123 -1085026102 -694965281 -1341341511 1687225904 -1210340825 -1627748102 -889272784 -673118532 371552627 -1928559121 -1683720038 1711561712 -1420801657 1526610392 1482241141 -1559815578 687548142
REM
CELL 1.54180   50.00000   50.00000   50.00000   90.00000   90.00000   90.00000
LATT -1
SFAC C  
C      1  0.5269390000000  0.4824950000000  0.5190950000000 1.0
C      1  0.4969280000000  0.4824790000000  0.5328680000000 1.0
C      1  0.4699940000000  0.4824800000000  0.5137650000000 1.0
C      1  0.4730720000000  0.4824970000000  0.4808880000000 1.0
C      1  0.5030830000000  0.4825130000000  0.4671140000000 1.0
C      1  0.5300160000000  0.4825120000000  0.4862180000000 1.0
C      1  0.4730720000000  0.5174860000000  0.5191270000000 1.0
C      1  0.5030910000000  0.5174890000000  0.5328840000000 1.0
C      1  0.5300140000000  0.5175060000000  0.5137650000000 1.0
C      1  0.5269180000000  0.5175220000000  0.4808900000000 1.0
C      1  0.4968990000000  0.5175190000000  0.4671330000000 1.0
C      1  0.4699760000000  0.5175020000000  0.4862520000000 1.0
C      1  0.4276740000000  0.4575160000000  0.5073470000000 1.0
C      1  0.4574620000000  0.4575580000000  0.4410160000000 1.0
C      1  0.5298010000000  0.4575840000000  0.4336470000000 1.0
C      1  0.5723520000000  0.4575670000000  0.4926110000000 1.0
C      1  0.5425630000000  0.4575250000000  0.5589420000000 1.0
C      1  0.4702240000000  0.4575000000000  0.5663100000000 1.0
C      1  0.5723300000000  0.5424760000000  0.5073490000000 1.0
C      1  0.5425050000000  0.5425000000000  0.4410340000000 1.0
C      1  0.4701610000000  0.5424820000000  0.4337060000000 1.0
C      1  0.4276440000000  0.5424400000000  0.4926940000000 1.0
C      1  0.4574700000000  0.5424160000000  0.5590080000000 1.0
C      1  0.5298130000000  0.5424340000000  0.5663360000000 1.0
C      1  0.4444000000000  0.4488970000000  0.4863820000000 1.0
C      1  0.4839790000000  0.4489300000000  0.4450150000000 1.0
C      1  0.5395940000000  0.4489390000000  0.4586070000000 1.0
C      1  0.5556300000000  0.4489170000000  0.5135670000000 1.0
C      1  0.5160520000000  0.4488850000000  0.5549350000000 1.0
C      1  0.4604370000000  0.4488750000000  0.5413430000000 1.0
C      1  0.5555920000000  0.5511160000000  0.4864020000000 1.0
C      1  0.5159900000000  0.5511250000000  0.4450560000000 1.0
C      1  0.4603830000000  0.5511020000000  0.4586800000000 1.0
C      1  0.4443770000000  0.5510690000000  0.5136490000000 1.0
C      1  0.4839790000000  0.5510610000000  0.5549940000000 1.0
C      1  0.5395870000000  0.5510840000000  0.5413710000000 1.0
C      1  0.4803060000000  0.4399770000000  0.5213670000000 1.0
C      1  0.4716320000000  0.4399880000000  0.4935980000000 1.0
C      1  0.4913440000000  0.4400050000000  0.4722010000000 1.0
C      1  0.5197300000000  0.4400100000000  0.4785730000000 1.0
C      1  0.5284040000000  0.4399990000000  0.5063430000000 1.0
C      1  0.5086920000000  0.4399830000000  0.5277400000000 1.0
C      1  0.5197060000000  0.5600010000000  0.5214160000000 1.0
C      1  0.5283650000000  0.5600180000000  0.4936410000000 1.0
C      1  0.5086410000000  0.5600230000000  0.4722550000000 1.0
C      1  0.4802580000000  0.5600110000000  0.4786440000000 1.0
C      1  0.4715990000000  0.5599940000000  0.5064180000000 1.0
C      1  0.4913230000000  0.5599900000000  0.5278040000000 1.0
C      1  0.4497850000000  0.5310000000000  0.5346780000000 1.0
C      1  0.4448700000000  0.5310290000000  0.4738670000000 1.0
C      1  0.4950750000000  0.5310610000000  0.4392050000000 1.0
C      1  0.5501960000000  0.5310650000000  0.4653530000000 1.0
C      1  0.5551120000000  0.5310360000000  0.5261640000000 1.0
C      1  0.5049060000000  0.5310040000000  0.5608260000000 1.0
C      1  0.5502350000000  0.4689650000000  0.5346180000000 1.0
C      1  0.5551160000000  0.4689970000000  0.4738050000000 1.0
C      1  0.5048900000000  0.4689990000000  0.4391710000000 1.0
C      1  0.4497840000000  0.4689700000000  0.4653510000000 1.0
C      1  0.4449030000000  0.4689380000000  0.5261640000000 1.0
C      1  0.4951280000000  0.4689360000000  0.5607980000000 1.0
END
