TITL C-9267-1554-291 -2.11702793621741e-05 125000 -365.989781219051 0 0 60 (C1) n - 1
REM
REM in /home/bkarasulu/CARBON/AIRSS/Generating-Clusters/EDIP-Nigel-Params/Higher-Symm/Box-15A/Only-C60/SD-CG/HFTN-CG
REM
REM
REM
REM
REM
REM ./C.cell (414f73aa93bd7a1190c7fd0f31ff2f98)
REM
REM compiler GCC version 9.2.1 20190827 (Red Hat 9.2.1-1)
REM options -cpp -mtune=generic -march=x86-64 -g -O0 -fpre-include=/usr/include/finclude/math-vector-fortran.h
REM seed -1135161374 -1122930999 236132585 -1832922850 811077804 -151137323 -51240093 1434772079 47430082 462936897 -813691396 -1320961018 -630275797 390033793 2122270898 -718507915 1642399302 -1053563436 -608584565 1485257516 -1029176132 -1326587914 24129856 -549783980 -1514976580 -1113121945 -270051639 1398275791 -750077053 1102627396 -1130623467 594843427 -1839851082
REM
CELL 1.54180   50.00000   50.00000   50.00000   90.00000   90.00000   90.00000
LATT -1
SFAC C  
C      1  0.5361000000000  0.5808890000000  0.4869550000000 1.0
C      1  0.4584000000000  0.4194310000000  0.4847410000000 1.0
C      1  0.4685170000000  0.4811970000000  0.5544300000000 1.0
C      1  0.5412550000000  0.5208570000000  0.5584140000000 1.0
C      1  0.4510780000000  0.4735220000000  0.5340530000000 1.0
C      1  0.5574380000000  0.5328610000000  0.5390360000000 1.0
C      1  0.4866990000000  0.5560380000000  0.5524490000000 1.0
C      1  0.5115910000000  0.4365740000000  0.5547500000000 1.0
C      1  0.4996410000000  0.4846370000000  0.5462430000000 1.0
C      1  0.5120050000000  0.5141460000000  0.5490480000000 1.0
C      1  0.4949090000000  0.5577750000000  0.4733840000000 1.0
C      1  0.5002420000000  0.4461340000000  0.4783780000000 1.0
C      1  0.4854210000000  0.5512960000000  0.5037630000000 1.0
C      1  0.5127250000000  0.4493340000000  0.5079880000000 1.0
C      1  0.4971010000000  0.5253740000000  0.5095160000000 1.0
C      1  0.5059470000000  0.4775180000000  0.5174260000000 1.0
C      1  0.4748520000000  0.5081310000000  0.5106500000000 1.0
C      1  0.5295850000000  0.4949700000000  0.5130860000000 1.0
C      1  0.4231980000000  0.4931890000000  0.4772660000000 1.0
C      1  0.5713580000000  0.5051360000000  0.4803490000000 1.0
C      1  0.5377750000000  0.4771810000000  0.4663760000000 1.0
C      1  0.4612480000000  0.5210560000000  0.4644250000000 1.0
C      1  0.5760560000000  0.5008990000000  0.4518070000000 1.0
C      1  0.4217160000000  0.4976960000000  0.4492560000000 1.0
C      1  0.4500790000000  0.5218170000000  0.5193050000000 1.0
C      1  0.5530370000000  0.4767350000000  0.5198770000000 1.0
C      1  0.4920370000000  0.4875670000000  0.4560960000000 1.0
C      1  0.5061390000000  0.5134110000000  0.4507530000000 1.0
C      1  0.5322840000000  0.5140530000000  0.4377920000000 1.0
C      1  0.4665800000000  0.4802230000000  0.4401950000000 1.0
C      1  0.4934700000000  0.5682250000000  0.5282080000000 1.0
C      1  0.5024730000000  0.4302630000000  0.5291670000000 1.0
C      1  0.4727100000000  0.4374210000000  0.4683600000000 1.0
C      1  0.5239370000000  0.5627440000000  0.4693680000000 1.0
C      1  0.4702650000000  0.4969080000000  0.4831990000000 1.0
C      1  0.5332090000000  0.5028200000000  0.4838590000000 1.0
C      1  0.5529220000000  0.5450850000000  0.5141900000000 1.0
C      1  0.4476710000000  0.4604930000000  0.5095740000000 1.0
C      1  0.4561850000000  0.4324620000000  0.5093140000000 1.0
C      1  0.5409250000000  0.5716690000000  0.5127750000000 1.0
C      1  0.5393020000000  0.5375380000000  0.4670410000000 1.0
C      1  0.4544200000000  0.4595020000000  0.4586360000000 1.0
C      1  0.5611290000000  0.5341300000000  0.4875920000000 1.0
C      1  0.4475290000000  0.4763320000000  0.4833280000000 1.0
C      1  0.5195460000000  0.5777160000000  0.5291450000000 1.0
C      1  0.4752880000000  0.4247550000000  0.5279320000000 1.0
C      1  0.4240350000000  0.5183200000000  0.4924720000000 1.0
C      1  0.5735070000000  0.4792570000000  0.4966160000000 1.0
C      1  0.4549830000000  0.5475880000000  0.5049210000000 1.0
C      1  0.5433050000000  0.4489770000000  0.5074280000000 1.0
C      1  0.5255720000000  0.5379160000000  0.5770550000000 1.0
C      1  0.4755640000000  0.4615990000000  0.5751240000000 1.0
C      1  0.5111680000000  0.4656230000000  0.4599860000000 1.0
C      1  0.4866910000000  0.5352080000000  0.4554360000000 1.0
C      1  0.4483760000000  0.5043890000000  0.4422900000000 1.0
C      1  0.5504910000000  0.4922940000000  0.4437030000000 1.0
C      1  0.4416070000000  0.5385420000000  0.4795630000000 1.0
C      1  0.5568600000000  0.4577200000000  0.4807340000000 1.0
C      1  0.4976900000000  0.5350040000000  0.5670560000000 1.0
C      1  0.5041590000000  0.4598520000000  0.5681250000000 1.0
END
