TITL C-9267-1554-75 -4.43963959749891e-07 125000 -374.281785605129 0 0 60 (C2h) n - 1
REM
REM in /home/bkarasulu/CARBON/AIRSS/Generating-Clusters/EDIP-Nigel-Params/Higher-Symm/Box-15A/Only-C60/SD-CG/HFTN-CG
REM
REM
REM
REM
REM
REM ./C.cell (414f73aa93bd7a1190c7fd0f31ff2f98)
REM
REM compiler GCC version 9.2.1 20190827 (Red Hat 9.2.1-1)
REM options -cpp -mtune=generic -march=x86-64 -g -O0 -fpre-include=/usr/include/finclude/math-vector-fortran.h
REM seed -688136476 1475140761 -292671899 193916574 825530809 -31896905 -1199718593 -464266263 1416245798 978136515 63494061 1197068819 710818402 -722996427 1899658053 -953153343 700588144 -1143558451 1936293685 580887279 1776792531 1497093085 -646077699 -131970053 940300187 1866517957 -815795252 1810779203 1657728380 -2060226755 238545925 -930747515 -1357252016
REM
CELL 1.54180   50.00000   50.00000   50.00000   90.00000   90.00000   90.00000
LATT -1
SFAC C  
C      1  0.4856510000000  0.4280600000000  0.5253590000000 1.0
C      1  0.4296200000000  0.4751390000000  0.5203470000000 1.0
C      1  0.4418950000000  0.5478330000000  0.5214090000000 1.0
C      1  0.5113700000000  0.5719470000000  0.5268090000000 1.0
C      1  0.5676060000000  0.5248670000000  0.5282200000000 1.0
C      1  0.5552890000000  0.4521730000000  0.5278980000000 1.0
C      1  0.4886300000000  0.4280530000000  0.4731910000000 1.0
C      1  0.4323940000000  0.4751330000000  0.4717800000000 1.0
C      1  0.4447110000000  0.5478270000000  0.4721020000000 1.0
C      1  0.5143490000000  0.5719400000000  0.4746410000000 1.0
C      1  0.5703800000000  0.5248610000000  0.4796530000000 1.0
C      1  0.5581050000000  0.4521670000000  0.4785910000000 1.0
C      1  0.5219920000000  0.5184420000000  0.5463450000000 1.0
C      1  0.5254350000000  0.4901740000000  0.5368540000000 1.0
C      1  0.5049440000000  0.4700460000000  0.5455030000000 1.0
C      1  0.4728750000000  0.4815700000000  0.5435450000000 1.0
C      1  0.4705350000000  0.5098360000000  0.5337160000000 1.0
C      1  0.4899090000000  0.5299670000000  0.5446360000000 1.0
C      1  0.5271250000000  0.5184300000000  0.4564550000000 1.0
C      1  0.5294650000000  0.4901640000000  0.4662840000000 1.0
C      1  0.5100910000000  0.4700330000000  0.4553640000000 1.0
C      1  0.4780080000000  0.4815580000000  0.4536550000000 1.0
C      1  0.4745650000000  0.5098260000000  0.4631460000000 1.0
C      1  0.4950560000000  0.5299540000000  0.4544970000000 1.0
C      1  0.5433700000000  0.5369820000000  0.5347000000000 1.0
C      1  0.5522090000000  0.4798120000000  0.5316780000000 1.0
C      1  0.5083270000000  0.4426710000000  0.5322430000000 1.0
C      1  0.4529610000000  0.4630260000000  0.5295470000000 1.0
C      1  0.4445240000000  0.5201960000000  0.5255230000000 1.0
C      1  0.4880570000000  0.5573380000000  0.5310690000000 1.0
C      1  0.5470390000000  0.5369740000000  0.4704530000000 1.0
C      1  0.5554760000000  0.4798040000000  0.4744770000000 1.0
C      1  0.5119430000000  0.4426620000000  0.4689310000000 1.0
C      1  0.4566300000000  0.4630180000000  0.4653000000000 1.0
C      1  0.4477910000000  0.5201880000000  0.4683220000000 1.0
C      1  0.4916730000000  0.5573290000000  0.4677570000000 1.0
C      1  0.4898230000000  0.5285400000000  0.5756070000000 1.0
C      1  0.5181850000000  0.5183290000000  0.5771220000000 1.0
C      1  0.5173320000000  0.4920380000000  0.5876810000000 1.0
C      1  0.5015030000000  0.4714810000000  0.5762820000000 1.0
C      1  0.4731530000000  0.4816910000000  0.5745550000000 1.0
C      1  0.4727990000000  0.5079850000000  0.5851360000000 1.0
C      1  0.4984970000000  0.5285190000000  0.4237180000000 1.0
C      1  0.5268470000000  0.5183090000000  0.4254450000000 1.0
C      1  0.5272010000000  0.4920150000000  0.4148640000000 1.0
C      1  0.5101770000000  0.4714600000000  0.4243930000000 1.0
C      1  0.4818150000000  0.4816710000000  0.4228780000000 1.0
C      1  0.4826680000000  0.5079620000000  0.4123190000000 1.0
C      1  0.5349310000000  0.4386290000000  0.4870130000000 1.0
C      1  0.4666660000000  0.4420400000000  0.4832310000000 1.0
C      1  0.4285440000000  0.5014260000000  0.4808620000000 1.0
C      1  0.4667760000000  0.5613670000000  0.4831040000000 1.0
C      1  0.5350270000000  0.5579560000000  0.4871190000000 1.0
C      1  0.5731700000000  0.4985700000000  0.4891220000000 1.0
C      1  0.5332240000000  0.4386330000000  0.5168960000000 1.0
C      1  0.4649730000000  0.4420440000000  0.5128810000000 1.0
C      1  0.4268300000000  0.5014300000000  0.5108780000000 1.0
C      1  0.4650690000000  0.5613710000000  0.5129870000000 1.0
C      1  0.5333340000000  0.5579600000000  0.5167690000000 1.0
C      1  0.5714560000000  0.4985740000000  0.5191380000000 1.0
END
