TITL C-9270-2362-211 1.41172621775613e-06 125000 -365.455344092879 0 0 60 (C2) n - 1
REM
REM in /home/bkarasulu/CARBON/AIRSS/Generating-Clusters/EDIP-Nigel-Params/Higher-Symm/Box-15A/Only-C60/SD-CG/HFTN-CG
REM
REM
REM
REM
REM
REM ./C.cell (414f73aa93bd7a1190c7fd0f31ff2f98)
REM
REM compiler GCC version 9.2.1 20190827 (Red Hat 9.2.1-1)
REM options -cpp -mtune=generic -march=x86-64 -g -O0 -fpre-include=/usr/include/finclude/math-vector-fortran.h
REM seed 166313075 -1968271677 -2086100969 616763830 -1707468210 1963712415 310146156 1029411991 1373321099 1618190919 -1394011092 1982974006 1695884058 1985252230 -776788642 -1636775467 2002093935 -656938289 1652117796 322817956 -458753584 911650092 -37029760 429090440 568457351 2113964453 -2044204190 1212183791 -2108452309 360755414 1745889061 2046128581 -378568429
REM
CELL 1.54180   50.00000   50.00000   50.00000   90.00000   90.00000   90.00000
LATT -1
SFAC C  
C      1  0.5007780000000  0.4896470000000  0.5773020000000 1.0
C      1  0.4989860000000  0.4353590000000  0.5212850000000 1.0
C      1  0.4994820000000  0.4346410000000  0.4440470000000 1.0
C      1  0.5006990000000  0.5103540000000  0.4226970000000 1.0
C      1  0.4988730000000  0.5646390000000  0.4787160000000 1.0
C      1  0.4994320000000  0.5653580000000  0.5559530000000 1.0
C      1  0.5016790000000  0.4846000000000  0.4101130000000 1.0
C      1  0.4991160000000  0.4277050000000  0.4714400000000 1.0
C      1  0.4992010000000  0.4495710000000  0.5453120000000 1.0
C      1  0.5017310000000  0.5154020000000  0.5898860000000 1.0
C      1  0.4990330000000  0.5722930000000  0.5285610000000 1.0
C      1  0.4990900000000  0.5504280000000  0.4546890000000 1.0
C      1  0.5259210000000  0.4695990000000  0.4162390000000 1.0
C      1  0.5250960000000  0.5452480000000  0.4434850000000 1.0
C      1  0.5242790000000  0.5788350000000  0.5165960000000 1.0
C      1  0.5259450000000  0.5304400000000  0.5837390000000 1.0
C      1  0.5252090000000  0.4547890000000  0.5564940000000 1.0
C      1  0.5243820000000  0.4212010000000  0.4833840000000 1.0
C      1  0.5253570000000  0.4748250000000  0.5767580000000 1.0
C      1  0.5242160000000  0.5505190000000  0.5629070000000 1.0
C      1  0.5249460000000  0.5718970000000  0.4891390000000 1.0
C      1  0.5252570000000  0.5252130000000  0.4232210000000 1.0
C      1  0.5242380000000  0.4495170000000  0.4370730000000 1.0
C      1  0.5250610000000  0.4281400000000  0.5108400000000 1.0
C      1  0.4738140000000  0.4538970000000  0.5582340000000 1.0
C      1  0.4726110000000  0.4238050000000  0.4830300000000 1.0
C      1  0.4764700000000  0.4712260000000  0.4148110000000 1.0
C      1  0.4736980000000  0.5460640000000  0.4417880000000 1.0
C      1  0.4725130000000  0.5761540000000  0.5169920000000 1.0
C      1  0.4764980000000  0.5287390000000  0.5852090000000 1.0
C      1  0.4729640000000  0.4372430000000  0.4320220000000 1.0
C      1  0.4730440000000  0.4265700000000  0.5116520000000 1.0
C      1  0.4739330000000  0.4775740000000  0.5746750000000 1.0
C      1  0.4729270000000  0.5627170000000  0.5680000000000 1.0
C      1  0.4729260000000  0.5733900000000  0.4883700000000 1.0
C      1  0.4738380000000  0.5223870000000  0.4253470000000 1.0
C      1  0.5509220000000  0.5512850000000  0.5185130000000 1.0
C      1  0.5523360000000  0.5166240000000  0.5589650000000 1.0
C      1  0.5443240000000  0.4656410000000  0.5373100000000 1.0
C      1  0.5509820000000  0.4487910000000  0.4814450000000 1.0
C      1  0.5523120000000  0.4834530000000  0.4409920000000 1.0
C      1  0.5442430000000  0.5344240000000  0.4626530000000 1.0
C      1  0.5446590000000  0.5502570000000  0.4887760000000 1.0
C      1  0.5540280000000  0.5119500000000  0.4448400000000 1.0
C      1  0.5406540000000  0.4623670000000  0.4576720000000 1.0
C      1  0.5447430000000  0.4498090000000  0.5111870000000 1.0
C      1  0.5540910000000  0.4881300000000  0.5551150000000 1.0
C      1  0.5406330000000  0.5376930000000  0.5422940000000 1.0
C      1  0.4608070000000  0.5204850000000  0.5621340000000 1.0
C      1  0.4516200000000  0.4603550000000  0.5403060000000 1.0
C      1  0.4520940000000  0.4437610000000  0.4767380000000 1.0
C      1  0.4607860000000  0.4794570000000  0.4378980000000 1.0
C      1  0.4515280000000  0.5395740000000  0.4597340000000 1.0
C      1  0.4520310000000  0.5561680000000  0.5233010000000 1.0
C      1  0.4525860000000  0.5073780000000  0.4396630000000 1.0
C      1  0.4531750000000  0.4525470000000  0.4485030000000 1.0
C      1  0.4512500000000  0.4456310000000  0.5152150000000 1.0
C      1  0.4526470000000  0.4925530000000  0.5603760000000 1.0
C      1  0.4531480000000  0.5473840000000  0.5515360000000 1.0
C      1  0.4511580000000  0.5542970000000  0.4848260000000 1.0
END
