TITL C-9260-5597-24 2.10741401226954e-05 125000 -364.204922425858 0 0 60 (C1) n - 1
REM
REM in /home/bkarasulu/CARBON/AIRSS/Generating-Clusters/EDIP-Nigel-Params/Higher-Symm/Box-15A/Only-C60/SD-CG/HFTN-CG
REM
REM
REM
REM
REM
REM ./C.cell (414f73aa93bd7a1190c7fd0f31ff2f98)
REM
REM compiler GCC version 9.2.1 20190827 (Red Hat 9.2.1-1)
REM options -cpp -mtune=generic -march=x86-64 -g -O0 -fpre-include=/usr/include/finclude/math-vector-fortran.h
REM seed -1162160560 808679738 1703991463 -353618146 -609007371 1932363796 -1303813669 -967574404 1973304410 -1100621828 -1419057583 -946581520 1344114718 147128309 -1495301858 -847545483 -1988185285 -2035948585 93516828 581642492 -215149945 415881449 507915007 915079917 -743005365 1739313101 -986654419 -297370869 1735681944 1914887491 -143144450 1160163510 1076026802
REM
CELL 1.54180   50.00000   50.00000   50.00000   90.00000   90.00000   90.00000
LATT -1
SFAC C  
C      1  0.4342470000000  0.5300350000000  0.4945480000000 1.0
C      1  0.5584020000000  0.5403320000000  0.4943430000000 1.0
C      1  0.5072300000000  0.4288570000000  0.4959750000000 1.0
C      1  0.4818310000000  0.4429720000000  0.4911370000000 1.0
C      1  0.4594650000000  0.5440970000000  0.4906850000000 1.0
C      1  0.5593950000000  0.5112380000000  0.4897170000000 1.0
C      1  0.5419220000000  0.4556880000000  0.5126930000000 1.0
C      1  0.4420100000000  0.4880140000000  0.5134950000000 1.0
C      1  0.5185030000000  0.5575530000000  0.5149580000000 1.0
C      1  0.5248970000000  0.5056740000000  0.5162050000000 1.0
C      1  0.4946870000000  0.4777300000000  0.5146560000000 1.0
C      1  0.4849970000000  0.5179310000000  0.5147410000000 1.0
C      1  0.5632390000000  0.4722780000000  0.5228230000000 1.0
C      1  0.4469250000000  0.4616560000000  0.5238440000000 1.0
C      1  0.4922010000000  0.5657150000000  0.5243430000000 1.0
C      1  0.5549470000000  0.4395050000000  0.4898970000000 1.0
C      1  0.4220240000000  0.4831670000000  0.4904690000000 1.0
C      1  0.5251400000000  0.5758860000000  0.4911800000000 1.0
C      1  0.4640820000000  0.5187290000000  0.5678800000000 1.0
C      1  0.5385730000000  0.5038830000000  0.5670680000000 1.0
C      1  0.4879500000000  0.4696810000000  0.5674640000000 1.0
C      1  0.5224620000000  0.4764230000000  0.4993680000000 1.0
C      1  0.4694440000000  0.4947310000000  0.5001540000000 1.0
C      1  0.5113720000000  0.5302740000000  0.5022650000000 1.0
C      1  0.4861510000000  0.5168420000000  0.4266140000000 1.0
C      1  0.5129660000000  0.5059770000000  0.4287560000000 1.0
C      1  0.4996670000000  0.4801570000000  0.4268840000000 1.0
C      1  0.5002560000000  0.4810810000000  0.5448120000000 1.0
C      1  0.4801080000000  0.5207960000000  0.5446930000000 1.0
C      1  0.5198370000000  0.5018220000000  0.5464230000000 1.0
C      1  0.5255730000000  0.5123020000000  0.4547080000000 1.0
C      1  0.4995420000000  0.4651450000000  0.4512360000000 1.0
C      1  0.4701170000000  0.5199200000000  0.4503170000000 1.0
C      1  0.5625930000000  0.5206840000000  0.5339760000000 1.0
C      1  0.4892450000000  0.4390590000000  0.5353960000000 1.0
C      1  0.4457320000000  0.5468870000000  0.5340900000000 1.0
C      1  0.4672660000000  0.4436220000000  0.5166680000000 1.0
C      1  0.4663040000000  0.5580500000000  0.5154180000000 1.0
C      1  0.5679970000000  0.4989370000000  0.5150840000000 1.0
C      1  0.4757910000000  0.4536480000000  0.4638920000000 1.0
C      1  0.4711680000000  0.5457200000000  0.4638250000000 1.0
C      1  0.5510580000000  0.5004230000000  0.4630510000000 1.0
C      1  0.5284750000000  0.4341090000000  0.4762990000000 1.0
C      1  0.4297160000000  0.5079900000000  0.4757710000000 1.0
C      1  0.5412150000000  0.5552640000000  0.4760740000000 1.0
C      1  0.4285420000000  0.4606390000000  0.4744060000000 1.0
C      1  0.5020850000000  0.5820410000000  0.4756450000000 1.0
C      1  0.5709000000000  0.4561100000000  0.4730820000000 1.0
C      1  0.5177150000000  0.5368040000000  0.4706140000000 1.0
C      1  0.5238630000000  0.4631360000000  0.4685430000000 1.0
C      1  0.4574640000000  0.4982580000000  0.4679680000000 1.0
C      1  0.4308080000000  0.5237740000000  0.5227430000000 1.0
C      1  0.5543980000000  0.5461860000000  0.5225890000000 1.0
C      1  0.5150520000000  0.4312450000000  0.5240130000000 1.0
C      1  0.4545250000000  0.5438640000000  0.5614410000000 1.0
C      1  0.5622340000000  0.5157430000000  0.5616860000000 1.0
C      1  0.4853620000000  0.4431940000000  0.5629240000000 1.0
C      1  0.4513520000000  0.4695330000000  0.4599160000000 1.0
C      1  0.4976750000000  0.5576920000000  0.4614710000000 1.0
C      1  0.5513020000000  0.4712940000000  0.4590640000000 1.0
END
