TITL C-9265-7156-45 2.80023300164729e-06 125000 -365.963959141939 0 0 60 (S10) n - 1
REM
REM in /home/bkarasulu/CARBON/AIRSS/Generating-Clusters/EDIP-Nigel-Params/Higher-Symm/Box-15A/Only-C60/SD-CG/HFTN-CG
REM
REM
REM
REM
REM
REM ./C.cell (414f73aa93bd7a1190c7fd0f31ff2f98)
REM
REM compiler GCC version 9.2.1 20190827 (Red Hat 9.2.1-1)
REM options -cpp -mtune=generic -march=x86-64 -g -O0 -fpre-include=/usr/include/finclude/math-vector-fortran.h
REM seed 1621566913 -776296704 555643716 1077101940 1629670218 -1258557862 -804862009 1143027807 157873727 1712021142 727461444 -942881287 -191983890 1117340249 469744159 722866467 -1294855042 -1755774523 1492140093 -267104865 1755950718 -1371178935 -220840193 -1960415412 1852195454 1427467972 -517833030 947101868 -841308498 1392448841 -1029716725 1724812220 -1366548899
REM
CELL 1.54180   50.00000   50.00000   50.00000   90.00000   90.00000   90.00000
LATT -1
SFAC C  
C      1  0.5222040000000  0.4809820000000  0.5142120000000 1.0
C      1  0.5096040000000  0.5190190000000  0.5245500000000 1.0
C      1  0.4933450000000  0.4809780000000  0.5255050000000 1.0
C      1  0.4796190000000  0.5190160000000  0.5167240000000 1.0
C      1  0.4736870000000  0.4809770000000  0.5015490000000 1.0
C      1  0.4777960000000  0.5190180000000  0.4857880000000 1.0
C      1  0.4903960000000  0.4809810000000  0.4754500000000 1.0
C      1  0.5066550000000  0.5190220000000  0.4744950000000 1.0
C      1  0.5203810000000  0.4809840000000  0.4832760000000 1.0
C      1  0.5263130000000  0.5190230000000  0.4984510000000 1.0
C      1  0.4931500000000  0.4344400000000  0.5252390000000 1.0
C      1  0.4796050000000  0.5655540000000  0.5163960000000 1.0
C      1  0.4738810000000  0.4344390000000  0.5012730000000 1.0
C      1  0.4781030000000  0.5655560000000  0.4856820000000 1.0
C      1  0.4907190000000  0.4344430000000  0.4755410000000 1.0
C      1  0.5068500000000  0.5655600000000  0.4747610000000 1.0
C      1  0.5203950000000  0.4344460000000  0.4836040000000 1.0
C      1  0.5261190000000  0.5655610000000  0.4987270000000 1.0
C      1  0.5218970000000  0.4344440000000  0.5143180000000 1.0
C      1  0.5092810000000  0.5655570000000  0.5244590000000 1.0
C      1  0.5599870000000  0.5010540000000  0.4521200000000 1.0
C      1  0.5766740000000  0.4989680000000  0.4965240000000 1.0
C      1  0.5640730000000  0.5010480000000  0.5422560000000 1.0
C      1  0.5269990000000  0.4989550000000  0.5718470000000 1.0
C      1  0.4796120000000  0.5010340000000  0.5739950000000 1.0
C      1  0.4400130000000  0.4989460000000  0.5478800000000 1.0
C      1  0.4233260000000  0.5010320000000  0.5034760000000 1.0
C      1  0.4359270000000  0.4989520000000  0.4577440000000 1.0
C      1  0.4730010000000  0.5010450000000  0.4281530000000 1.0
C      1  0.5203880000000  0.4989660000000  0.4260050000000 1.0
C      1  0.4959990000000  0.4858730000000  0.4252030000000 1.0
C      1  0.5407240000000  0.5141430000000  0.4371370000000 1.0
C      1  0.5699000000000  0.4858790000000  0.4730790000000 1.0
C      1  0.5723710000000  0.5141410000000  0.5193080000000 1.0
C      1  0.5472040000000  0.4858690000000  0.5581580000000 1.0
C      1  0.5040010000000  0.5141270000000  0.5747970000000 1.0
C      1  0.4592760000000  0.4858570000000  0.5628630000000 1.0
C      1  0.4301000000000  0.5141210000000  0.5269210000000 1.0
C      1  0.4276290000000  0.4858590000000  0.4806920000000 1.0
C      1  0.4527960000000  0.5141310000000  0.4418420000000 1.0
C      1  0.4367930000000  0.5412080000000  0.5257620000000 1.0
C      1  0.4337340000000  0.4587740000000  0.4836870000000 1.0
C      1  0.4559660000000  0.5412170000000  0.4478550000000 1.0
C      1  0.4950380000000  0.4587860000000  0.4319290000000 1.0
C      1  0.5359850000000  0.5412280000000  0.4420150000000 1.0
C      1  0.5632070000000  0.4587920000000  0.4742380000000 1.0
C      1  0.5662660000000  0.5412260000000  0.5163130000000 1.0
C      1  0.5440340000000  0.4587830000000  0.5521450000000 1.0
C      1  0.5049620000000  0.5412140000000  0.5680710000000 1.0
C      1  0.4640150000000  0.4587720000000  0.5579850000000 1.0
C      1  0.4882030000000  0.4576840000000  0.5437830000000 1.0
C      1  0.4647090000000  0.5423040000000  0.5284890000000 1.0
C      1  0.4547150000000  0.4576830000000  0.5023020000000 1.0
C      1  0.4619990000000  0.5423080000000  0.4752480000000 1.0
C      1  0.4838170000000  0.4576910000000  0.4576360000000 1.0
C      1  0.5117970000000  0.5423160000000  0.4562170000000 1.0
C      1  0.5352910000000  0.4576960000000  0.4715110000000 1.0
C      1  0.5452850000000  0.5423170000000  0.4976980000000 1.0
C      1  0.5380010000000  0.4576920000000  0.5247520000000 1.0
C      1  0.5161830000000  0.5423090000000  0.5423640000000 1.0
END
