TITL C-9255-4564-4 -1.47223833072399e-06 125000 -361.822004763569 0 0 60 (C1) n - 1
REM
REM in /home/bkarasulu/CARBON/AIRSS/Generating-Clusters/EDIP-Nigel-Params/Higher-Symm/Box-15A/Only-C60/SD-CG/HFTN-CG
REM
REM
REM
REM
REM
REM ./C.cell (414f73aa93bd7a1190c7fd0f31ff2f98)
REM
REM compiler GCC version 9.2.1 20190827 (Red Hat 9.2.1-1)
REM options -cpp -mtune=generic -march=x86-64 -g -O0 -fpre-include=/usr/include/finclude/math-vector-fortran.h
REM seed -1928682816 -1531390432 -791904544 -595311361 -954302170 -1469990955 -1918680596 -184752795 -1004887356 -851374271 -1908276663 -1758072012 1360295293 1010723758 1106214832 2125239126 -723481475 -1466996584 2032446470 -1655833232 281306249 2014925682 -1606348588 -1195917129 1978831501 -887595889 191702567 1933194588 -166565529 -1693534788 926154442 -1604948066 -1886091320
REM
CELL 1.54180   50.00000   50.00000   50.00000   90.00000   90.00000   90.00000
LATT -1
SFAC C  
C      1  0.5583040000000  0.5188920000000  0.5290540000000 1.0
C      1  0.4437170000000  0.5165180000000  0.4685110000000 1.0
C      1  0.4453900000000  0.4821070000000  0.5344710000000 1.0
C      1  0.5572570000000  0.4842490000000  0.4631490000000 1.0
C      1  0.5359840000000  0.5195120000000  0.5511930000000 1.0
C      1  0.4686980000000  0.5155390000000  0.4513260000000 1.0
C      1  0.5361520000000  0.4846540000000  0.4418410000000 1.0
C      1  0.4691250000000  0.4844320000000  0.5551620000000 1.0
C      1  0.5073440000000  0.5254730000000  0.4800950000000 1.0
C      1  0.4891390000000  0.5219030000000  0.5221820000000 1.0
C      1  0.4957560000000  0.4765760000000  0.4774990000000 1.0
C      1  0.4871240000000  0.4763490000000  0.5213090000000 1.0
C      1  0.4781280000000  0.5246910000000  0.4932880000000 1.0
C      1  0.5182590000000  0.5153910000000  0.5106360000000 1.0
C      1  0.4729170000000  0.4722440000000  0.4954930000000 1.0
C      1  0.5153480000000  0.4819180000000  0.5106410000000 1.0
C      1  0.4705570000000  0.5538270000000  0.5502880000000 1.0
C      1  0.5313150000000  0.5542700000000  0.4509650000000 1.0
C      1  0.5374060000000  0.4547280000000  0.5540340000000 1.0
C      1  0.4716500000000  0.4469940000000  0.4487360000000 1.0
C      1  0.5568040000000  0.5462780000000  0.4591930000000 1.0
C      1  0.4464100000000  0.5425580000000  0.5413440000000 1.0
C      1  0.5470760000000  0.4468850000000  0.5289610000000 1.0
C      1  0.4463030000000  0.4482520000000  0.4634970000000 1.0
C      1  0.5305520000000  0.5471820000000  0.5091790000000 1.0
C      1  0.4692570000000  0.5564590000000  0.4916650000000 1.0
C      1  0.4669880000000  0.4414340000000  0.4956890000000 1.0
C      1  0.5272360000000  0.4528160000000  0.5068890000000 1.0
C      1  0.4875780000000  0.5533090000000  0.5255620000000 1.0
C      1  0.5143240000000  0.5563550000000  0.4752810000000 1.0
C      1  0.5028900000000  0.4475730000000  0.4713190000000 1.0
C      1  0.4868260000000  0.4490200000000  0.5348030000000 1.0
C      1  0.5156510000000  0.5057810000000  0.4475770000000 1.0
C      1  0.4889920000000  0.5095880000000  0.5512740000000 1.0
C      1  0.4893590000000  0.4917140000000  0.4512140000000 1.0
C      1  0.5160350000000  0.4975530000000  0.5517140000000 1.0
C      1  0.4459520000000  0.5024310000000  0.5142060000000 1.0
C      1  0.5564350000000  0.5052080000000  0.4838230000000 1.0
C      1  0.4409990000000  0.4926370000000  0.4871110000000 1.0
C      1  0.5576700000000  0.4949560000000  0.5106370000000 1.0
C      1  0.5129100000000  0.5343910000000  0.4368770000000 1.0
C      1  0.4899860000000  0.5366680000000  0.5664400000000 1.0
C      1  0.4891790000000  0.4662570000000  0.4343560000000 1.0
C      1  0.5168830000000  0.4710510000000  0.5643340000000 1.0
C      1  0.4375710000000  0.5295540000000  0.5180130000000 1.0
C      1  0.5658510000000  0.5323970000000  0.4818570000000 1.0
C      1  0.4314930000000  0.4633720000000  0.4847230000000 1.0
C      1  0.5638820000000  0.4651490000000  0.5090170000000 1.0
C      1  0.5200940000000  0.4592200000000  0.4382980000000 1.0
C      1  0.4885450000000  0.4597710000000  0.5621970000000 1.0
C      1  0.4840110000000  0.5412280000000  0.4452210000000 1.0
C      1  0.5191590000000  0.5448140000000  0.5570070000000 1.0
C      1  0.4389790000000  0.4563760000000  0.5190410000000 1.0
C      1  0.5583790000000  0.4583960000000  0.4778620000000 1.0
C      1  0.4421120000000  0.5405290000000  0.4896020000000 1.0
C      1  0.5602870000000  0.5431920000000  0.5098130000000 1.0
C      1  0.4856300000000  0.5622000000000  0.4673070000000 1.0
C      1  0.4621530000000  0.4351370000000  0.5253220000000 1.0
C      1  0.5337510000000  0.4414520000000  0.4701580000000 1.0
C      1  0.5162380000000  0.5605900000000  0.5317440000000 1.0
END
