TITL C-9261-551-221 -9.84447878219334e-07 125000 -360.155020563024 0 0 60 (C1) n - 1
REM
REM in /home/bkarasulu/CARBON/AIRSS/Generating-Clusters/EDIP-Nigel-Params/Higher-Symm/Box-15A/Only-C60/SD-CG/HFTN-CG
REM
REM
REM
REM
REM
REM ./C.cell (414f73aa93bd7a1190c7fd0f31ff2f98)
REM
REM compiler GCC version 9.2.1 20190827 (Red Hat 9.2.1-1)
REM options -cpp -mtune=generic -march=x86-64 -g -O0 -fpre-include=/usr/include/finclude/math-vector-fortran.h
REM seed 1413883010 1190061711 -2043733308 72838219 1198222448 1251047843 -1794352902 -1497490412 -282208730 501872835 -347774661 -695715834 -829783382 1638837617 1833347255 368636227 2115291940 -745484095 -374859407 -319758904 878558928 -831529772 1907199888 112538296 -1405941860 -393772479 1432222213 -387573668 -500898138 1646620421 354446907 -1937055747 -246393108
REM
CELL 1.54180   50.00000   50.00000   50.00000   90.00000   90.00000   90.00000
LATT -1
SFAC C  
C      1  0.5642300000000  0.4801810000000  0.4598790000000 1.0
C      1  0.4824760000000  0.4222780000000  0.4632740000000 1.0
C      1  0.4314810000000  0.5182610000000  0.4572760000000 1.0
C      1  0.5165650000000  0.5785780000000  0.4701550000000 1.0
C      1  0.5799200000000  0.4819150000000  0.5356170000000 1.0
C      1  0.4802740000000  0.4393960000000  0.5385910000000 1.0
C      1  0.4173390000000  0.5189430000000  0.5333420000000 1.0
C      1  0.5222460000000  0.5736600000000  0.5427670000000 1.0
C      1  0.5177830000000  0.5258970000000  0.4947280000000 1.0
C      1  0.5056020000000  0.4749130000000  0.4883860000000 1.0
C      1  0.4781980000000  0.4824570000000  0.4965670000000 1.0
C      1  0.4888490000000  0.5244020000000  0.4885030000000 1.0
C      1  0.5246170000000  0.5101200000000  0.5187220000000 1.0
C      1  0.5250640000000  0.4819340000000  0.5087620000000 1.0
C      1  0.4697500000000  0.4925540000000  0.5232080000000 1.0
C      1  0.4725410000000  0.5235060000000  0.5148840000000 1.0
C      1  0.4298630000000  0.5447550000000  0.4620380000000 1.0
C      1  0.5403170000000  0.5768270000000  0.4840420000000 1.0
C      1  0.5714260000000  0.4608790000000  0.4787230000000 1.0
C      1  0.4633260000000  0.4269410000000  0.4827940000000 1.0
C      1  0.4264590000000  0.5431890000000  0.5260990000000 1.0
C      1  0.5405870000000  0.5736040000000  0.5217680000000 1.0
C      1  0.5765860000000  0.4622810000000  0.5163890000000 1.0
C      1  0.4608030000000  0.4313320000000  0.5203060000000 1.0
C      1  0.4469790000000  0.4509410000000  0.4827180000000 1.0
C      1  0.4492770000000  0.5509520000000  0.4812760000000 1.0
C      1  0.5530710000000  0.5507520000000  0.4858340000000 1.0
C      1  0.5502040000000  0.4426920000000  0.4864770000000 1.0
C      1  0.4399690000000  0.4506530000000  0.5124270000000 1.0
C      1  0.4476900000000  0.5392050000000  0.5082370000000 1.0
C      1  0.5558000000000  0.5495680000000  0.5153960000000 1.0
C      1  0.5518040000000  0.4470320000000  0.5161780000000 1.0
C      1  0.4774710000000  0.5481170000000  0.4715740000000 1.0
C      1  0.5370370000000  0.5225270000000  0.4711610000000 1.0
C      1  0.5239990000000  0.4459090000000  0.4716480000000 1.0
C      1  0.4585980000000  0.4784010000000  0.4744420000000 1.0
C      1  0.4921390000000  0.5358500000000  0.5336390000000 1.0
C      1  0.5519580000000  0.5225860000000  0.5301430000000 1.0
C      1  0.5261540000000  0.4598030000000  0.5281100000000 1.0
C      1  0.4417000000000  0.4776270000000  0.5278880000000 1.0
C      1  0.4982570000000  0.5643130000000  0.5320740000000 1.0
C      1  0.5754330000000  0.5062190000000  0.5230210000000 1.0
C      1  0.5044880000000  0.4387620000000  0.5249430000000 1.0
C      1  0.4177880000000  0.4936490000000  0.5216100000000 1.0
C      1  0.4916700000000  0.5729150000000  0.4807240000000 1.0
C      1  0.5608050000000  0.5037550000000  0.4742240000000 1.0
C      1  0.5070080000000  0.4229680000000  0.4762820000000 1.0
C      1  0.4340590000000  0.4959490000000  0.4734530000000 1.0
C      1  0.4776960000000  0.4856480000000  0.4510780000000 1.0
C      1  0.4871100000000  0.5164240000000  0.4509670000000 1.0
C      1  0.5178150000000  0.5094790000000  0.4506740000000 1.0
C      1  0.5087520000000  0.4795620000000  0.4571520000000 1.0
C      1  0.4899360000000  0.4896560000000  0.5481930000000 1.0
C      1  0.5005780000000  0.5173190000000  0.5544380000000 1.0
C      1  0.5293810000000  0.5072760000000  0.5571120000000 1.0
C      1  0.5192430000000  0.4772810000000  0.5526690000000 1.0
C      1  0.5782200000000  0.5072670000000  0.4955180000000 1.0
C      1  0.5062640000000  0.4206540000000  0.5038830000000 1.0
C      1  0.4154620000000  0.4930000000000  0.4938380000000 1.0
C      1  0.4898810000000  0.5764850000000  0.5083960000000 1.0
END
