TITL C-9258-7861-260 1.61028191943021e-07 125000 -371.607972971743 0 0 60 (C1) n - 1
REM
REM in /home/bkarasulu/CARBON/AIRSS/Generating-Clusters/EDIP-Nigel-Params/Higher-Symm/Box-15A/Only-C60/SD-CG/HFTN-CG
REM
REM
REM
REM
REM
REM ./C.cell (414f73aa93bd7a1190c7fd0f31ff2f98)
REM
REM compiler GCC version 9.2.1 20190827 (Red Hat 9.2.1-1)
REM options -cpp -mtune=generic -march=x86-64 -g -O0 -fpre-include=/usr/include/finclude/math-vector-fortran.h
REM seed 1661977378 2047275406 -2032510228 350679721 1101099110 -1448742055 -542974862 -315204703 234154551 -211500269 507830503 1002839500 -1701562357 1855546422 -570645060 -2109891072 1210918919 -780018495 -856500203 16834576 2049603648 -2106790674 -24683870 -1756306126 1877992134 -1592053551 1876260613 -1542255954 1407622286 1850816470 880121542 -308227297 1262186374
REM
CELL 1.54180   50.00000   50.00000   50.00000   90.00000   90.00000   90.00000
LATT -1
SFAC C  
C      1  0.4328340000000  0.4482630000000  0.5226310000000 1.0
C      1  0.4330010000000  0.5491050000000  0.4772250000000 1.0
C      1  0.4626490000000  0.4730540000000  0.5653040000000 1.0
C      1  0.4625530000000  0.5276690000000  0.4351350000000 1.0
C      1  0.4610930000000  0.5546690000000  0.4750530000000 1.0
C      1  0.4612710000000  0.4451950000000  0.5243630000000 1.0
C      1  0.4776460000000  0.5509100000000  0.5416870000000 1.0
C      1  0.4779420000000  0.4489200000000  0.4572250000000 1.0
C      1  0.5562430000000  0.5240420000000  0.5531440000000 1.0
C      1  0.5552340000000  0.4760390000000  0.4465810000000 1.0
C      1  0.5000470000000  0.5359140000000  0.5517430000000 1.0
C      1  0.5000650000000  0.4647200000000  0.4478710000000 1.0
C      1  0.4549130000000  0.5307120000000  0.5179410000000 1.0
C      1  0.4525580000000  0.4670540000000  0.4803670000000 1.0
C      1  0.4948160000000  0.4916110000000  0.4379820000000 1.0
C      1  0.4950870000000  0.5093670000000  0.5631620000000 1.0
C      1  0.4344960000000  0.4869890000000  0.5222290000000 1.0
C      1  0.4307430000000  0.5104820000000  0.4775560000000 1.0
C      1  0.5349740000000  0.5180510000000  0.5177300000000 1.0
C      1  0.5329700000000  0.4836150000000  0.4829300000000 1.0
C      1  0.5140940000000  0.5675490000000  0.4681610000000 1.0
C      1  0.5141640000000  0.4331000000000  0.5322560000000 1.0
C      1  0.5362230000000  0.5287620000000  0.4887040000000 1.0
C      1  0.5332110000000  0.4732200000000  0.5118950000000 1.0
C      1  0.5150480000000  0.5371090000000  0.4306780000000 1.0
C      1  0.5144070000000  0.4636150000000  0.5702530000000 1.0
C      1  0.4674340000000  0.4995470000000  0.5570610000000 1.0
C      1  0.4666380000000  0.5010340000000  0.4432710000000 1.0
C      1  0.4728280000000  0.4510910000000  0.5507530000000 1.0
C      1  0.4726770000000  0.5501740000000  0.4486450000000 1.0
C      1  0.5167600000000  0.4890170000000  0.5561330000000 1.0
C      1  0.5175260000000  0.5117030000000  0.4446710000000 1.0
C      1  0.5154000000000  0.5109140000000  0.4763210000000 1.0
C      1  0.5113880000000  0.4881220000000  0.5258200000000 1.0
C      1  0.5469280000000  0.4959360000000  0.5543180000000 1.0
C      1  0.5481600000000  0.5046030000000  0.4454040000000 1.0
C      1  0.5682650000000  0.4727340000000  0.4719230000000 1.0
C      1  0.5710400000000  0.5257230000000  0.5282180000000 1.0
C      1  0.5257420000000  0.5413670000000  0.5370430000000 1.0
C      1  0.5254000000000  0.4600350000000  0.4632560000000 1.0
C      1  0.4880120000000  0.4403180000000  0.4830570000000 1.0
C      1  0.4882810000000  0.5599970000000  0.5161790000000 1.0
C      1  0.5292810000000  0.5579450000000  0.4893660000000 1.0
C      1  0.5283450000000  0.4437390000000  0.5107900000000 1.0
C      1  0.4745160000000  0.4604720000000  0.5014590000000 1.0
C      1  0.4760620000000  0.5396490000000  0.4970520000000 1.0
C      1  0.4842280000000  0.4903930000000  0.5108660000000 1.0
C      1  0.4889650000000  0.5121440000000  0.4901630000000 1.0
C      1  0.5569340000000  0.4815520000000  0.5292920000000 1.0
C      1  0.5594330000000  0.5185450000000  0.4706970000000 1.0
C      1  0.4295700000000  0.4671830000000  0.5006170000000 1.0
C      1  0.4299010000000  0.5305550000000  0.4997930000000 1.0
C      1  0.4539200000000  0.4948810000000  0.4696140000000 1.0
C      1  0.4601920000000  0.5017250000000  0.5275730000000 1.0
C      1  0.5746770000000  0.4977120000000  0.4849500000000 1.0
C      1  0.5751160000000  0.5000950000000  0.5152170000000 1.0
C      1  0.5012630000000  0.5530680000000  0.4483680000000 1.0
C      1  0.5011710000000  0.4472850000000  0.5522650000000 1.0
C      1  0.5179420000000  0.5624180000000  0.5164210000000 1.0
C      1  0.5177280000000  0.4385870000000  0.4836150000000 1.0
END
