TITL C-9266-5713-38 -2.79990838662671e-06 125000 -350.382100284981 0 0 60 (D3h) n - 1
REM
REM in /home/bkarasulu/CARBON/AIRSS/Generating-Clusters/EDIP-Nigel-Params/Higher-Symm/Box-15A/Only-C60/SD-CG/HFTN-CG
REM
REM
REM
REM
REM
REM ./C.cell (414f73aa93bd7a1190c7fd0f31ff2f98)
REM
REM compiler GCC version 9.2.1 20190827 (Red Hat 9.2.1-1)
REM options -cpp -mtune=generic -march=x86-64 -g -O0 -fpre-include=/usr/include/finclude/math-vector-fortran.h
REM seed -803078062 -1772223838 897455434 -1303344229 1856149521 -553305561 -286235049 -1526511840 -1227546373 -1620347281 -137885991 -781718585 1031185763 -1997796587 -974193592 298212505 -942692925 661464471 1067337221 -1097999437 -844283813 314461301 -525442035 12489154 -471972141 1442190705 1532741591 -178049317 1692623051 1089054038 -1621775162 1261843203 -44511002
REM
CELL 1.54180   50.00000   50.00000   50.00000   90.00000   90.00000   90.00000
LATT -1
SFAC C  
C      1  0.4866650000000  0.4041110000000  0.4615890000000 1.0
C      1  0.4236120000000  0.5595110000000  0.4616430000000 1.0
C      1  0.5897190000000  0.5364160000000  0.4616290000000 1.0
C      1  0.4866680000000  0.4040850000000  0.5383480000000 1.0
C      1  0.4236150000000  0.5594860000000  0.5384020000000 1.0
C      1  0.5897220000000  0.5363910000000  0.5383880000000 1.0
C      1  0.5134150000000  0.4041220000000  0.4615880000000 1.0
C      1  0.5763340000000  0.5595770000000  0.4616370000000 1.0
C      1  0.4102470000000  0.5363390000000  0.4616350000000 1.0
C      1  0.5134180000000  0.4040970000000  0.5383480000000 1.0
C      1  0.5763370000000  0.5595520000000  0.5383970000000 1.0
C      1  0.4102500000000  0.5363140000000  0.5383950000000 1.0
C      1  0.4392530000000  0.5031830000000  0.4856060000000 1.0
C      1  0.5331250000000  0.5510230000000  0.4856180000000 1.0
C      1  0.5276200000000  0.4458080000000  0.4855840000000 1.0
C      1  0.4392540000000  0.5031730000000  0.5144000000000 1.0
C      1  0.5331260000000  0.5510140000000  0.5144130000000 1.0
C      1  0.5276210000000  0.4457990000000  0.5143790000000 1.0
C      1  0.5607430000000  0.5032350000000  0.4856020000000 1.0
C      1  0.4668300000000  0.5509950000000  0.4856210000000 1.0
C      1  0.4724250000000  0.4457840000000  0.4855860000000 1.0
C      1  0.5607440000000  0.5032260000000  0.5143960000000 1.0
C      1  0.4668310000000  0.5509850000000  0.5144150000000 1.0
C      1  0.4724260000000  0.4457750000000  0.5143800000000 1.0
C      1  0.5394650000000  0.4930220000000  0.5566630000000 1.0
C      1  0.4742430000000  0.4692850000000  0.5566570000000 1.0
C      1  0.4862980000000  0.5376370000000  0.5566790000000 1.0
C      1  0.5394610000000  0.4930590000000  0.4433300000000 1.0
C      1  0.4742390000000  0.4693230000000  0.4433240000000 1.0
C      1  0.4862940000000  0.5376740000000  0.4433460000000 1.0
C      1  0.4605450000000  0.4929880000000  0.5566660000000 1.0
C      1  0.5257870000000  0.4693070000000  0.5566560000000 1.0
C      1  0.5136740000000  0.5376490000000  0.5566780000000 1.0
C      1  0.4605410000000  0.4930250000000  0.4433320000000 1.0
C      1  0.5257830000000  0.4693450000000  0.4433220000000 1.0
C      1  0.5136700000000  0.5376860000000  0.4433450000000 1.0
C      1  0.5306170000000  0.4217520000000  0.5279040000000 1.0
C      1  0.4169360000000  0.5125950000000  0.5279380000000 1.0
C      1  0.5524490000000  0.5656250000000  0.5279500000000 1.0
C      1  0.5306160000000  0.4217710000000  0.4720430000000 1.0
C      1  0.4169340000000  0.5126140000000  0.4720760000000 1.0
C      1  0.5524470000000  0.5656430000000  0.4720890000000 1.0
C      1  0.4694520000000  0.4217260000000  0.5279060000000 1.0
C      1  0.5830550000000  0.5126670000000  0.5279320000000 1.0
C      1  0.4474960000000  0.5655790000000  0.5279540000000 1.0
C      1  0.4694500000000  0.4217440000000  0.4720450000000 1.0
C      1  0.5830530000000  0.5126860000000  0.4720710000000 1.0
C      1  0.4474940000000  0.5655980000000  0.4720930000000 1.0
C      1  0.4650640000000  0.5021990000000  0.4707710000000 1.0
C      1  0.5193620000000  0.5291690000000  0.4707780000000 1.0
C      1  0.5155700000000  0.4686610000000  0.4707580000000 1.0
C      1  0.4650660000000  0.5021790000000  0.5292330000000 1.0
C      1  0.5193640000000  0.5291500000000  0.5292400000000 1.0
C      1  0.5155720000000  0.4686420000000  0.5292200000000 1.0
C      1  0.5349320000000  0.5022290000000  0.4707680000000 1.0
C      1  0.4806110000000  0.5291530000000  0.4707790000000 1.0
C      1  0.4844550000000  0.4686470000000  0.4707590000000 1.0
C      1  0.5349340000000  0.5022100000000  0.5292310000000 1.0
C      1  0.4806130000000  0.5291330000000  0.5292420000000 1.0
C      1  0.4844570000000  0.4686280000000  0.5292210000000 1.0
END
