TITL C-9259-5960-243 -0.000107157932473397 125000 -361.874635652981 0 0 60 (C1) n - 1
REM
REM in /home/bkarasulu/CARBON/AIRSS/Generating-Clusters/EDIP-Nigel-Params/Higher-Symm/Box-15A/Only-C60/SD-CG/HFTN-CG
REM
REM
REM
REM
REM
REM ./C.cell (414f73aa93bd7a1190c7fd0f31ff2f98)
REM
REM compiler GCC version 9.2.1 20190827 (Red Hat 9.2.1-1)
REM options -cpp -mtune=generic -march=x86-64 -g -O0 -fpre-include=/usr/include/finclude/math-vector-fortran.h
REM seed -1611129875 -1791083726 1706084872 30984203 614284733 1672847102 680427918 1017618294 -33280424 1215663675 -462990309 458509165 -386888670 -989324202 -486049894 682478374 1976394628 29197979 -1538928593 427099606 -730911280 115008926 -781064013 1826214193 -2014933403 -748200201 950577453 760646378 1540777709 -252667100 1153211618 -1023932783 -2137667542
REM
CELL 1.54180   50.00000   50.00000   50.00000   90.00000   90.00000   90.00000
LATT -1
SFAC C  
C      1  0.4815770000000  0.4883500000000  0.5073230000000 1.0
C      1  0.5045510000000  0.4766420000000  0.5229690000000 1.0
C      1  0.5247790000000  0.5058870000000  0.4861630000000 1.0
C      1  0.4956060000000  0.4967500000000  0.4800650000000 1.0
C      1  0.4706130000000  0.5955200000000  0.5288770000000 1.0
C      1  0.5330770000000  0.5903100000000  0.5317430000000 1.0
C      1  0.5318860000000  0.6004830000000  0.4710670000000 1.0
C      1  0.4702800000000  0.5988870000000  0.4680290000000 1.0
C      1  0.4732910000000  0.5109330000000  0.4650830000000 1.0
C      1  0.4681860000000  0.5067690000000  0.5275730000000 1.0
C      1  0.5208070000000  0.4990740000000  0.5359830000000 1.0
C      1  0.5379000000000  0.5144220000000  0.4614060000000 1.0
C      1  0.4970080000000  0.4568970000000  0.5440350000000 1.0
C      1  0.5426880000000  0.4819040000000  0.4967130000000 1.0
C      1  0.5000300000000  0.4712680000000  0.4622830000000 1.0
C      1  0.4611100000000  0.4664010000000  0.5022410000000 1.0
C      1  0.4368810000000  0.4424650000000  0.5403080000000 1.0
C      1  0.5443530000000  0.4374070000000  0.5532300000000 1.0
C      1  0.5546210000000  0.4437830000000  0.4673220000000 1.0
C      1  0.4642540000000  0.4401330000000  0.4481130000000 1.0
C      1  0.4603210000000  0.4237220000000  0.4829990000000 1.0
C      1  0.4683210000000  0.4203690000000  0.5448380000000 1.0
C      1  0.5368350000000  0.4371670000000  0.5154040000000 1.0
C      1  0.5190590000000  0.4282370000000  0.4675420000000 1.0
C      1  0.5040830000000  0.4488960000000  0.4822330000000 1.0
C      1  0.4782690000000  0.4407340000000  0.4991900000000 1.0
C      1  0.4880720000000  0.4321310000000  0.5276480000000 1.0
C      1  0.5222060000000  0.4601610000000  0.5037390000000 1.0
C      1  0.4427520000000  0.4413860000000  0.4672550000000 1.0
C      1  0.4563770000000  0.4410590000000  0.5623110000000 1.0
C      1  0.5603130000000  0.4466590000000  0.5300680000000 1.0
C      1  0.5343380000000  0.4417760000000  0.4466390000000 1.0
C      1  0.5246940000000  0.4575660000000  0.5598600000000 1.0
C      1  0.5590510000000  0.4718030000000  0.4736870000000 1.0
C      1  0.4757420000000  0.4665730000000  0.4455760000000 1.0
C      1  0.4418530000000  0.4669660000000  0.5258530000000 1.0
C      1  0.4544850000000  0.4862520000000  0.5448090000000 1.0
C      1  0.5398400000000  0.4827370000000  0.5503270000000 1.0
C      1  0.5476650000000  0.4880260000000  0.4511830000000 1.0
C      1  0.4569120000000  0.4875770000000  0.4552030000000 1.0
C      1  0.4787620000000  0.5315610000000  0.4474980000000 1.0
C      1  0.4521490000000  0.5277000000000  0.5191610000000 1.0
C      1  0.5122820000000  0.5219080000000  0.5493900000000 1.0
C      1  0.5568460000000  0.5345640000000  0.4645640000000 1.0
C      1  0.5123230000000  0.5713520000000  0.5353600000000 1.0
C      1  0.5410530000000  0.5775300000000  0.4847030000000 1.0
C      1  0.4890340000000  0.5788030000000  0.4613070000000 1.0
C      1  0.4631670000000  0.5757560000000  0.5101220000000 1.0
C      1  0.4444100000000  0.4700120000000  0.4769330000000 1.0
C      1  0.4725820000000  0.4667620000000  0.5602410000000 1.0
C      1  0.5582230000000  0.4763240000000  0.5276350000000 1.0
C      1  0.5245690000000  0.4701120000000  0.4433510000000 1.0
C      1  0.5457070000000  0.5943710000000  0.5068900000000 1.0
C      1  0.5074860000000  0.5998190000000  0.4570540000000 1.0
C      1  0.4568210000000  0.5970360000000  0.4926370000000 1.0
C      1  0.4956410000000  0.5933790000000  0.5415080000000 1.0
C      1  0.5138040000000  0.5484500000000  0.5505320000000 1.0
C      1  0.5588210000000  0.5593620000000  0.4740910000000 1.0
C      1  0.4839050000000  0.5574850000000  0.4446420000000 1.0
C      1  0.4477270000000  0.5536310000000  0.5154890000000 1.0
END
