TITL C-9260-5597-88 -2.28509974559059e-05 125000 -364.072857446851 0 0 60 (C1) n - 1
REM
REM in /home/bkarasulu/CARBON/AIRSS/Generating-Clusters/EDIP-Nigel-Params/Higher-Symm/Box-15A/Only-C60/SD-CG/HFTN-CG
REM
REM
REM
REM
REM
REM ./C.cell (414f73aa93bd7a1190c7fd0f31ff2f98)
REM
REM compiler GCC version 9.2.1 20190827 (Red Hat 9.2.1-1)
REM options -cpp -mtune=generic -march=x86-64 -g -O0 -fpre-include=/usr/include/finclude/math-vector-fortran.h
REM seed -1472362680 1079971651 564910055 2027345173 -50595977 -1244444738 1606476117 -1582775460 1919997259 297242815 -836213224 -1442732127 -61462396 543380406 1270922513 1002807019 -1692735883 -240014966 -642918087 -1736163096 -227894531 770162202 -249260523 381456503 -1284580663 49063784 1711609116 486490108 -1525796480 606988462 -327109838 277197550 1771909854
REM
CELL 1.54180   50.00000   50.00000   50.00000   90.00000   90.00000   90.00000
LATT -1
SFAC C  
C      1  0.4921950000000  0.5703120000000  0.5147150000000 1.0
C      1  0.5065690000000  0.4307550000000  0.5137720000000 1.0
C      1  0.4918700000000  0.5700630000000  0.4865380000000 1.0
C      1  0.5068630000000  0.4297470000000  0.4856960000000 1.0
C      1  0.5356820000000  0.5120340000000  0.5263520000000 1.0
C      1  0.4597210000000  0.4883990000000  0.5139990000000 1.0
C      1  0.5351190000000  0.5118040000000  0.4742010000000 1.0
C      1  0.4612650000000  0.4860970000000  0.4739670000000 1.0
C      1  0.4559510000000  0.5240560000000  0.5462350000000 1.0
C      1  0.5467760000000  0.4737590000000  0.5436160000000 1.0
C      1  0.4540220000000  0.5245470000000  0.4541560000000 1.0
C      1  0.5461250000000  0.4736230000000  0.4567350000000 1.0
C      1  0.5097140000000  0.5499010000000  0.4738670000000 1.0
C      1  0.4896890000000  0.4497030000000  0.4722780000000 1.0
C      1  0.5102430000000  0.5501700000000  0.5270940000000 1.0
C      1  0.4891960000000  0.4515690000000  0.5267680000000 1.0
C      1  0.5328900000000  0.4465260000000  0.4539720000000 1.0
C      1  0.4674100000000  0.5508450000000  0.4549390000000 1.0
C      1  0.5326060000000  0.4470890000000  0.5457360000000 1.0
C      1  0.4683770000000  0.5507720000000  0.5466170000000 1.0
C      1  0.5396380000000  0.5589260000000  0.5267710000000 1.0
C      1  0.4598920000000  0.4417160000000  0.5264660000000 1.0
C      1  0.5391060000000  0.5586630000000  0.4735570000000 1.0
C      1  0.4609390000000  0.4390710000000  0.4730060000000 1.0
C      1  0.5465240000000  0.5823350000000  0.4866850000000 1.0
C      1  0.4562000000000  0.4170530000000  0.4897570000000 1.0
C      1  0.5468970000000  0.5826550000000  0.5136010000000 1.0
C      1  0.4544400000000  0.4156780000000  0.5167120000000 1.0
C      1  0.4643570000000  0.5643310000000  0.5204750000000 1.0
C      1  0.5348990000000  0.4333540000000  0.5194230000000 1.0
C      1  0.4639510000000  0.5638110000000  0.4815140000000 1.0
C      1  0.5351810000000  0.4326800000000  0.4803420000000 1.0
C      1  0.4433580000000  0.4628240000000  0.5130440000000 1.0
C      1  0.5526750000000  0.5347660000000  0.5154710000000 1.0
C      1  0.4446330000000  0.4618500000000  0.4822700000000 1.0
C      1  0.5523700000000  0.5345740000000  0.4847290000000 1.0
C      1  0.5117380000000  0.5365450000000  0.5742070000000 1.0
C      1  0.4956150000000  0.4682500000000  0.5727810000000 1.0
C      1  0.5106450000000  0.5364520000000  0.4267130000000 1.0
C      1  0.4951220000000  0.4680180000000  0.4277930000000 1.0
C      1  0.4973020000000  0.5505420000000  0.4470150000000 1.0
C      1  0.5033510000000  0.4486900000000  0.4457150000000 1.0
C      1  0.4983590000000  0.5510520000000  0.5542650000000 1.0
C      1  0.5032030000000  0.4501780000000  0.5534360000000 1.0
C      1  0.5129160000000  0.5103800000000  0.4361160000000 1.0
C      1  0.4901530000000  0.4950520000000  0.4284040000000 1.0
C      1  0.5136860000000  0.5105680000000  0.5645460000000 1.0
C      1  0.4909310000000  0.4952440000000  0.5724680000000 1.0
C      1  0.5446450000000  0.4854470000000  0.5150250000000 1.0
C      1  0.4484890000000  0.5152840000000  0.5195890000000 1.0
C      1  0.5437830000000  0.4850020000000  0.4854050000000 1.0
C      1  0.4492560000000  0.5130440000000  0.4812620000000 1.0
C      1  0.5380190000000  0.4963590000000  0.4387110000000 1.0
C      1  0.4653770000000  0.5058130000000  0.4360360000000 1.0
C      1  0.5387510000000  0.4964800000000  0.5617700000000 1.0
C      1  0.4663480000000  0.5052920000000  0.5643710000000 1.0
C      1  0.4900790000000  0.4828390000000  0.5147240000000 1.0
C      1  0.5071760000000  0.5177660000000  0.5160310000000 1.0
C      1  0.4908550000000  0.4820740000000  0.4836100000000 1.0
C      1  0.5068570000000  0.5175740000000  0.4849350000000 1.0
END
