TITL C-9262-5533-41 1.12483210758577e-07 125000 -357.649375802574 0 0 60 (C1) n - 1
REM
REM in /home/bkarasulu/CARBON/AIRSS/Generating-Clusters/EDIP-Nigel-Params/Higher-Symm/Box-15A/Only-C60/SD-CG/HFTN-CG
REM
REM
REM
REM
REM
REM ./C.cell (414f73aa93bd7a1190c7fd0f31ff2f98)
REM
REM compiler GCC version 9.2.1 20190827 (Red Hat 9.2.1-1)
REM options -cpp -mtune=generic -march=x86-64 -g -O0 -fpre-include=/usr/include/finclude/math-vector-fortran.h
REM seed 659360832 -1121036239 1304714165 -904964992 1468358449 -857959261 1646056182 -947988828 -1118785333 -1473037578 -372741249 689411125 -1371049964 -2901988 1697156158 1592014045 1869473858 1922762829 1062470191 1220609787 785752824 437900427 1651355330 2006027106 1567221162 1133849861 1069986619 -836205385 1415538693 -1004273073 616065810 -1311146744 74341216
REM
CELL 1.54180   50.00000   50.00000   50.00000   90.00000   90.00000   90.00000
LATT -1
SFAC C  
C      1  0.4854870000000  0.4873160000000  0.5553820000000 1.0
C      1  0.5148890000000  0.4867940000000  0.4436460000000 1.0
C      1  0.4839460000000  0.4867690000000  0.4442920000000 1.0
C      1  0.5164240000000  0.4867480000000  0.5549850000000 1.0
C      1  0.4849550000000  0.4385330000000  0.5541580000000 1.0
C      1  0.5149950000000  0.4381930000000  0.4461340000000 1.0
C      1  0.4835680000000  0.4382400000000  0.4466160000000 1.0
C      1  0.5163840000000  0.4384080000000  0.5536740000000 1.0
C      1  0.5261510000000  0.4785480000000  0.4695660000000 1.0
C      1  0.4741330000000  0.4785260000000  0.5296370000000 1.0
C      1  0.5269530000000  0.4781440000000  0.5288000000000 1.0
C      1  0.4734000000000  0.4784880000000  0.4705140000000 1.0
C      1  0.4892920000000  0.5829510000000  0.4810150000000 1.0
C      1  0.5099320000000  0.5832960000000  0.5200570000000 1.0
C      1  0.4799420000000  0.5840660000000  0.5106040000000 1.0
C      1  0.5192910000000  0.5837680000000  0.4903610000000 1.0
C      1  0.5430650000000  0.5547730000000  0.5447150000000 1.0
C      1  0.4571970000000  0.5547260000000  0.4553280000000 1.0
C      1  0.5409840000000  0.5551680000000  0.4555050000000 1.0
C      1  0.4577560000000  0.5570000000000  0.5459600000000 1.0
C      1  0.5220390000000  0.5560290000000  0.5250340000000 1.0
C      1  0.4768510000000  0.5557850000000  0.4763950000000 1.0
C      1  0.5342790000000  0.5586700000000  0.4827450000000 1.0
C      1  0.4647210000000  0.5591990000000  0.5186810000000 1.0
C      1  0.5146880000000  0.4610810000000  0.4250380000000 1.0
C      1  0.4853560000000  0.4618630000000  0.5747260000000 1.0
C      1  0.5167520000000  0.4618470000000  0.5741240000000 1.0
C      1  0.4833340000000  0.4612070000000  0.4255830000000 1.0
C      1  0.4582210000000  0.5293870000000  0.5512380000000 1.0
C      1  0.5426910000000  0.5286100000000  0.4464990000000 1.0
C      1  0.4558010000000  0.5279880000000  0.4474650000000 1.0
C      1  0.5448000000000  0.5277810000000  0.5516040000000 1.0
C      1  0.4489500000000  0.4907240000000  0.4809950000000 1.0
C      1  0.5517330000000  0.4898290000000  0.5182180000000 1.0
C      1  0.4491900000000  0.4903300000000  0.5196050000000 1.0
C      1  0.5508260000000  0.4907280000000  0.4795270000000 1.0
C      1  0.5031570000000  0.5330510000000  0.5267120000000 1.0
C      1  0.4954520000000  0.5326160000000  0.4753190000000 1.0
C      1  0.5193090000000  0.5343700000000  0.4926560000000 1.0
C      1  0.4793930000000  0.5345370000000  0.5090340000000 1.0
C      1  0.4801950000000  0.5158370000000  0.4375560000000 1.0
C      1  0.5209080000000  0.5154740000000  0.5624480000000 1.0
C      1  0.4824750000000  0.5168340000000  0.5614610000000 1.0
C      1  0.5186320000000  0.5158670000000  0.4364300000000 1.0
C      1  0.5535520000000  0.4406930000000  0.5151510000000 1.0
C      1  0.4464430000000  0.4417420000000  0.4851510000000 1.0
C      1  0.5531590000000  0.4415330000000  0.4833630000000 1.0
C      1  0.4469100000000  0.4411040000000  0.5169580000000 1.0
C      1  0.5261960000000  0.4494070000000  0.4721550000000 1.0
C      1  0.4739450000000  0.4492640000000  0.5278910000000 1.0
C      1  0.5268410000000  0.4489000000000  0.5269820000000 1.0
C      1  0.4731790000000  0.4493510000000  0.4730590000000 1.0
C      1  0.5589260000000  0.5120190000000  0.4621610000000 1.0
C      1  0.4418030000000  0.5130010000000  0.5355160000000 1.0
C      1  0.5600270000000  0.5117010000000  0.5346160000000 1.0
C      1  0.4400970000000  0.5117220000000  0.4638040000000 1.0
C      1  0.5712590000000  0.4665510000000  0.5148800000000 1.0
C      1  0.4295520000000  0.4680270000000  0.4866940000000 1.0
C      1  0.5702520000000  0.4677560000000  0.4845990000000 1.0
C      1  0.4293680000000  0.4671270000000  0.5169760000000 1.0
END
