TITL C-9256-7861-166 6.58013645730631e-06 125000 -368.078001944026 0 0 60 (C1) n - 1
REM
REM in /home/bkarasulu/CARBON/AIRSS/Generating-Clusters/EDIP-Nigel-Params/Higher-Symm/Box-15A/Only-C60/SD-CG/HFTN-CG
REM
REM
REM
REM
REM
REM ./C.cell (414f73aa93bd7a1190c7fd0f31ff2f98)
REM
REM compiler GCC version 9.2.1 20190827 (Red Hat 9.2.1-1)
REM options -cpp -mtune=generic -march=x86-64 -g -O0 -fpre-include=/usr/include/finclude/math-vector-fortran.h
REM seed -26928266 1235885144 2014508424 1724984389 6959231 -743064305 -1151916659 1528471551 1153401392 1006939565 211570602 1747828608 -1106132140 1880526510 -929344004 632683280 2123603986 -2032981499 1842978729 284837217 1766284204 287776643 -1693586711 1863242321 -12928178 -2006169850 -1053774215 -793237787 1464694844 2051404535 239069733 -90894792 -1930423638
REM
CELL 1.54180   50.00000   50.00000   50.00000   90.00000   90.00000   90.00000
LATT -1
SFAC C  
C      1  0.4875210000000  0.4454290000000  0.4753360000000 1.0
C      1  0.5351890000000  0.4534650000000  0.4731120000000 1.0
C      1  0.5537380000000  0.4978810000000  0.4756770000000 1.0
C      1  0.5355380000000  0.5465140000000  0.4741220000000 1.0
C      1  0.4898430000000  0.5588430000000  0.4750590000000 1.0
C      1  0.4518680000000  0.5225500000000  0.4787230000000 1.0
C      1  0.4471990000000  0.4747580000000  0.4757380000000 1.0
C      1  0.4796550000000  0.5269620000000  0.4405010000000 1.0
C      1  0.4658040000000  0.5015960000000  0.4336100000000 1.0
C      1  0.4814260000000  0.4784650000000  0.4437410000000 1.0
C      1  0.5063290000000  0.4657640000000  0.4347810000000 1.0
C      1  0.5314380000000  0.4848640000000  0.4339440000000 1.0
C      1  0.5260080000000  0.5130910000000  0.4410300000000 1.0
C      1  0.5070470000000  0.5340520000000  0.4316010000000 1.0
C      1  0.5002340000000  0.5594540000000  0.5028830000000 1.0
C      1  0.4570160000000  0.5108040000000  0.5050520000000 1.0
C      1  0.4597140000000  0.4807650000000  0.5027050000000 1.0
C      1  0.4929620000000  0.4611440000000  0.5008200000000 1.0
C      1  0.5258950000000  0.4646280000000  0.5000510000000 1.0
C      1  0.5389480000000  0.4931870000000  0.5015470000000 1.0
C      1  0.5249510000000  0.5423520000000  0.5025680000000 1.0
C      1  0.4441780000000  0.5219050000000  0.5271430000000 1.0
C      1  0.4457960000000  0.4695010000000  0.5251840000000 1.0
C      1  0.4880380000000  0.4439340000000  0.5230570000000 1.0
C      1  0.5367710000000  0.4500140000000  0.5224110000000 1.0
C      1  0.5582100000000  0.4941760000000  0.5227260000000 1.0
C      1  0.5426440000000  0.5507930000000  0.5238740000000 1.0
C      1  0.4841740000000  0.5620370000000  0.5256620000000 1.0
C      1  0.5117430000000  0.4446550000000  0.4571130000000 1.0
C      1  0.5495430000000  0.4744680000000  0.4573140000000 1.0
C      1  0.5446210000000  0.5217430000000  0.4607420000000 1.0
C      1  0.5135030000000  0.5573070000000  0.4559520000000 1.0
C      1  0.4756980000000  0.5344630000000  0.4672910000000 1.0
C      1  0.4438650000000  0.5003710000000  0.4598100000000 1.0
C      1  0.4667720000000  0.4597060000000  0.4597870000000 1.0
C      1  0.5586230000000  0.4963130000000  0.5502570000000 1.0
C      1  0.5390200000000  0.5451520000000  0.5510340000000 1.0
C      1  0.4870890000000  0.5555880000000  0.5525150000000 1.0
C      1  0.4474820000000  0.5215720000000  0.5545350000000 1.0
C      1  0.4476490000000  0.4701160000000  0.5530530000000 1.0
C      1  0.4879020000000  0.4402770000000  0.5505020000000 1.0
C      1  0.5368220000000  0.4507050000000  0.5503470000000 1.0
C      1  0.5503390000000  0.5211720000000  0.5596720000000 1.0
C      1  0.5135070000000  0.5513780000000  0.5604210000000 1.0
C      1  0.4672170000000  0.5392110000000  0.5632380000000 1.0
C      1  0.4465070000000  0.4955570000000  0.5644700000000 1.0
C      1  0.4663340000000  0.4522480000000  0.5632550000000 1.0
C      1  0.5131540000000  0.4418530000000  0.5619020000000 1.0
C      1  0.5492890000000  0.4728420000000  0.5618700000000 1.0
C      1  0.5234830000000  0.5096320000000  0.3925600000000 1.0
C      1  0.5059440000000  0.5299880000000  0.4010560000000 1.0
C      1  0.4795090000000  0.5240100000000  0.3933500000000 1.0
C      1  0.4678330000000  0.5002010000000  0.4028810000000 1.0
C      1  0.4823590000000  0.4777330000000  0.3941550000000 1.0
C      1  0.5059220000000  0.4651240000000  0.4032090000000 1.0
C      1  0.5303020000000  0.4838580000000  0.4019240000000 1.0
C      1  0.5178390000000  0.5133250000000  0.5068980000000 1.0
C      1  0.4997610000000  0.4964150000000  0.5799150000000 1.0
C      1  0.4996100000000  0.4985250000000  0.5542620000000 1.0
C      1  0.5026470000000  0.5065930000000  0.5289640000000 1.0
END
