TITL C-9263-351-192 -2.24823216355525e-05 125000 -361.720640330423 0 0 60 (C1) n - 1
REM
REM in /home/bkarasulu/CARBON/AIRSS/Generating-Clusters/EDIP-Nigel-Params/Higher-Symm/Box-15A/Only-C60/SD-CG/HFTN-CG
REM
REM
REM
REM
REM
REM ./C.cell (414f73aa93bd7a1190c7fd0f31ff2f98)
REM
REM compiler GCC version 9.2.1 20190827 (Red Hat 9.2.1-1)
REM options -cpp -mtune=generic -march=x86-64 -g -O0 -fpre-include=/usr/include/finclude/math-vector-fortran.h
REM seed -1626844482 -967320789 2120584589 1781032973 1075287780 511387429 -1820165122 -276655301 672277778 878778041 -446400299 1971470649 -166385552 940981692 -1358733072 -235092229 1912858213 -1736994939 -365980383 693725941 -841424533 -20581664 -1713597721 -372552319 66389904 -1305944712 -496511754 1487067946 1736891624 1445756437 -216462789 984377809 -89821790
REM
CELL 1.54180   50.00000   50.00000   50.00000   90.00000   90.00000   90.00000
LATT -1
SFAC C  
C      1  0.4813720000000  0.4967310000000  0.5496680000000 1.0
C      1  0.4994180000000  0.4518160000000  0.5531370000000 1.0
C      1  0.5066140000000  0.4705960000000  0.4664720000000 1.0
C      1  0.4554610000000  0.5075390000000  0.5411710000000 1.0
C      1  0.5520090000000  0.4681470000000  0.4582520000000 1.0
C      1  0.5161440000000  0.5824360000000  0.4631620000000 1.0
C      1  0.4991840000000  0.4213620000000  0.5051050000000 1.0
C      1  0.5167920000000  0.5210190000000  0.4346670000000 1.0
C      1  0.5645370000000  0.5416180000000  0.4985160000000 1.0
C      1  0.5345210000000  0.5274350000000  0.5573950000000 1.0
C      1  0.5061400000000  0.4939630000000  0.4912560000000 1.0
C      1  0.4735750000000  0.4996990000000  0.4395560000000 1.0
C      1  0.4718840000000  0.5747670000000  0.4855750000000 1.0
C      1  0.5601300000000  0.4676600000000  0.5073830000000 1.0
C      1  0.4659390000000  0.4583730000000  0.4540020000000 1.0
C      1  0.5308320000000  0.4520540000000  0.5492440000000 1.0
C      1  0.5333220000000  0.5811910000000  0.5093480000000 1.0
C      1  0.4326350000000  0.4475860000000  0.5141800000000 1.0
C      1  0.4938590000000  0.5663420000000  0.4684870000000 1.0
C      1  0.5122060000000  0.4796820000000  0.5164040000000 1.0
C      1  0.4515320000000  0.4273740000000  0.5088620000000 1.0
C      1  0.5216780000000  0.5508100000000  0.5501150000000 1.0
C      1  0.5376510000000  0.5012060000000  0.5617870000000 1.0
C      1  0.5559760000000  0.5559180000000  0.4759340000000 1.0
C      1  0.4882840000000  0.4728380000000  0.5326200000000 1.0
C      1  0.4750000000000  0.4276060000000  0.4936980000000 1.0
C      1  0.4751210000000  0.5008950000000  0.4971060000000 1.0
C      1  0.4515790000000  0.5559670000000  0.4763970000000 1.0
C      1  0.4860360000000  0.4930080000000  0.5771350000000 1.0
C      1  0.5328700000000  0.4588120000000  0.5194420000000 1.0
C      1  0.4447290000000  0.5330350000000  0.4929630000000 1.0
C      1  0.4327090000000  0.4886890000000  0.4730300000000 1.0
C      1  0.4876670000000  0.4747280000000  0.4428710000000 1.0
C      1  0.4439410000000  0.4772350000000  0.4489900000000 1.0
C      1  0.4536420000000  0.5098560000000  0.4775430000000 1.0
C      1  0.4941720000000  0.5504900000000  0.5486650000000 1.0
C      1  0.4897420000000  0.5235950000000  0.4404230000000 1.0
C      1  0.5644740000000  0.4947430000000  0.4979650000000 1.0
C      1  0.5352590000000  0.5749640000000  0.4822990000000 1.0
C      1  0.5025650000000  0.4699510000000  0.5780670000000 1.0
C      1  0.5641900000000  0.4514110000000  0.4825380000000 1.0
C      1  0.5422640000000  0.5169170000000  0.4447970000000 1.0
C      1  0.4384480000000  0.4856740000000  0.5361660000000 1.0
C      1  0.4778670000000  0.4549270000000  0.4831020000000 1.0
C      1  0.4792720000000  0.5485020000000  0.4506950000000 1.0
C      1  0.4602920000000  0.5290480000000  0.5199600000000 1.0
C      1  0.5396590000000  0.4317520000000  0.4798900000000 1.0
C      1  0.5243830000000  0.4335690000000  0.5047640000000 1.0
C      1  0.5426750000000  0.4958160000000  0.4661160000000 1.0
C      1  0.5278710000000  0.4502730000000  0.4578630000000 1.0
C      1  0.5543530000000  0.5408750000000  0.4524530000000 1.0
C      1  0.5496480000000  0.5182310000000  0.5033670000000 1.0
C      1  0.5338000000000  0.5691480000000  0.5333340000000 1.0
C      1  0.4306020000000  0.4684010000000  0.4942250000000 1.0
C      1  0.4736670000000  0.5533010000000  0.5304490000000 1.0
C      1  0.4747930000000  0.5747610000000  0.5131870000000 1.0
C      1  0.4318750000000  0.4594180000000  0.5395340000000 1.0
C      1  0.4673030000000  0.4733680000000  0.5063810000000 1.0
C      1  0.5234090000000  0.5178280000000  0.4914850000000 1.0
C      1  0.5324300000000  0.4750430000000  0.5708040000000 1.0
END
