TITL C-9263-351-3 -7.33352789610954e-06 125000 -363.242759479134 0 0 60 (C1) n - 1
REM
REM in /home/bkarasulu/CARBON/AIRSS/Generating-Clusters/EDIP-Nigel-Params/Higher-Symm/Box-15A/Only-C60/SD-CG/HFTN-CG
REM
REM
REM
REM
REM
REM ./C.cell (414f73aa93bd7a1190c7fd0f31ff2f98)
REM
REM compiler GCC version 9.2.1 20190827 (Red Hat 9.2.1-1)
REM options -cpp -mtune=generic -march=x86-64 -g -O0 -fpre-include=/usr/include/finclude/math-vector-fortran.h
REM seed -495480446 795085280 558991175 -545376986 2000754934 -1450739385 -1568845754 -219653046 -845498409 -1581962849 2058684965 -321452675 -913595342 -2102593364 670136967 1047259653 -1311372093 -1666596324 -1801422939 -436927227 -686037829 549905391 -796013104 -1604219601 701513105 -160675682 -1139589121 -896925733 -356998512 -984747867 392774507 -1221815278 -183116149
REM
CELL 1.54180   50.00000   50.00000   50.00000   90.00000   90.00000   90.00000
LATT -1
SFAC C  
C      1  0.4208670000000  0.5145230000000  0.4991220000000 1.0
C      1  0.5893740000000  0.5141970000000  0.4924780000000 1.0
C      1  0.4210160000000  0.4856410000000  0.5002080000000 1.0
C      1  0.5879590000000  0.4849870000000  0.4982870000000 1.0
C      1  0.4783200000000  0.5194710000000  0.5859290000000 1.0
C      1  0.5152750000000  0.5161300000000  0.4162560000000 1.0
C      1  0.4774330000000  0.4822880000000  0.5792390000000 1.0
C      1  0.5137010000000  0.4888060000000  0.4314920000000 1.0
C      1  0.4835030000000  0.5164870000000  0.4154080000000 1.0
C      1  0.5074860000000  0.5144310000000  0.5837360000000 1.0
C      1  0.4835620000000  0.4892430000000  0.4307570000000 1.0
C      1  0.5056520000000  0.4865410000000  0.5751400000000 1.0
C      1  0.5740400000000  0.4698280000000  0.4755780000000 1.0
C      1  0.4337160000000  0.4744300000000  0.5241710000000 1.0
C      1  0.5729300000000  0.5288950000000  0.4722170000000 1.0
C      1  0.4324690000000  0.5269110000000  0.5228480000000 1.0
C      1  0.5524660000000  0.5088790000000  0.5046240000000 1.0
C      1  0.4638330000000  0.5189270000000  0.4916660000000 1.0
C      1  0.5696870000000  0.4797460000000  0.5214120000000 1.0
C      1  0.4640130000000  0.4822560000000  0.4925630000000 1.0
C      1  0.5217650000000  0.5339850000000  0.5695170000000 1.0
C      1  0.4730580000000  0.5400000000000  0.4270820000000 1.0
C      1  0.5237940000000  0.4652780000000  0.5713100000000 1.0
C      1  0.4710160000000  0.4637900000000  0.4311160000000 1.0
C      1  0.4686860000000  0.4388750000000  0.5257820000000 1.0
C      1  0.5272330000000  0.4466590000000  0.4779140000000 1.0
C      1  0.4679190000000  0.5599740000000  0.5235100000000 1.0
C      1  0.5272840000000  0.5536620000000  0.4758540000000 1.0
C      1  0.5240780000000  0.5486820000000  0.5223690000000 1.0
C      1  0.4682070000000  0.5589850000000  0.4733910000000 1.0
C      1  0.5260510000000  0.4495810000000  0.5248050000000 1.0
C      1  0.4688390000000  0.4415540000000  0.4758660000000 1.0
C      1  0.5137320000000  0.4495870000000  0.4522400000000 1.0
C      1  0.4828000000000  0.4491040000000  0.5498500000000 1.0
C      1  0.5137250000000  0.5525940000000  0.4500770000000 1.0
C      1  0.4821430000000  0.5516940000000  0.5485500000000 1.0
C      1  0.5546690000000  0.4511060000000  0.4881310000000 1.0
C      1  0.4404390000000  0.4461660000000  0.5201860000000 1.0
C      1  0.5554090000000  0.5491890000000  0.4863050000000 1.0
C      1  0.4391700000000  0.5549040000000  0.5182320000000 1.0
C      1  0.4446450000000  0.5411100000000  0.4832260000000 1.0
C      1  0.5508730000000  0.5385190000000  0.5151290000000 1.0
C      1  0.4452610000000  0.4592490000000  0.4848170000000 1.0
C      1  0.5543170000000  0.4550600000000  0.5175270000000 1.0
C      1  0.4831680000000  0.5637020000000  0.4984630000000 1.0
C      1  0.5115570000000  0.5592510000000  0.4990010000000 1.0
C      1  0.4840140000000  0.4376390000000  0.5007940000000 1.0
C      1  0.5125500000000  0.4399430000000  0.5013920000000 1.0
C      1  0.5121710000000  0.4505040000000  0.5502370000000 1.0
C      1  0.4844080000000  0.4506710000000  0.4524530000000 1.0
C      1  0.5107890000000  0.5477280000000  0.5479400000000 1.0
C      1  0.4847170000000  0.5502540000000  0.4503920000000 1.0
C      1  0.5514280000000  0.5077500000000  0.4709010000000 1.0
C      1  0.4605520000000  0.5160610000000  0.5214350000000 1.0
C      1  0.5619020000000  0.4861200000000  0.4558970000000 1.0
C      1  0.4610170000000  0.4866420000000  0.5221110000000 1.0
C      1  0.5254340000000  0.5396890000000  0.4281940000000 1.0
C      1  0.4694270000000  0.5417510000000  0.5714790000000 1.0
C      1  0.5264650000000  0.4633670000000  0.4310160000000 1.0
C      1  0.4679830000000  0.4570090000000  0.5723780000000 1.0
END
