TITL C-9256-7861-317 1.78075969791599e-07 125000 -370.085165197857 0 0 60 (Td) n - 1
REM
REM in /home/bkarasulu/CARBON/AIRSS/Generating-Clusters/EDIP-Nigel-Params/Higher-Symm/Box-15A/Only-C60/SD-CG/HFTN-CG
REM
REM
REM
REM
REM
REM ./C.cell (414f73aa93bd7a1190c7fd0f31ff2f98)
REM
REM compiler GCC version 9.2.1 20190827 (Red Hat 9.2.1-1)
REM options -cpp -mtune=generic -march=x86-64 -g -O0 -fpre-include=/usr/include/finclude/math-vector-fortran.h
REM seed 64643587 1830953705 2056780230 -843728851 -1860291063 2012751561 -762051320 -1322543978 -1609477703 -548982873 -1568725866 -1937516312 850700682 -1109569502 788756089 1145446075 2104407079 651917028 2074152835 -1617692500 -47521433 8578774 -1151274698 -1878341136 1025546441 -770993985 356170594 448467616 760652612 -1104976216 1299874194 -345898637 1478376342
REM
CELL 1.54180   50.00000   50.00000   50.00000   90.00000   90.00000   90.00000
LATT -1
SFAC C  
C      1  0.5137530000000  0.5540570000000  0.4660570000000 1.0
C      1  0.5540570000000  0.4660570000000  0.5137530000000 1.0
C      1  0.4660570000000  0.5137530000000  0.5540570000000 1.0
C      1  0.5137530000000  0.4459430000000  0.5339430000000 1.0
C      1  0.4862470000000  0.5540570000000  0.5339430000000 1.0
C      1  0.4862470000000  0.4459430000000  0.4660570000000 1.0
C      1  0.5540570000000  0.5339430000000  0.4862470000000 1.0
C      1  0.4459430000000  0.4660570000000  0.4862470000000 1.0
C      1  0.4459430000000  0.5339430000000  0.5137530000000 1.0
C      1  0.4660570000000  0.4862470000000  0.4459430000000 1.0
C      1  0.5339430000000  0.5137530000000  0.4459430000000 1.0
C      1  0.5339430000000  0.4862470000000  0.5540570000000 1.0
C      1  0.5137530000000  0.4660570000000  0.5540570000000 1.0
C      1  0.5540570000000  0.5137530000000  0.4660570000000 1.0
C      1  0.4660570000000  0.5540570000000  0.5137530000000 1.0
C      1  0.5137530000000  0.5339430000000  0.4459430000000 1.0
C      1  0.4862470000000  0.5339430000000  0.5540570000000 1.0
C      1  0.4862470000000  0.4660570000000  0.4459430000000 1.0
C      1  0.5540570000000  0.4862470000000  0.5339430000000 1.0
C      1  0.4459430000000  0.4862470000000  0.4660570000000 1.0
C      1  0.4459430000000  0.5137530000000  0.5339430000000 1.0
C      1  0.4660570000000  0.4459430000000  0.4862470000000 1.0
C      1  0.5339430000000  0.4459430000000  0.5137530000000 1.0
C      1  0.5339430000000  0.5540570000000  0.4862470000000 1.0
C      1  0.4930630000000  0.4265860000000  0.5344270000000 1.0
C      1  0.4265860000000  0.5344270000000  0.4930630000000 1.0
C      1  0.5344270000000  0.4930630000000  0.4265860000000 1.0
C      1  0.4930630000000  0.5734140000000  0.4655730000000 1.0
C      1  0.5069370000000  0.4265860000000  0.4655730000000 1.0
C      1  0.5069370000000  0.5734140000000  0.5344270000000 1.0
C      1  0.4265860000000  0.4655730000000  0.5069370000000 1.0
C      1  0.5734140000000  0.5344270000000  0.5069370000000 1.0
C      1  0.5734140000000  0.4655730000000  0.4930630000000 1.0
C      1  0.5344270000000  0.5069370000000  0.5734140000000 1.0
C      1  0.4655730000000  0.4930630000000  0.5734140000000 1.0
C      1  0.4655730000000  0.5069370000000  0.4265860000000 1.0
C      1  0.4930630000000  0.5344270000000  0.4265860000000 1.0
C      1  0.4265860000000  0.4930630000000  0.5344270000000 1.0
C      1  0.5344270000000  0.4265860000000  0.4930630000000 1.0
C      1  0.4930630000000  0.4655730000000  0.5734140000000 1.0
C      1  0.5069370000000  0.4655730000000  0.4265860000000 1.0
C      1  0.5069370000000  0.5344270000000  0.5734140000000 1.0
C      1  0.4265860000000  0.5069370000000  0.4655730000000 1.0
C      1  0.5734140000000  0.5069370000000  0.5344270000000 1.0
C      1  0.5734140000000  0.4930630000000  0.4655730000000 1.0
C      1  0.5344270000000  0.5734140000000  0.5069370000000 1.0
C      1  0.4655730000000  0.5734140000000  0.4930630000000 1.0
C      1  0.4655730000000  0.4265860000000  0.5069370000000 1.0
C      1  0.4085800000000  0.5129450000000  0.4870550000000 1.0
C      1  0.4870550000000  0.4870550000000  0.5914200000000 1.0
C      1  0.4870550000000  0.5129450000000  0.4085800000000 1.0
C      1  0.4085800000000  0.4870550000000  0.5129450000000 1.0
C      1  0.5914200000000  0.5129450000000  0.5129450000000 1.0
C      1  0.5914200000000  0.4870550000000  0.4870550000000 1.0
C      1  0.5129450000000  0.4085800000000  0.4870550000000 1.0
C      1  0.5129450000000  0.5914200000000  0.5129450000000 1.0
C      1  0.4870550000000  0.5914200000000  0.4870550000000 1.0
C      1  0.4870550000000  0.4085800000000  0.5129450000000 1.0
C      1  0.5129450000000  0.4870550000000  0.4085800000000 1.0
C      1  0.5129450000000  0.5129450000000  0.5914200000000 1.0
END
