TITL C-9260-5597-26 2.75866298183886e-05 125000 -357.457367076126 0 0 60 (C2) n - 1
REM
REM in /home/bkarasulu/CARBON/AIRSS/Generating-Clusters/EDIP-Nigel-Params/Higher-Symm/Box-15A/Only-C60/SD-CG/HFTN-CG
REM
REM
REM
REM
REM
REM ./C.cell (414f73aa93bd7a1190c7fd0f31ff2f98)
REM
REM compiler GCC version 9.2.1 20190827 (Red Hat 9.2.1-1)
REM options -cpp -mtune=generic -march=x86-64 -g -O0 -fpre-include=/usr/include/finclude/math-vector-fortran.h
REM seed 1644809330 -997809306 -101894423 303218364 1810545472 1332255607 -1949599449 701144315 -1843813567 1500905160 1257932948 1160688300 1361476041 1086065321 -1970891216 227237626 -1589035246 -137106161 -320784029 1574728212 -578912550 -521509905 -1730880239 -1390103664 830454068 -397820210 -1879136326 -1161495513 -1777592362 -414320573 1234952343 -1365637669 -1388702480
REM
CELL 1.54180   50.00000   50.00000   50.00000   90.00000   90.00000   90.00000
LATT -1
SFAC C  
C      1  0.5400290000000  0.5484460000000  0.4975300000000 1.0
C      1  0.5402560000000  0.5002720000000  0.5423990000000 1.0
C      1  0.5401800000000  0.4516810000000  0.5024830000000 1.0
C      1  0.5402700000000  0.4998550000000  0.4576130000000 1.0
C      1  0.5843620000000  0.4937830000000  0.5210960000000 1.0
C      1  0.5862310000000  0.4786020000000  0.4945980000000 1.0
C      1  0.5843480000000  0.5064830000000  0.4789300000000 1.0
C      1  0.5861620000000  0.5216690000000  0.5054290000000 1.0
C      1  0.4572670000000  0.5273080000000  0.4807180000000 1.0
C      1  0.4569580000000  0.5225980000000  0.5249780000000 1.0
C      1  0.4573480000000  0.4725580000000  0.5192690000000 1.0
C      1  0.4570370000000  0.4772660000000  0.4750090000000 1.0
C      1  0.4159960000000  0.4970480000000  0.5218720000000 1.0
C      1  0.4140970000000  0.4779380000000  0.4972390000000 1.0
C      1  0.4159940000000  0.5026870000000  0.4781020000000 1.0
C      1  0.4140270000000  0.5217920000000  0.5027340000000 1.0
C      1  0.5039390000000  0.4522410000000  0.4411820000000 1.0
C      1  0.5063630000000  0.5581590000000  0.4526330000000 1.0
C      1  0.5037700000000  0.5477710000000  0.5588190000000 1.0
C      1  0.5065310000000  0.4418610000000  0.5473690000000 1.0
C      1  0.4809570000000  0.4392210000000  0.4580580000000 1.0
C      1  0.4837320000000  0.5387210000000  0.4424400000000 1.0
C      1  0.4807520000000  0.5607190000000  0.5419360000000 1.0
C      1  0.4838360000000  0.4612280000000  0.5575550000000 1.0
C      1  0.4401350000000  0.4635230000000  0.4956340000000 1.0
C      1  0.4440960000000  0.5040500000000  0.4679360000000 1.0
C      1  0.4400190000000  0.5362880000000  0.5043470000000 1.0
C      1  0.4440990000000  0.4957730000000  0.5320460000000 1.0
C      1  0.5263720000000  0.4556450000000  0.4601220000000 1.0
C      1  0.5309920000000  0.5431050000000  0.4548420000000 1.0
C      1  0.5262200000000  0.5444380000000  0.5398860000000 1.0
C      1  0.5311140000000  0.4569920000000  0.5451680000000 1.0
C      1  0.4646260000000  0.5498000000000  0.4635160000000 1.0
C      1  0.4622760000000  0.5372620000000  0.5496610000000 1.0
C      1  0.4647710000000  0.4500890000000  0.5364730000000 1.0
C      1  0.4624090000000  0.4626190000000  0.4503270000000 1.0
C      1  0.5657950000000  0.5415410000000  0.5075470000000 1.0
C      1  0.5578580000000  0.4822700000000  0.5285300000000 1.0
C      1  0.5659280000000  0.4586670000000  0.4924740000000 1.0
C      1  0.5578110000000  0.5179120000000  0.4714880000000 1.0
C      1  0.4863590000000  0.5215150000000  0.5615180000000 1.0
C      1  0.4874140000000  0.4341920000000  0.5231590000000 1.0
C      1  0.4864470000000  0.4784420000000  0.4384770000000 1.0
C      1  0.4872140000000  0.5657680000000  0.4768370000000 1.0
C      1  0.5231820000000  0.5177630000000  0.4440400000000 1.0
C      1  0.5225390000000  0.5624390000000  0.5168160000000 1.0
C      1  0.5232200000000  0.4823100000000  0.5559670000000 1.0
C      1  0.5227410000000  0.4376320000000  0.4831910000000 1.0
C      1  0.4927900000000  0.4416640000000  0.4881660000000 1.0
C      1  0.4951360000000  0.5111130000000  0.4509170000000 1.0
C      1  0.4926020000000  0.5583130000000  0.5118320000000 1.0
C      1  0.4951560000000  0.4888710000000  0.5490810000000 1.0
C      1  0.5220650000000  0.5177340000000  0.5271430000000 1.0
C      1  0.5265910000000  0.4792230000000  0.5054970000000 1.0
C      1  0.5221290000000  0.4823350000000  0.4728640000000 1.0
C      1  0.5265270000000  0.5208610000000  0.4945110000000 1.0
C      1  0.4945350000000  0.5147030000000  0.4834020000000 1.0
C      1  0.4868610000000  0.5276350000000  0.5127170000000 1.0
C      1  0.4945760000000  0.4852800000000  0.5165960000000 1.0
C      1  0.4869520000000  0.4723230000000  0.4872780000000 1.0
END
