TITL C-9262-5533-12 5.39728433155137e-06 125000 -370.807291310039 0 0 60 (D3) n - 1
REM
REM in /home/bkarasulu/CARBON/AIRSS/Generating-Clusters/EDIP-Nigel-Params/Higher-Symm/Box-15A/Only-C60/SD-CG/HFTN-CG
REM
REM
REM
REM
REM
REM ./C.cell (414f73aa93bd7a1190c7fd0f31ff2f98)
REM
REM compiler GCC version 9.2.1 20190827 (Red Hat 9.2.1-1)
REM options -cpp -mtune=generic -march=x86-64 -g -O0 -fpre-include=/usr/include/finclude/math-vector-fortran.h
REM seed -657952098 1112361561 -1884110243 -1481448985 1271634768 1621866099 -889197060 -251755206 -2093756705 772311241 -559478534 1112194611 1736321027 -176744624 1945573948 -690316582 -1756797550 973511567 1147008024 1243804318 -1899170477 -164893310 -446179782 -1536853346 -1391873025 1195849991 -332458890 1279581997 -1768198279 -403900757 -964012216 -996536684 -1599519520
REM
CELL 1.54180   50.00000   50.00000   50.00000   90.00000   90.00000   90.00000
LATT -1
SFAC C  
C      1  0.4508210000000  0.4722760000000  0.5326100000000 1.0
C      1  0.4964860000000  0.4724660000000  0.4410070000000 1.0
C      1  0.5529830000000  0.4726370000000  0.5263560000000 1.0
C      1  0.5484430000000  0.5277000000000  0.5337140000000 1.0
C      1  0.5048230000000  0.5275760000000  0.4411200000000 1.0
C      1  0.4464440000000  0.5273440000000  0.5251930000000 1.0
C      1  0.4930120000000  0.5145140000000  0.5229070000000 1.0
C      1  0.4835830000000  0.5144940000000  0.4825460000000 1.0
C      1  0.5232510000000  0.5146300000000  0.4945610000000 1.0
C      1  0.5064770000000  0.4854690000000  0.5230460000000 1.0
C      1  0.5168010000000  0.4855180000000  0.4829040000000 1.0
C      1  0.4768750000000  0.4853740000000  0.4940350000000 1.0
C      1  0.5108390000000  0.4405980000000  0.5451120000000 1.0
C      1  0.4558090000000  0.4404230000000  0.4866220000000 1.0
C      1  0.5339780000000  0.4407040000000  0.4682090000000 1.0
C      1  0.4881610000000  0.5593700000000  0.5449030000000 1.0
C      1  0.5444770000000  0.5595860000000  0.4876490000000 1.0
C      1  0.4667360000000  0.5593200000000  0.4675050000000 1.0
C      1  0.4784950000000  0.5161050000000  0.4527780000000 1.0
C      1  0.5515670000000  0.5163450000000  0.5050440000000 1.0
C      1  0.4697680000000  0.5160460000000  0.5421940000000 1.0
C      1  0.5225480000000  0.4839290000000  0.4532560000000 1.0
C      1  0.4483340000000  0.4836520000000  0.5038860000000 1.0
C      1  0.5292880000000  0.4839240000000  0.5428430000000 1.0
C      1  0.4375810000000  0.5238500000000  0.4768090000000 1.0
C      1  0.5511740000000  0.5242550000000  0.4576240000000 1.0
C      1  0.5109920000000  0.5240790000000  0.5655910000000 1.0
C      1  0.5629190000000  0.4761660000000  0.4781830000000 1.0
C      1  0.4497800000000  0.4757760000000  0.4564800000000 1.0
C      1  0.4875550000000  0.4758740000000  0.5653130000000 1.0
C      1  0.5134670000000  0.4650620000000  0.5615850000000 1.0
C      1  0.4401070000000  0.4648300000000  0.4807470000000 1.0
C      1  0.5467940000000  0.4652120000000  0.4576340000000 1.0
C      1  0.4851690000000  0.5348940000000  0.5612960000000 1.0
C      1  0.5603050000000  0.5351830000000  0.4821070000000 1.0
C      1  0.4541570000000  0.5348190000000  0.4566310000000 1.0
C      1  0.4830160000000  0.4538830000000  0.4834400000000 1.0
C      1  0.5230630000000  0.4540200000000  0.4934090000000 1.0
C      1  0.4944060000000  0.4539100000000  0.5231060000000 1.0
C      1  0.5173470000000  0.5461290000000  0.4838550000000 1.0
C      1  0.4770890000000  0.5459850000000  0.4929320000000 1.0
C      1  0.5050790000000  0.5460730000000  0.5232580000000 1.0
C      1  0.5480650000000  0.5702620000000  0.5131780000000 1.0
C      1  0.4642060000000  0.5699600000000  0.5352840000000 1.0
C      1  0.4869910000000  0.5700670000000  0.4516060000000 1.0
C      1  0.4516550000000  0.4297290000000  0.5120570000000 1.0
C      1  0.5350030000000  0.4300140000000  0.5360190000000 1.0
C      1  0.5140810000000  0.4299680000000  0.4518560000000 1.0
C      1  0.5294790000000  0.5115260000000  0.4444740000000 1.0
C      1  0.5332910000000  0.5115040000000  0.5533330000000 1.0
C      1  0.4371110000000  0.5111830000000  0.5022040000000 1.0
C      1  0.4717610000000  0.4885140000000  0.4438250000000 1.0
C      1  0.4655340000000  0.4884570000000  0.5525720000000 1.0
C      1  0.5628250000000  0.4888150000000  0.5035920000000 1.0
C      1  0.4562840000000  0.5525240000000  0.5147390000000 1.0
C      1  0.5088310000000  0.5527270000000  0.4549570000000 1.0
C      1  0.5343300000000  0.5527930000000  0.5303550000000 1.0
C      1  0.5433780000000  0.4474650000000  0.5156680000000 1.0
C      1  0.4921710000000  0.4473050000000  0.4547340000000 1.0
C      1  0.4650050000000  0.4471860000000  0.5295470000000 1.0
END
