TITL C-9258-7861-130 -1.53846550997967e-06 125000 -363.397323706183 0 0 60 (D3h) n - 1
REM
REM in /home/bkarasulu/CARBON/AIRSS/Generating-Clusters/EDIP-Nigel-Params/Higher-Symm/Box-15A/Only-C60/SD-CG/HFTN-CG
REM
REM
REM
REM
REM
REM ./C.cell (414f73aa93bd7a1190c7fd0f31ff2f98)
REM
REM compiler GCC version 9.2.1 20190827 (Red Hat 9.2.1-1)
REM options -cpp -mtune=generic -march=x86-64 -g -O0 -fpre-include=/usr/include/finclude/math-vector-fortran.h
REM seed 1305060433 -1791982488 -833645933 -488496213 483763551 731558717 -354031058 -390085849 924314527 1042029867 -1237288763 363538838 1159336246 -1431020953 1420291237 789664698 -1855258060 -1748927350 -1122567847 -2103193818 685268661 354996431 115288152 -1257590950 1396624665 1558327320 1240947993 534281920 -1696701539 -1988628352 -204270624 512209486 1153719187
REM
CELL 1.54180   50.00000   50.00000   50.00000   90.00000   90.00000   90.00000
LATT -1
SFAC C  
C      1  0.4724090000000  0.4783720000000  0.4255450000000 1.0
C      1  0.4722350000000  0.4465860000000  0.5561820000000 1.0
C      1  0.4722320000000  0.5751460000000  0.5184640000000 1.0
C      1  0.5276070000000  0.4782600000000  0.4256060000000 1.0
C      1  0.5271550000000  0.4464830000000  0.5563370000000 1.0
C      1  0.5277650000000  0.5750650000000  0.5188810000000 1.0
C      1  0.4731500000000  0.5165610000000  0.4240130000000 1.0
C      1  0.4722990000000  0.5572570000000  0.5522460000000 1.0
C      1  0.4720200000000  0.4264020000000  0.5237200000000 1.0
C      1  0.5283460000000  0.5164640000000  0.4245150000000 1.0
C      1  0.5272170000000  0.5571620000000  0.5526500000000 1.0
C      1  0.5275550000000  0.4263120000000  0.5238690000000 1.0
C      1  0.4686060000000  0.4678030000000  0.5006180000000 1.0
C      1  0.4685160000000  0.5167650000000  0.5274530000000 1.0
C      1  0.4689910000000  0.5155780000000  0.4714690000000 1.0
C      1  0.5312320000000  0.4676980000000  0.5007860000000 1.0
C      1  0.5312440000000  0.5166950000000  0.5278460000000 1.0
C      1  0.5315330000000  0.5154900000000  0.4719260000000 1.0
C      1  0.4687730000000  0.5322680000000  0.4982480000000 1.0
C      1  0.4684720000000  0.4852490000000  0.5286130000000 1.0
C      1  0.4687460000000  0.4826050000000  0.4727420000000 1.0
C      1  0.5313980000000  0.5321740000000  0.4987170000000 1.0
C      1  0.5312000000000  0.4851740000000  0.5288560000000 1.0
C      1  0.5312890000000  0.4825060000000  0.4729220000000 1.0
C      1  0.5558570000000  0.4481250000000  0.5501530000000 1.0
C      1  0.5566550000000  0.5692540000000  0.5194370000000 1.0
C      1  0.5563140000000  0.4825630000000  0.4303760000000 1.0
C      1  0.4435820000000  0.4482910000000  0.5498010000000 1.0
C      1  0.4433240000000  0.5693960000000  0.5186300000000 1.0
C      1  0.4435200000000  0.4818650000000  0.4302370000000 1.0
C      1  0.5559330000000  0.5550320000000  0.5466900000000 1.0
C      1  0.5564620000000  0.4320690000000  0.5239290000000 1.0
C      1  0.5571840000000  0.5133120000000  0.4297260000000 1.0
C      1  0.4436600000000  0.5551830000000  0.5459010000000 1.0
C      1  0.4431290000000  0.4322280000000  0.5235850000000 1.0
C      1  0.4443950000000  0.5125860000000  0.4287780000000 1.0
C      1  0.5150770000000  0.5252560000000  0.4487240000000 1.0
C      1  0.5144500000000  0.4429260000000  0.5040710000000 1.0
C      1  0.5143180000000  0.5317450000000  0.5477020000000 1.0
C      1  0.4859560000000  0.5251570000000  0.4484920000000 1.0
C      1  0.4852960000000  0.4429810000000  0.5040060000000 1.0
C      1  0.4851970000000  0.5317990000000  0.5475070000000 1.0
C      1  0.5145530000000  0.4713630000000  0.4504890000000 1.0
C      1  0.5146830000000  0.5571650000000  0.5002210000000 1.0
C      1  0.5143140000000  0.4715500000000  0.5497280000000 1.0
C      1  0.4854310000000  0.4712710000000  0.4504340000000 1.0
C      1  0.4855290000000  0.5572140000000  0.4999900000000 1.0
C      1  0.4851920000000  0.4716070000000  0.5496270000000 1.0
C      1  0.5599840000000  0.4582600000000  0.5075390000000 1.0
C      1  0.5598540000000  0.5274330000000  0.5328390000000 1.0
C      1  0.5603980000000  0.5142360000000  0.4606430000000 1.0
C      1  0.4397800000000  0.4584100000000  0.5071530000000 1.0
C      1  0.4398730000000  0.5275880000000  0.5320000000000 1.0
C      1  0.4404130000000  0.5145420000000  0.4595820000000 1.0
C      1  0.5601590000000  0.5420040000000  0.5048800000000 1.0
C      1  0.5597930000000  0.4747000000000  0.5344250000000 1.0
C      1  0.5599860000000  0.4827320000000  0.4612790000000 1.0
C      1  0.4399580000000  0.5421390000000  0.5040460000000 1.0
C      1  0.4398090000000  0.4748700000000  0.5340450000000 1.0
C      1  0.4399950000000  0.4830690000000  0.4611100000000 1.0
END
