TITL C-9268-6400-39 -2.48820121645459e-05 125000 -366.026573988218 0 0 60 (S10) n - 1
REM
REM in /home/bkarasulu/CARBON/AIRSS/Generating-Clusters/EDIP-Nigel-Params/Higher-Symm/Box-15A/Only-C60/SD-CG/HFTN-CG
REM
REM
REM
REM
REM
REM ./C.cell (414f73aa93bd7a1190c7fd0f31ff2f98)
REM
REM compiler GCC version 9.2.1 20190827 (Red Hat 9.2.1-1)
REM options -cpp -mtune=generic -march=x86-64 -g -O0 -fpre-include=/usr/include/finclude/math-vector-fortran.h
REM seed 784632590 -1093847614 1281666065 -1871328416 1900068654 698355330 1560596864 -2091213319 -1547731065 1815814740 -162147356 -350675508 -1350991039 -784320335 -1268403100 -1229055970 -1487169793 1361055988 -1764949036 -455642603 1915945129 -510852942 355886837 -198910450 -1128163878 1679035660 -646404159 2046519285 889697800 -580867594 505834979 -283176833 -1918831136
REM
CELL 1.54180   50.00000   50.00000   50.00000   90.00000   90.00000   90.00000
LATT -1
SFAC C  
C      1  0.5026000000000  0.5261170000000  0.5662640000000 1.0
C      1  0.4865950000000  0.5225020000000  0.4337140000000 1.0
C      1  0.4760860000000  0.5104810000000  0.5663180000000 1.0
C      1  0.4743360000000  0.4942680000000  0.4337560000000 1.0
C      1  0.4827630000000  0.4804330000000  0.5663310000000 1.0
C      1  0.4974000000000  0.4738830000000  0.4337360000000 1.0
C      1  0.5134050000000  0.4774980000000  0.5662860000000 1.0
C      1  0.5239140000000  0.4895190000000  0.4336820000000 1.0
C      1  0.5256640000000  0.5057320000000  0.5662440000000 1.0
C      1  0.5172370000000  0.5195670000000  0.4336690000000 1.0
C      1  0.4248160000000  0.5096760000000  0.4862000000000 1.0
C      1  0.4335200000000  0.4636680000000  0.5140420000000 1.0
C      1  0.4675390000000  0.4314990000000  0.4861950000000 1.0
C      1  0.5140360000000  0.4255340000000  0.5139460000000 1.0
C      1  0.5550920000000  0.4479730000000  0.4860450000000 1.0
C      1  0.5751840000000  0.4903240000000  0.5138000000000 1.0
C      1  0.5664800000000  0.5363320000000  0.4859580000000 1.0
C      1  0.5324610000000  0.5685010000000  0.5138050000000 1.0
C      1  0.4859640000000  0.5744660000000  0.4860540000000 1.0
C      1  0.4449080000000  0.5520270000000  0.5139550000000 1.0
C      1  0.4861580000000  0.5223300000000  0.4809570000000 1.0
C      1  0.4757220000000  0.5099740000000  0.5190770000000 1.0
C      1  0.4744510000000  0.4937540000000  0.4809980000000 1.0
C      1  0.4830470000000  0.4799740000000  0.5190890000000 1.0
C      1  0.4980100000000  0.4737890000000  0.4809770000000 1.0
C      1  0.5138420000000  0.4776700000000  0.5190430000000 1.0
C      1  0.5242780000000  0.4900260000000  0.4809230000000 1.0
C      1  0.5255490000000  0.5062460000000  0.5190020000000 1.0
C      1  0.5169530000000  0.5200260000000  0.4809110000000 1.0
C      1  0.5019900000000  0.5262110000000  0.5190230000000 1.0
C      1  0.5672830000000  0.4945400000000  0.5402960000000 1.0
C      1  0.5575470000000  0.5350360000000  0.4594860000000 1.0
C      1  0.5260590000000  0.5622650000000  0.5403070000000 1.0
C      1  0.4843880000000  0.5655960000000  0.4595760000000 1.0
C      1  0.4489090000000  0.5439860000000  0.5404420000000 1.0
C      1  0.4327170000000  0.5054600000000  0.4597040000000 1.0
C      1  0.4424530000000  0.4649640000000  0.5405140000000 1.0
C      1  0.4739410000000  0.4377350000000  0.4596930000000 1.0
C      1  0.5156120000000  0.4344040000000  0.5404240000000 1.0
C      1  0.5510910000000  0.4560140000000  0.4595580000000 1.0
C      1  0.5230550000000  0.4614420000000  0.5426110000000 1.0
C      1  0.5412150000000  0.4822580000000  0.4573320000000 1.0
C      1  0.5438730000000  0.5099710000000  0.5425410000000 1.0
C      1  0.5295320000000  0.5337550000000  0.4573100000000 1.0
C      1  0.5041520000000  0.5447670000000  0.5425750000000 1.0
C      1  0.4769450000000  0.5385580000000  0.4573890000000 1.0
C      1  0.4587850000000  0.5177420000000  0.5426680000000 1.0
C      1  0.4561270000000  0.4900290000000  0.4574590000000 1.0
C      1  0.4704680000000  0.4662450000000  0.5426900000000 1.0
C      1  0.4958480000000  0.4552330000000  0.4574250000000 1.0
C      1  0.4241320000000  0.4870830000000  0.5023780000000 1.0
C      1  0.4462090000000  0.4449510000000  0.4978780000000 1.0
C      1  0.4888440000000  0.4238520000000  0.5023270000000 1.0
C      1  0.5357280000000  0.4318320000000  0.4977490000000 1.0
C      1  0.5689780000000  0.4658570000000  0.5021680000000 1.0
C      1  0.5758680000000  0.5129170000000  0.4976220000000 1.0
C      1  0.5537910000000  0.5550490000000  0.5021220000000 1.0
C      1  0.5111560000000  0.5761480000000  0.4976730000000 1.0
C      1  0.4642720000000  0.5681680000000  0.5022510000000 1.0
C      1  0.4310220000000  0.5341430000000  0.4978320000000 1.0
END
