TITL C-9259-5960-216 -1.17636044715077e-06 125000 -373.911928486342 0 0 60 (C1) n - 1
REM
REM in /home/bkarasulu/CARBON/AIRSS/Generating-Clusters/EDIP-Nigel-Params/Higher-Symm/Box-15A/Only-C60/SD-CG/HFTN-CG
REM
REM
REM
REM
REM
REM ./C.cell (414f73aa93bd7a1190c7fd0f31ff2f98)
REM
REM compiler GCC version 9.2.1 20190827 (Red Hat 9.2.1-1)
REM options -cpp -mtune=generic -march=x86-64 -g -O0 -fpre-include=/usr/include/finclude/math-vector-fortran.h
REM seed -1997171335 -1088694259 -196358696 2081489951 287453918 463782112 -1268908112 -1864456497 525985328 1007557781 1332681884 143936754 2117163728 -980370111 -1758883864 1863427215 -1878983924 -1066327227 716645033 609067767 1094990798 -1646703861 -1262618694 1600019058 -967321175 -839512695 -20566512 -2077872658 -1841507777 -935604031 1257254720 536675105 1940870455
REM
CELL 1.54180   50.00000   50.00000   50.00000   90.00000   90.00000   90.00000
LATT -1
SFAC C  
C      1  0.5292650000000  0.4761270000000  0.5136150000000 1.0
C      1  0.5230940000000  0.5000910000000  0.4717990000000 1.0
C      1  0.5270210000000  0.5256400000000  0.5148470000000 1.0
C      1  0.4718230000000  0.5250790000000  0.5149300000000 1.0
C      1  0.4716230000000  0.5008810000000  0.4722630000000 1.0
C      1  0.4790270000000  0.4759730000000  0.5146340000000 1.0
C      1  0.4822790000000  0.5266700000000  0.4860510000000 1.0
C      1  0.4864200000000  0.5010320000000  0.5289680000000 1.0
C      1  0.4857230000000  0.4759120000000  0.4860140000000 1.0
C      1  0.5162280000000  0.4745310000000  0.4853730000000 1.0
C      1  0.5178520000000  0.5008540000000  0.5296480000000 1.0
C      1  0.5135740000000  0.5251000000000  0.4866720000000 1.0
C      1  0.5314240000000  0.4987910000000  0.4341910000000 1.0
C      1  0.5288580000000  0.5580810000000  0.5353370000000 1.0
C      1  0.5210590000000  0.4506990000000  0.5287140000000 1.0
C      1  0.4773720000000  0.5012610000000  0.4427420000000 1.0
C      1  0.4676020000000  0.4438020000000  0.5332480000000 1.0
C      1  0.4736610000000  0.5594820000000  0.5308310000000 1.0
C      1  0.4676670000000  0.4989280000000  0.5536820000000 1.0
C      1  0.4679710000000  0.4530770000000  0.4749200000000 1.0
C      1  0.4763070000000  0.5519780000000  0.4712040000000 1.0
C      1  0.5262940000000  0.5001480000000  0.5579700000000 1.0
C      1  0.5308880000000  0.5468200000000  0.4725840000000 1.0
C      1  0.5251100000000  0.4497310000000  0.4714440000000 1.0
C      1  0.4866140000000  0.5754670000000  0.4842990000000 1.0
C      1  0.4761360000000  0.4762900000000  0.5714310000000 1.0
C      1  0.4720130000000  0.4543420000000  0.4462590000000 1.0
C      1  0.5133640000000  0.4269150000000  0.4840220000000 1.0
C      1  0.5259700000000  0.5248060000000  0.5707840000000 1.0
C      1  0.5244440000000  0.5484620000000  0.4431940000000 1.0
C      1  0.5105930000000  0.4269430000000  0.5133980000000 1.0
C      1  0.5187920000000  0.5246110000000  0.4261040000000 1.0
C      1  0.5132700000000  0.5424640000000  0.5533370000000 1.0
C      1  0.4890760000000  0.5772090000000  0.5134540000000 1.0
C      1  0.4861550000000  0.4751220000000  0.4331480000000 1.0
C      1  0.4813890000000  0.4496430000000  0.5596170000000 1.0
C      1  0.4419170000000  0.4940890000000  0.5362120000000 1.0
C      1  0.4417850000000  0.4663430000000  0.4871630000000 1.0
C      1  0.4291450000000  0.5120030000000  0.4936730000000 1.0
C      1  0.5701780000000  0.5030990000000  0.5194480000000 1.0
C      1  0.5578750000000  0.5307650000000  0.4790570000000 1.0
C      1  0.5654770000000  0.4811040000000  0.4803950000000 1.0
C      1  0.5532230000000  0.5031100000000  0.4662900000000 1.0
C      1  0.5564310000000  0.5252000000000  0.5086260000000 1.0
C      1  0.5588420000000  0.4806270000000  0.5077080000000 1.0
C      1  0.4422720000000  0.4942090000000  0.4768400000000 1.0
C      1  0.4485050000000  0.4696380000000  0.5179420000000 1.0
C      1  0.4425010000000  0.5171590000000  0.5175660000000 1.0
C      1  0.5156630000000  0.4734090000000  0.4306460000000 1.0
C      1  0.5184350000000  0.5760700000000  0.5152490000000 1.0
C      1  0.5107960000000  0.4526660000000  0.5570120000000 1.0
C      1  0.4892250000000  0.5253710000000  0.4296500000000 1.0
C      1  0.4811030000000  0.4235310000000  0.5152650000000 1.0
C      1  0.4846970000000  0.5444080000000  0.5525700000000 1.0
C      1  0.4690750000000  0.5251590000000  0.5657830000000 1.0
C      1  0.4754950000000  0.4264630000000  0.4863820000000 1.0
C      1  0.4864130000000  0.5506940000000  0.4442520000000 1.0
C      1  0.5140380000000  0.4781040000000  0.5713940000000 1.0
C      1  0.5249740000000  0.5729760000000  0.4865620000000 1.0
C      1  0.5259770000000  0.4508410000000  0.4435850000000 1.0
END
