TITL C-9262-5533-3 -6.44330759009308e-07 125000 -363.202611325279 0 0 60 (C1) n - 1
REM
REM in /home/bkarasulu/CARBON/AIRSS/Generating-Clusters/EDIP-Nigel-Params/Higher-Symm/Box-15A/Only-C60/SD-CG/HFTN-CG
REM
REM
REM
REM
REM
REM ./C.cell (414f73aa93bd7a1190c7fd0f31ff2f98)
REM
REM compiler GCC version 9.2.1 20190827 (Red Hat 9.2.1-1)
REM options -cpp -mtune=generic -march=x86-64 -g -O0 -fpre-include=/usr/include/finclude/math-vector-fortran.h
REM seed -1280198269 2025812648 1913218337 -96769201 30379085 -214009459 -57996098 -2116014523 -1018412296 1400280738 -175505878 2132678466 -900846040 -1356262514 -2060541185 -1275749732 748923281 -864895352 -1616669824 -1562932366 -656188945 -942188990 -1694606643 -743580315 -1454872618 -1543890488 -387841871 1353444778 -1880968588 -1580690328 -590593596 -1493245376 640920404
REM
CELL 1.54180   50.00000   50.00000   50.00000   90.00000   90.00000   90.00000
LATT -1
SFAC C  
C      1  0.4432040000000  0.4991100000000  0.5666130000000 1.0
C      1  0.5845930000000  0.4951350000000  0.5164110000000 1.0
C      1  0.4717240000000  0.4979010000000  0.4220410000000 1.0
C      1  0.5495000000000  0.5223700000000  0.4445230000000 1.0
C      1  0.4259760000000  0.5239920000000  0.4873660000000 1.0
C      1  0.5246000000000  0.5286290000000  0.5659080000000 1.0
C      1  0.5225570000000  0.5277750000000  0.5078550000000 1.0
C      1  0.5012450000000  0.5309530000000  0.4755950000000 1.0
C      1  0.4789130000000  0.5297220000000  0.5130310000000 1.0
C      1  0.5161180000000  0.5002970000000  0.5648090000000 1.0
C      1  0.5487370000000  0.4943390000000  0.4534810000000 1.0
C      1  0.4334600000000  0.4957320000000  0.4825760000000 1.0
C      1  0.4831300000000  0.5722570000000  0.4896510000000 1.0
C      1  0.5041130000000  0.5756790000000  0.5096660000000 1.0
C      1  0.5218040000000  0.5758810000000  0.4867850000000 1.0
C      1  0.4595320000000  0.4424550000000  0.4800200000000 1.0
C      1  0.5001280000000  0.4439870000000  0.5482100000000 1.0
C      1  0.5379310000000  0.4407730000000  0.4781490000000 1.0
C      1  0.5061630000000  0.4992090000000  0.4730860000000 1.0
C      1  0.4733730000000  0.4995110000000  0.5075190000000 1.0
C      1  0.5192100000000  0.4985810000000  0.5182410000000 1.0
C      1  0.4925000000000  0.4877140000000  0.5260410000000 1.0
C      1  0.5250740000000  0.4853510000000  0.4928900000000 1.0
C      1  0.4799050000000  0.4881820000000  0.4808720000000 1.0
C      1  0.5245510000000  0.4558050000000  0.4979170000000 1.0
C      1  0.4833450000000  0.4579940000000  0.4815880000000 1.0
C      1  0.4897300000000  0.4577830000000  0.5255890000000 1.0
C      1  0.4878360000000  0.4994180000000  0.5528670000000 1.0
C      1  0.5515830000000  0.4947390000000  0.4838270000000 1.0
C      1  0.4570010000000  0.4972870000000  0.4639920000000 1.0
C      1  0.5462470000000  0.4637930000000  0.5404900000000 1.0
C      1  0.5093370000000  0.4617980000000  0.4408950000000 1.0
C      1  0.4423000000000  0.4636460000000  0.5231400000000 1.0
C      1  0.4869270000000  0.5208050000000  0.4295070000000 1.0
C      1  0.4460310000000  0.5215410000000  0.5496220000000 1.0
C      1  0.5701130000000  0.5192060000000  0.5200900000000 1.0
C      1  0.4791390000000  0.5340420000000  0.4553170000000 1.0
C      1  0.4768840000000  0.5280170000000  0.5455290000000 1.0
C      1  0.5516530000000  0.5239640000000  0.4951560000000 1.0
C      1  0.4611830000000  0.4796470000000  0.4405510000000 1.0
C      1  0.4656130000000  0.4825480000000  0.5636150000000 1.0
C      1  0.5707790000000  0.4777740000000  0.4991660000000 1.0
C      1  0.4320490000000  0.5158560000000  0.5243860000000 1.0
C      1  0.5543530000000  0.5167860000000  0.5446640000000 1.0
C      1  0.5153360000000  0.5139140000000  0.4288210000000 1.0
C      1  0.5034760000000  0.5453790000000  0.5546850000000 1.0
C      1  0.5500190000000  0.5400350000000  0.4679360000000 1.0
C      1  0.4476550000000  0.5392700000000  0.4753930000000 1.0
C      1  0.4433260000000  0.4450810000000  0.5022310000000 1.0
C      1  0.5273010000000  0.4466620000000  0.5517510000000 1.0
C      1  0.5271710000000  0.4438340000000  0.4529070000000 1.0
C      1  0.5533620000000  0.4555750000000  0.5114590000000 1.0
C      1  0.4799490000000  0.4564760000000  0.4495650000000 1.0
C      1  0.4637210000000  0.4584000000000  0.5446310000000 1.0
C      1  0.5232440000000  0.5520370000000  0.4704300000000 1.0
C      1  0.4661890000000  0.5497090000000  0.4950420000000 1.0
C      1  0.5095660000000  0.5502340000000  0.5251280000000 1.0
C      1  0.4444900000000  0.4919000000000  0.5115080000000 1.0
C      1  0.5363790000000  0.4929700000000  0.5423470000000 1.0
C      1  0.5186710000000  0.4905440000000  0.4469210000000 1.0
END
