TITL C-9261-551-302 2.24581553865817e-06 125000 -361.124649574119 0 0 60 (C1) n - 1
REM
REM in /home/bkarasulu/CARBON/AIRSS/Generating-Clusters/EDIP-Nigel-Params/Higher-Symm/Box-15A/Only-C60/SD-CG/HFTN-CG
REM
REM
REM
REM
REM
REM ./C.cell (414f73aa93bd7a1190c7fd0f31ff2f98)
REM
REM compiler GCC version 9.2.1 20190827 (Red Hat 9.2.1-1)
REM options -cpp -mtune=generic -march=x86-64 -g -O0 -fpre-include=/usr/include/finclude/math-vector-fortran.h
REM seed -369138896 483888321 -311012550 894926797 673891073 1181752542 1113512898 -1030709270 1388341429 -82677445 150804214 -1627185662 639881024 -903221583 1572711611 -1852104376 596195569 -732147934 -952454541 -1628734678 -1997217259 49930851 1003251597 -382150981 1217453770 -756328608 -1531303922 522942404 1806467867 1236831192 617779193 -2077373999 -290861650
REM
CELL 1.54180   50.00000   50.00000   50.00000   90.00000   90.00000   90.00000
LATT -1
SFAC C  
C      1  0.4333400000000  0.4613950000000  0.5169650000000 1.0
C      1  0.5201220000000  0.4619170000000  0.4336740000000 1.0
C      1  0.5478950000000  0.4631460000000  0.5503620000000 1.0
C      1  0.4992740000000  0.5727590000000  0.4696680000000 1.0
C      1  0.5238230000000  0.5724810000000  0.5145420000000 1.0
C      1  0.4728990000000  0.5723350000000  0.5140830000000 1.0
C      1  0.4744010000000  0.4341890000000  0.4701030000000 1.0
C      1  0.5403540000000  0.4345790000000  0.4927850000000 1.0
C      1  0.4876240000000  0.4342330000000  0.5389230000000 1.0
C      1  0.5273370000000  0.4471120000000  0.5143940000000 1.0
C      1  0.4753130000000  0.4468750000000  0.5169720000000 1.0
C      1  0.4994230000000  0.4470180000000  0.4700660000000 1.0
C      1  0.4776300000000  0.5362110000000  0.4444840000000 1.0
C      1  0.5558730000000  0.5364760000000  0.5076400000000 1.0
C      1  0.4630570000000  0.5362450000000  0.5461520000000 1.0
C      1  0.5426190000000  0.4906970000000  0.5595070000000 1.0
C      1  0.4278860000000  0.4889020000000  0.5077870000000 1.0
C      1  0.5303180000000  0.4896320000000  0.4328390000000 1.0
C      1  0.5586410000000  0.4854940000000  0.5042850000000 1.0
C      1  0.4667710000000  0.4847290000000  0.5496880000000 1.0
C      1  0.4748100000000  0.4844260000000  0.4466720000000 1.0
C      1  0.4426570000000  0.4974280000000  0.4837150000000 1.0
C      1  0.5443950000000  0.4984540000000  0.4574880000000 1.0
C      1  0.5140380000000  0.4988620000000  0.5601890000000 1.0
C      1  0.5131780000000  0.5355330000000  0.5355050000000 1.0
C      1  0.4647150000000  0.5341070000000  0.4947740000000 1.0
C      1  0.5224270000000  0.5356730000000  0.4674480000000 1.0
C      1  0.5056930000000  0.5129540000000  0.5190230000000 1.0
C      1  0.4869250000000  0.5138930000000  0.4976200000000 1.0
C      1  0.5094120000000  0.5130440000000  0.4802460000000 1.0
C      1  0.4535230000000  0.5538450000000  0.5253010000000 1.0
C      1  0.4989270000000  0.5560450000000  0.4456950000000 1.0
C      1  0.5442860000000  0.5554900000000  0.5259120000000 1.0
C      1  0.5604230000000  0.5082120000000  0.5467800000000 1.0
C      1  0.4286020000000  0.5063890000000  0.5296650000000 1.0
C      1  0.5104730000000  0.5068470000000  0.4227920000000 1.0
C      1  0.4512920000000  0.5092180000000  0.5457690000000 1.0
C      1  0.4852530000000  0.5091890000000  0.4349000000000 1.0
C      1  0.5627610000000  0.5103190000000  0.5189670000000 1.0
C      1  0.4736330000000  0.5704180000000  0.4841400000000 1.0
C      1  0.5246750000000  0.5702660000000  0.4850530000000 1.0
C      1  0.4979490000000  0.5706900000000  0.5295680000000 1.0
C      1  0.5541840000000  0.4596640000000  0.5196530000000 1.0
C      1  0.4568240000000  0.4585400000000  0.5377530000000 1.0
C      1  0.4905400000000  0.4585790000000  0.4438320000000 1.0
C      1  0.4559380000000  0.5414220000000  0.4650070000000 1.0
C      1  0.5516690000000  0.5427150000000  0.4782800000000 1.0
C      1  0.4908520000000  0.5430540000000  0.5564050000000 1.0
C      1  0.5009780000000  0.5210560000000  0.5741250000000 1.0
C      1  0.4361540000000  0.5194920000000  0.4661900000000 1.0
C      1  0.5624600000000  0.5207880000000  0.4613920000000 1.0
C      1  0.4486900000000  0.4836610000000  0.4590110000000 1.0
C      1  0.5624020000000  0.4848880000000  0.4756260000000 1.0
C      1  0.4897450000000  0.4847930000000  0.5672250000000 1.0
C      1  0.5161210000000  0.4347380000000  0.5381950000000 1.0
C      1  0.4608050000000  0.4342470000000  0.4951820000000 1.0
C      1  0.5256890000000  0.4347900000000  0.4683220000000 1.0
C      1  0.5297300000000  0.4439810000000  0.5609080000000 1.0
C      1  0.4339940000000  0.4424210000000  0.4957740000000 1.0
C      1  0.5385830000000  0.4434440000000  0.4449770000000 1.0
END
