TITL C-9256-7861-58 3.20419004375534e-06 125000 -360.337446151041 0 0 60 (C2) n - 1
REM
REM in /home/bkarasulu/CARBON/AIRSS/Generating-Clusters/EDIP-Nigel-Params/Higher-Symm/Box-15A/Only-C60/SD-CG/HFTN-CG
REM
REM
REM
REM
REM
REM ./C.cell (414f73aa93bd7a1190c7fd0f31ff2f98)
REM
REM compiler GCC version 9.2.1 20190827 (Red Hat 9.2.1-1)
REM options -cpp -mtune=generic -march=x86-64 -g -O0 -fpre-include=/usr/include/finclude/math-vector-fortran.h
REM seed 1138041877 -479731637 -950446221 1091303781 1195156287 -1461757621 -305117553 -1195381843 -1431493288 2089694637 -61562857 -1322226721 1712583977 1520919524 1844094362 2094855612 -2037037752 -1624023148 -485457966 -1242356378 -1539423943 216624839 144290957 -320850001 -1873001686 339003184 -307514147 -484076286 2017604000 1687090417 410828185 1530409181 -1055743934
REM
CELL 1.54180   50.00000   50.00000   50.00000   90.00000   90.00000   90.00000
LATT -1
SFAC C  
C      1  0.5516560000000  0.5213330000000  0.5551600000000 1.0
C      1  0.4516060000000  0.5230180000000  0.5461980000000 1.0
C      1  0.4483450000000  0.5213270000000  0.4448370000000 1.0
C      1  0.5483950000000  0.5230080000000  0.4537990000000 1.0
C      1  0.5793540000000  0.5070070000000  0.5002410000000 1.0
C      1  0.5008580000000  0.5064570000000  0.5800670000000 1.0
C      1  0.4206460000000  0.5070120000000  0.4997580000000 1.0
C      1  0.4991420000000  0.5064440000000  0.4199320000000 1.0
C      1  0.4905790000000  0.4697740000000  0.4542310000000 1.0
C      1  0.5457020000000  0.4693090000000  0.4913310000000 1.0
C      1  0.5094190000000  0.4697800000000  0.5457740000000 1.0
C      1  0.4542960000000  0.4693130000000  0.5086740000000 1.0
C      1  0.5343600000000  0.4417700000000  0.4897850000000 1.0
C      1  0.5101920000000  0.4424050000000  0.5337640000000 1.0
C      1  0.4656360000000  0.4417740000000  0.5102240000000 1.0
C      1  0.4898050000000  0.4424000000000  0.4662450000000 1.0
C      1  0.4718380000000  0.5007760000000  0.4228460000000 1.0
C      1  0.5744790000000  0.5029660000000  0.4730600000000 1.0
C      1  0.5281620000000  0.5007870000000  0.5771540000000 1.0
C      1  0.4255210000000  0.5029750000000  0.5269400000000 1.0
C      1  0.5285340000000  0.5261120000000  0.5122890000000 1.0
C      1  0.4993360000000  0.5305270000000  0.5377730000000 1.0
C      1  0.4714670000000  0.5261120000000  0.4877060000000 1.0
C      1  0.5006660000000  0.5305210000000  0.4622220000000 1.0
C      1  0.5106790000000  0.5765480000000  0.5257920000000 1.0
C      1  0.4805560000000  0.5741360000000  0.5024310000000 1.0
C      1  0.4893260000000  0.5765440000000  0.4741960000000 1.0
C      1  0.5194480000000  0.5741350000000  0.4975580000000 1.0
C      1  0.4709730000000  0.4337220000000  0.4844020000000 1.0
C      1  0.5156770000000  0.4342850000000  0.4710130000000 1.0
C      1  0.5290230000000  0.4337220000000  0.5156080000000 1.0
C      1  0.4843190000000  0.4342910000000  0.5289970000000 1.0
C      1  0.5014360000000  0.4944300000000  0.5243700000000 1.0
C      1  0.4778450000000  0.4931210000000  0.5013300000000 1.0
C      1  0.4985640000000  0.4944260000000  0.4756310000000 1.0
C      1  0.5221550000000  0.4931190000000  0.4986710000000 1.0
C      1  0.4829410000000  0.5544770000000  0.4560740000000 1.0
C      1  0.5327710000000  0.5484430000000  0.4917710000000 1.0
C      1  0.5170630000000  0.5544830000000  0.5439170000000 1.0
C      1  0.4672320000000  0.5484460000000  0.5082220000000 1.0
C      1  0.4499550000000  0.4976950000000  0.4612570000000 1.0
C      1  0.5358440000000  0.4974910000000  0.4519160000000 1.0
C      1  0.5500450000000  0.4976980000000  0.5387430000000 1.0
C      1  0.4641560000000  0.4975010000000  0.5480840000000 1.0
C      1  0.4795900000000  0.4903160000000  0.5714650000000 1.0
C      1  0.4284760000000  0.4901440000000  0.4789860000000 1.0
C      1  0.5204100000000  0.4903040000000  0.4285360000000 1.0
C      1  0.5715240000000  0.4901430000000  0.5210150000000 1.0
C      1  0.4576790000000  0.5412460000000  0.4629270000000 1.0
C      1  0.5285830000000  0.5410380000000  0.4640650000000 1.0
C      1  0.5423230000000  0.5412490000000  0.5370670000000 1.0
C      1  0.4714190000000  0.5410460000000  0.5359290000000 1.0
C      1  0.5098920000000  0.4650160000000  0.4321670000000 1.0
C      1  0.5675270000000  0.4650710000000  0.5105410000000 1.0
C      1  0.4901060000000  0.4650280000000  0.5678380000000 1.0
C      1  0.4324710000000  0.4650740000000  0.4894650000000 1.0
C      1  0.5353200000000  0.4802710000000  0.5570760000000 1.0
C      1  0.4439410000000  0.4810900000000  0.5344650000000 1.0
C      1  0.4646790000000  0.4802650000000  0.4429270000000 1.0
C      1  0.5560570000000  0.4810810000000  0.4655380000000 1.0
END
