TITL C-9268-6400-315 -0.000439045498411208 125000 -365.025331767325 0 0 60 (C1) n - 1
REM
REM in /home/bkarasulu/CARBON/AIRSS/Generating-Clusters/EDIP-Nigel-Params/Higher-Symm/Box-15A/Only-C60/SD-CG/HFTN-CG
REM
REM
REM
REM
REM
REM ./C.cell (414f73aa93bd7a1190c7fd0f31ff2f98)
REM
REM compiler GCC version 9.2.1 20190827 (Red Hat 9.2.1-1)
REM options -cpp -mtune=generic -march=x86-64 -g -O0 -fpre-include=/usr/include/finclude/math-vector-fortran.h
REM seed 137854396 -2066301240 -22599022 -424178675 211478489 1724910545 -223715851 -224215067 -690024430 -379391565 521661318 -1328848475 -270987606 -1941618953 466427830 -1101174162 -2043399782 -123935266 2009039022 843321895 1091088014 -1663978744 -46360503 -2041124795 1096985313 637622231 1917712761 144220973 -1068938466 -1206765416 848356393 -1545886560 -434588006
REM
CELL 1.54180   50.00000   50.00000   50.00000   90.00000   90.00000   90.00000
LATT -1
SFAC C  
C      1  0.5895180000000  0.4842790000000  0.4823190000000 1.0
C      1  0.5908010000000  0.4775220000000  0.5102810000000 1.0
C      1  0.5894070000000  0.5020920000000  0.5252420000000 1.0
C      1  0.5885070000000  0.5240300000000  0.5066520000000 1.0
C      1  0.5884140000000  0.5129470000000  0.4800970000000 1.0
C      1  0.4117950000000  0.4805110000000  0.4898950000000 1.0
C      1  0.4124990000000  0.4859120000000  0.5180870000000 1.0
C      1  0.4108320000000  0.5143990000000  0.5218670000000 1.0
C      1  0.4102220000000  0.5265430000000  0.4957470000000 1.0
C      1  0.4095190000000  0.5055780000000  0.4759800000000 1.0
C      1  0.4828820000000  0.4777980000000  0.4845560000000 1.0
C      1  0.4860650000000  0.4779680000000  0.5161960000000 1.0
C      1  0.4826110000000  0.5085790000000  0.5251540000000 1.0
C      1  0.4766510000000  0.5256560000000  0.4990360000000 1.0
C      1  0.4831280000000  0.5076770000000  0.4735980000000 1.0
C      1  0.5213370000000  0.4793760000000  0.4827510000000 1.0
C      1  0.5175010000000  0.4763060000000  0.5144230000000 1.0
C      1  0.5212090000000  0.5057030000000  0.5254650000000 1.0
C      1  0.5151930000000  0.5263050000000  0.5018030000000 1.0
C      1  0.5145200000000  0.5097210000000  0.4744960000000 1.0
C      1  0.5124710000000  0.5256650000000  0.4277160000000 1.0
C      1  0.5141870000000  0.4404070000000  0.4533920000000 1.0
C      1  0.5143930000000  0.4352840000000  0.5416680000000 1.0
C      1  0.5135670000000  0.5166010000000  0.5728860000000 1.0
C      1  0.5108370000000  0.5749410000000  0.5000910000000 1.0
C      1  0.4862070000000  0.5219410000000  0.4263820000000 1.0
C      1  0.4877370000000  0.4384880000000  0.4555160000000 1.0
C      1  0.4879180000000  0.4367410000000  0.5433290000000 1.0
C      1  0.4870170000000  0.5179490000000  0.5729080000000 1.0
C      1  0.4843180000000  0.5743400000000  0.4982720000000 1.0
C      1  0.4136200000000  0.5536740000000  0.4904920000000 1.0
C      1  0.4179310000000  0.5088180000000  0.4498600000000 1.0
C      1  0.4195840000000  0.4567660000000  0.4781160000000 1.0
C      1  0.4215470000000  0.4679370000000  0.5369800000000 1.0
C      1  0.4198540000000  0.5270370000000  0.5447480000000 1.0
C      1  0.5786530000000  0.5491470000000  0.5126460000000 1.0
C      1  0.5793380000000  0.5264880000000  0.4578110000000 1.0
C      1  0.5829810000000  0.4664530000000  0.4621870000000 1.0
C      1  0.5825190000000  0.4531820000000  0.5204620000000 1.0
C      1  0.5834320000000  0.5040420000000  0.5522360000000 1.0
C      1  0.4433550000000  0.5103650000000  0.4421080000000 1.0
C      1  0.4440320000000  0.4484270000000  0.4717090000000 1.0
C      1  0.4462020000000  0.4585570000000  0.5403750000000 1.0
C      1  0.4452270000000  0.5275430000000  0.5528770000000 1.0
C      1  0.4397600000000  0.5594520000000  0.4916920000000 1.0
C      1  0.5541930000000  0.5288090000000  0.4494520000000 1.0
C      1  0.5584410000000  0.4577910000000  0.4564290000000 1.0
C      1  0.5571780000000  0.4468020000000  0.5256410000000 1.0
C      1  0.5580530000000  0.5070210000000  0.5599360000000 1.0
C      1  0.5533640000000  0.5574510000000  0.5118110000000 1.0
C      1  0.4660320000000  0.5538290000000  0.4978630000000 1.0
C      1  0.4701410000000  0.5136200000000  0.4469790000000 1.0
C      1  0.4706870000000  0.4548220000000  0.4696180000000 1.0
C      1  0.4723860000000  0.4565630000000  0.5324640000000 1.0
C      1  0.4700900000000  0.5159330000000  0.5513510000000 1.0
C      1  0.5277790000000  0.5534420000000  0.5026010000000 1.0
C      1  0.5277880000000  0.5214520000000  0.4500690000000 1.0
C      1  0.5320470000000  0.4583110000000  0.4641740000000 1.0
C      1  0.5306290000000  0.4530770000000  0.5285600000000 1.0
C      1  0.5318940000000  0.5119310000000  0.5529490000000 1.0
END
