TITL C-9257-5531-192 1.24352203428232e-07 125000 -376.964166154317 0 0 60 (C1) n - 1
REM
REM in /home/bkarasulu/CARBON/AIRSS/Generating-Clusters/EDIP-Nigel-Params/Higher-Symm/Box-15A/Only-C60/SD-CG/HFTN-CG
REM
REM
REM
REM
REM
REM ./C.cell (414f73aa93bd7a1190c7fd0f31ff2f98)
REM
REM compiler GCC version 9.2.1 20190827 (Red Hat 9.2.1-1)
REM options -cpp -mtune=generic -march=x86-64 -g -O0 -fpre-include=/usr/include/finclude/math-vector-fortran.h
REM seed -1222050360 -474241861 1529562431 1810720868 -1973460211 -1482772213 1286399627 -2015765513 2001059077 1404973945 -2007608713 193885143 2099785736 -1827981947 -1181019777 2015362178 1118613988 -1790411107 258115430 -1379391000 2087880442 1248846450 413731947 1005616199 303673688 1192737619 -257601156 1549198064 2113425007 818864862 -1739838642 786640648 1591199993
REM
CELL 1.54180   50.00000   50.00000   50.00000   90.00000   90.00000   90.00000
LATT -1
SFAC C  
C      1  0.4784370000000  0.5424360000000  0.5469060000000 1.0
C      1  0.5493480000000  0.4758200000000  0.5413700000000 1.0
C      1  0.5405790000000  0.5509630000000  0.4780380000000 1.0
C      1  0.4854630000000  0.4462940000000  0.4382870000000 1.0
C      1  0.5231500000000  0.4444950000000  0.5520990000000 1.0
C      1  0.5368660000000  0.5469080000000  0.4495400000000 1.0
C      1  0.5504130000000  0.5213510000000  0.4450590000000 1.0
C      1  0.4487460000000  0.5413970000000  0.5417850000000 1.0
C      1  0.4601730000000  0.4765890000000  0.4643020000000 1.0
C      1  0.5379600000000  0.4424490000000  0.5280410000000 1.0
C      1  0.4697210000000  0.4492900000000  0.4616020000000 1.0
C      1  0.4441080000000  0.5600370000000  0.5184760000000 1.0
C      1  0.5414430000000  0.5346430000000  0.5638080000000 1.0
C      1  0.4355350000000  0.4777170000000  0.5583430000000 1.0
C      1  0.4654990000000  0.5645620000000  0.4593540000000 1.0
C      1  0.5413980000000  0.4589330000000  0.4482110000000 1.0
C      1  0.4583250000000  0.4617920000000  0.5525800000000 1.0
C      1  0.4608550000000  0.5391710000000  0.4490520000000 1.0
C      1  0.4374710000000  0.5271520000000  0.4577590000000 1.0
C      1  0.5580730000000  0.5406670000000  0.5408380000000 1.0
C      1  0.5668640000000  0.4674030000000  0.4556820000000 1.0
C      1  0.4602610000000  0.4570870000000  0.5232290000000 1.0
C      1  0.5333130000000  0.4366470000000  0.4627980000000 1.0
C      1  0.5407600000000  0.5638870000000  0.5383180000000 1.0
C      1  0.4440950000000  0.4879390000000  0.4856320000000 1.0
C      1  0.4758630000000  0.4299700000000  0.4822450000000 1.0
C      1  0.4946010000000  0.4728660000000  0.4335390000000 1.0
C      1  0.4369050000000  0.5175230000000  0.5280530000000 1.0
C      1  0.5581090000000  0.5106630000000  0.4709650000000 1.0
C      1  0.5653690000000  0.4934360000000  0.5238610000000 1.0
C      1  0.4703380000000  0.5658720000000  0.5080910000000 1.0
C      1  0.5252210000000  0.5706260000000  0.4929340000000 1.0
C      1  0.5180860000000  0.4305020000000  0.5104680000000 1.0
C      1  0.4925370000000  0.5231350000000  0.5648250000000 1.0
C      1  0.5079750000000  0.5276480000000  0.4336000000000 1.0
C      1  0.5083940000000  0.4680360000000  0.5564350000000 1.0
C      1  0.5734010000000  0.4870020000000  0.4741880000000 1.0
C      1  0.5195630000000  0.4223580000000  0.4824230000000 1.0
C      1  0.5217250000000  0.4798420000000  0.4417500000000 1.0
C      1  0.5557030000000  0.5210070000000  0.5189160000000 1.0
C      1  0.4309640000000  0.5134090000000  0.4809770000000 1.0
C      1  0.4294870000000  0.4894010000000  0.5332240000000 1.0
C      1  0.5189760000000  0.5619920000000  0.5200090000000 1.0
C      1  0.4767710000000  0.5764780000000  0.4817980000000 1.0
C      1  0.4738720000000  0.4345210000000  0.5109710000000 1.0
C      1  0.5204170000000  0.5162370000000  0.5581680000000 1.0
C      1  0.4822550000000  0.5202300000000  0.4446430000000 1.0
C      1  0.4817510000000  0.4736480000000  0.5662530000000 1.0
C      1  0.5286900000000  0.5068250000000  0.4320120000000 1.0
C      1  0.4780920000000  0.5006230000000  0.5732950000000 1.0
C      1  0.4741400000000  0.4920020000000  0.4431950000000 1.0
C      1  0.5282960000000  0.4881460000000  0.5584280000000 1.0
C      1  0.5574680000000  0.5307490000000  0.4912560000000 1.0
C      1  0.4907940000000  0.5622840000000  0.5283760000000 1.0
C      1  0.5762530000000  0.4810590000000  0.5011470000000 1.0
C      1  0.4389710000000  0.4727450000000  0.5104790000000 1.0
C      1  0.4263570000000  0.5293190000000  0.5040930000000 1.0
C      1  0.4951340000000  0.4105760000000  0.4742940000000 1.0
C      1  0.4949490000000  0.4215250000000  0.5244930000000 1.0
C      1  0.5037190000000  0.5821180000000  0.4794880000000 1.0
END
