TITL C-9257-5531-79 -6.04575543195963e-07 125000 -358.755121384891 0 0 60 (C1) n - 1
REM
REM in /home/bkarasulu/CARBON/AIRSS/Generating-Clusters/EDIP-Nigel-Params/Higher-Symm/Box-15A/Only-C60/SD-CG/HFTN-CG
REM
REM
REM
REM
REM
REM ./C.cell (414f73aa93bd7a1190c7fd0f31ff2f98)
REM
REM compiler GCC version 9.2.1 20190827 (Red Hat 9.2.1-1)
REM options -cpp -mtune=generic -march=x86-64 -g -O0 -fpre-include=/usr/include/finclude/math-vector-fortran.h
REM seed -1951679334 81907192 -1815493423 988211071 -1153183858 -1761301091 -203625800 416651739 -801102106 2147161011 1522296664 154969929 1707257237 -404149522 475497274 211973241 -64913955 1202915914 821411941 1332457200 -338726136 -528428117 -1087484656 -1714612421 938708573 1404751525 -250925707 539001547 827762044 -211845741 1292065958 -1731445152 -2064971173
REM
CELL 1.54180   50.00000   50.00000   50.00000   90.00000   90.00000   90.00000
LATT -1
SFAC C  
C      1  0.5490140000000  0.4413980000000  0.4919630000000 1.0
C      1  0.5361540000000  0.5210250000000  0.5152770000000 1.0
C      1  0.5211680000000  0.5099700000000  0.4922870000000 1.0
C      1  0.5560030000000  0.5166200000000  0.4595280000000 1.0
C      1  0.4999320000000  0.5091370000000  0.5532240000000 1.0
C      1  0.5294660000000  0.5536150000000  0.4691940000000 1.0
C      1  0.4579830000000  0.5306970000000  0.5708430000000 1.0
C      1  0.5385730000000  0.4845350000000  0.4901110000000 1.0
C      1  0.5432110000000  0.4217340000000  0.5109720000000 1.0
C      1  0.5148790000000  0.4856530000000  0.4344850000000 1.0
C      1  0.5564140000000  0.4882020000000  0.4658990000000 1.0
C      1  0.5670250000000  0.4614580000000  0.5033390000000 1.0
C      1  0.4271200000000  0.4913010000000  0.4693690000000 1.0
C      1  0.4300270000000  0.4704370000000  0.4903430000000 1.0
C      1  0.4986180000000  0.4490820000000  0.4918700000000 1.0
C      1  0.4720670000000  0.4564500000000  0.4488710000000 1.0
C      1  0.5255800000000  0.4478400000000  0.4720760000000 1.0
C      1  0.4823460000000  0.5451030000000  0.4747590000000 1.0
C      1  0.4816470000000  0.5109820000000  0.5276540000000 1.0
C      1  0.4471060000000  0.5376850000000  0.5443810000000 1.0
C      1  0.4507360000000  0.5306570000000  0.4448310000000 1.0
C      1  0.4932170000000  0.5000520000000  0.5019380000000 1.0
C      1  0.4584430000000  0.4704860000000  0.4926360000000 1.0
C      1  0.5009100000000  0.4732680000000  0.5103450000000 1.0
C      1  0.5610700000000  0.4848630000000  0.5207850000000 1.0
C      1  0.5272380000000  0.5239850000000  0.4648710000000 1.0
C      1  0.4719320000000  0.4491630000000  0.4774710000000 1.0
C      1  0.4964210000000  0.4660890000000  0.5400420000000 1.0
C      1  0.5014010000000  0.4592440000000  0.4426020000000 1.0
C      1  0.5314560000000  0.5043470000000  0.5560620000000 1.0
C      1  0.4590030000000  0.5401770000000  0.4929550000000 1.0
C      1  0.4895530000000  0.4839830000000  0.5638620000000 1.0
C      1  0.4841490000000  0.5199940000000  0.5755730000000 1.0
C      1  0.5642670000000  0.5214020000000  0.5079710000000 1.0
C      1  0.4949160000000  0.4287590000000  0.5148670000000 1.0
C      1  0.5077590000000  0.5686420000000  0.5106630000000 1.0
C      1  0.5089040000000  0.5131320000000  0.4438070000000 1.0
C      1  0.4894970000000  0.5586020000000  0.5298320000000 1.0
C      1  0.4575720000000  0.4933270000000  0.5350300000000 1.0
C      1  0.5678080000000  0.5343730000000  0.4815030000000 1.0
C      1  0.4532950000000  0.4659980000000  0.5218100000000 1.0
C      1  0.5235440000000  0.4548060000000  0.5438020000000 1.0
C      1  0.5049890000000  0.5615280000000  0.4830110000000 1.0
C      1  0.4687060000000  0.4977850000000  0.4850920000000 1.0
C      1  0.4368130000000  0.5102790000000  0.5455980000000 1.0
C      1  0.5546640000000  0.5600160000000  0.4805470000000 1.0
C      1  0.4752180000000  0.4450310000000  0.5333230000000 1.0
C      1  0.5437320000000  0.4788210000000  0.5449940000000 1.0
C      1  0.4689370000000  0.5384960000000  0.5233480000000 1.0
C      1  0.5232500000000  0.5415140000000  0.5334740000000 1.0
C      1  0.5388240000000  0.5483130000000  0.5564570000000 1.0
C      1  0.4526860000000  0.4785560000000  0.4435140000000 1.0
C      1  0.4614320000000  0.5035710000000  0.4561770000000 1.0
C      1  0.4325260000000  0.5408510000000  0.4646190000000 1.0
C      1  0.5482770000000  0.5248350000000  0.5659120000000 1.0
C      1  0.4951920000000  0.5319200000000  0.4284110000000 1.0
C      1  0.5385700000000  0.4698890000000  0.4494160000000 1.0
C      1  0.5220960000000  0.4280800000000  0.5283850000000 1.0
C      1  0.4766830000000  0.5436670000000  0.4459930000000 1.0
C      1  0.4299820000000  0.5185730000000  0.4820260000000 1.0
END
