TITL C-9265-7156-334 -4.34511964872336e-06 125000 -344.515019608265 0 0 60 (C2) n - 1
REM
REM in /home/bkarasulu/CARBON/AIRSS/Generating-Clusters/EDIP-Nigel-Params/Higher-Symm/Box-15A/Only-C60/SD-CG/HFTN-CG
REM
REM
REM
REM
REM
REM ./C.cell (414f73aa93bd7a1190c7fd0f31ff2f98)
REM
REM compiler GCC version 9.2.1 20190827 (Red Hat 9.2.1-1)
REM options -cpp -mtune=generic -march=x86-64 -g -O0 -fpre-include=/usr/include/finclude/math-vector-fortran.h
REM seed -772280127 -50876735 1972025410 -1253657149 1545103209 -858129158 -766670709 1457734163 -1497187932 294640757 183074964 1923515859 1546746004 -46868291 1559178843 1724023713 -85894740 777439742 -1190680351 -12711832 2105592435 -151351542 -71408463 436819232 -38533353 330460905 1288634155 1496492715 413329669 -943720291 963336350 739868065 1032835034
REM
CELL 1.54180   50.00000   50.00000   50.00000   90.00000   90.00000   90.00000
LATT -1
SFAC C  
C      1  0.4803800000000  0.5158450000000  0.5155290000000 1.0
C      1  0.5248050000000  0.5156100000000  0.4842260000000 1.0
C      1  0.4804750000000  0.4841870000000  0.5155340000000 1.0
C      1  0.5246810000000  0.4842780000000  0.4843070000000 1.0
C      1  0.4804830000000  0.5158390000000  0.4844830000000 1.0
C      1  0.5247160000000  0.5156900000000  0.5156710000000 1.0
C      1  0.4803460000000  0.4841810000000  0.4844880000000 1.0
C      1  0.5247980000000  0.4843570000000  0.5157520000000 1.0
C      1  0.5469440000000  0.5332140000000  0.4743390000000 1.0
C      1  0.4568530000000  0.5314120000000  0.5253670000000 1.0
C      1  0.5466450000000  0.4664730000000  0.4744910000000 1.0
C      1  0.4572150000000  0.4683640000000  0.5253920000000 1.0
C      1  0.5467120000000  0.5334650000000  0.5254680000000 1.0
C      1  0.4572340000000  0.5316930000000  0.4746450000000 1.0
C      1  0.5469230000000  0.4667240000000  0.5256200000000 1.0
C      1  0.4567890000000  0.4686450000000  0.4746710000000 1.0
C      1  0.4809590000000  0.5775460000000  0.5150910000000 1.0
C      1  0.5081880000000  0.5609280000000  0.4848820000000 1.0
C      1  0.4824190000000  0.4224820000000  0.5166690000000 1.0
C      1  0.5071360000000  0.4385540000000  0.4839160000000 1.0
C      1  0.4825070000000  0.5775410000000  0.4833470000000 1.0
C      1  0.5072320000000  0.5614370000000  0.5160770000000 1.0
C      1  0.4808430000000  0.4224790000000  0.4849250000000 1.0
C      1  0.5081210000000  0.4390610000000  0.5151110000000 1.0
C      1  0.4582390000000  0.5440480000000  0.4487680000000 1.0
C      1  0.5443670000000  0.5451330000000  0.5516340000000 1.0
C      1  0.4577430000000  0.4560570000000  0.4488560000000 1.0
C      1  0.5446680000000  0.4552880000000  0.5519040000000 1.0
C      1  0.4578460000000  0.5439980000000  0.5511810000000 1.0
C      1  0.5446810000000  0.5446530000000  0.4480560000000 1.0
C      1  0.4582260000000  0.4560070000000  0.5512690000000 1.0
C      1  0.5442620000000  0.4548090000000  0.4483270000000 1.0
C      1  0.4865500000000  0.5257780000000  0.4113580000000 1.0
C      1  0.5157110000000  0.5261880000000  0.5884840000000 1.0
C      1  0.4863150000000  0.4739200000000  0.4114750000000 1.0
C      1  0.5158800000000  0.4743280000000  0.5886330000000 1.0
C      1  0.4864280000000  0.5260970000000  0.5885370000000 1.0
C      1  0.5158350000000  0.5256510000000  0.4113530000000 1.0
C      1  0.4865940000000  0.4742400000000  0.5886540000000 1.0
C      1  0.5155980000000  0.4737910000000  0.4115020000000 1.0
C      1  0.5385430000000  0.4378800000000  0.4831530000000 1.0
C      1  0.4553520000000  0.4380080000000  0.5168860000000 1.0
C      1  0.5390590000000  0.5619240000000  0.4827430000000 1.0
C      1  0.4542870000000  0.5617550000000  0.5167830000000 1.0
C      1  0.5389920000000  0.4380250000000  0.5172220000000 1.0
C      1  0.4541910000000  0.4383060000000  0.4832580000000 1.0
C      1  0.5386400000000  0.5620690000000  0.5168130000000 1.0
C      1  0.4554190000000  0.5620510000000  0.4831540000000 1.0
C      1  0.5201070000000  0.5439420000000  0.5659410000000 1.0
C      1  0.4821370000000  0.5436690000000  0.4337990000000 1.0
C      1  0.5204070000000  0.4564560000000  0.5662070000000 1.0
C      1  0.4817200000000  0.4561750000000  0.4339940000000 1.0
C      1  0.5204060000000  0.5435180000000  0.4337750000000 1.0
C      1  0.4818360000000  0.5438500000000  0.5660220000000 1.0
C      1  0.5199910000000  0.4560320000000  0.4340420000000 1.0
C      1  0.4821380000000  0.4563550000000  0.5662170000000 1.0
C      1  0.4759050000000  0.5001370000000  0.5893670000000 1.0
C      1  0.5263090000000  0.4996710000000  0.4105680000000 1.0
C      1  0.4758260000000  0.4998950000000  0.4106540000000 1.0
C      1  0.5263880000000  0.5002950000000  0.5894090000000 1.0
END
