TITL C-9255-4564-217 -2.47045356665604e-06 125000 -364.657711464344 0 0 60 (C1) n - 1
REM
REM in /home/bkarasulu/CARBON/AIRSS/Generating-Clusters/EDIP-Nigel-Params/Higher-Symm/Box-15A/Only-C60/SD-CG/HFTN-CG
REM
REM
REM
REM
REM
REM ./C.cell (414f73aa93bd7a1190c7fd0f31ff2f98)
REM
REM compiler GCC version 9.2.1 20190827 (Red Hat 9.2.1-1)
REM options -cpp -mtune=generic -march=x86-64 -g -O0 -fpre-include=/usr/include/finclude/math-vector-fortran.h
REM seed 1985713572 -1544354523 -1449248652 236274888 -619727771 1674856930 -1184610292 -2127653487 748847526 357359067 -327386365 -1648497188 1608230972 -1701596918 -1716817719 -853589142 -1450838630 152861892 729255455 1561660469 -471970084 1165266365 1149344036 -377474634 1810771685 758472864 -908605908 504699384 -1171897901 -802567102 -350253520 971868142 1235961754
REM
CELL 1.54180   50.00000   50.00000   50.00000   90.00000   90.00000   90.00000
LATT -1
SFAC C  
C      1  0.4432310000000  0.5204320000000  0.5104260000000 1.0
C      1  0.5442670000000  0.5399510000000  0.5082550000000 1.0
C      1  0.5107800000000  0.4421050000000  0.5093670000000 1.0
C      1  0.4436820000000  0.4936360000000  0.4981060000000 1.0
C      1  0.5228830000000  0.5577480000000  0.4972260000000 1.0
C      1  0.5341030000000  0.4557080000000  0.4979550000000 1.0
C      1  0.5545020000000  0.5091450000000  0.4683980000000 1.0
C      1  0.4797420000000  0.4464580000000  0.4679650000000 1.0
C      1  0.4661000000000  0.5436820000000  0.4698860000000 1.0
C      1  0.4636590000000  0.4512540000000  0.5169470000000 1.0
C      1  0.4734920000000  0.5603550000000  0.5180910000000 1.0
C      1  0.5602460000000  0.4944590000000  0.5166010000000 1.0
C      1  0.5646530000000  0.5055830000000  0.5428790000000 1.0
C      1  0.4732350000000  0.4436170000000  0.5430080000000 1.0
C      1  0.4642730000000  0.5499460000000  0.5445790000000 1.0
C      1  0.5479610000000  0.5128020000000  0.4971400000000 1.0
C      1  0.4850620000000  0.4504920000000  0.4972140000000 1.0
C      1  0.4661390000000  0.5375810000000  0.4997240000000 1.0
C      1  0.5041030000000  0.5677980000000  0.5183350000000 1.0
C      1  0.5526860000000  0.4657260000000  0.5177440000000 1.0
C      1  0.4432770000000  0.4726330000000  0.5181540000000 1.0
C      1  0.4474260000000  0.4852210000000  0.4485600000000 1.0
C      1  0.5123680000000  0.5526930000000  0.4486830000000 1.0
C      1  0.5390970000000  0.4627680000000  0.4493840000000 1.0
C      1  0.5009590000000  0.4345480000000  0.4535190000000 1.0
C      1  0.4448670000000  0.5331560000000  0.4547160000000 1.0
C      1  0.5557050000000  0.5330370000000  0.4533870000000 1.0
C      1  0.5210940000000  0.5131430000000  0.5438990000000 1.0
C      1  0.5057160000000  0.4725470000000  0.5520360000000 1.0
C      1  0.4753870000000  0.5042910000000  0.5448340000000 1.0
C      1  0.5226580000000  0.5671080000000  0.4705080000000 1.0
C      1  0.5440080000000  0.4484090000000  0.4727270000000 1.0
C      1  0.4333590000000  0.4886790000000  0.4724380000000 1.0
C      1  0.5140630000000  0.4535230000000  0.4369020000000 1.0
C      1  0.4538240000000  0.5120480000000  0.4379300000000 1.0
C      1  0.5328120000000  0.5346560000000  0.4367640000000 1.0
C      1  0.5547400000000  0.4822710000000  0.5589910000000 1.0
C      1  0.4568010000000  0.4630760000000  0.5593920000000 1.0
C      1  0.4909700000000  0.5493530000000  0.5585990000000 1.0
C      1  0.5070640000000  0.5200870000000  0.4818880000000 1.0
C      1  0.5137430000000  0.4905040000000  0.4805350000000 1.0
C      1  0.4823540000000  0.4895260000000  0.4777650000000 1.0
C      1  0.5212980000000  0.5069080000000  0.4328870000000 1.0
C      1  0.4961170000000  0.4771630000000  0.4320560000000 1.0
C      1  0.4835110000000  0.5137920000000  0.4354630000000 1.0
C      1  0.4783630000000  0.4815320000000  0.5646440000000 1.0
C      1  0.4961360000000  0.5213650000000  0.5564710000000 1.0
C      1  0.5282840000000  0.4919350000000  0.5651970000000 1.0
C      1  0.5163400000000  0.4904280000000  0.5188800000000 1.0
C      1  0.4838860000000  0.4904180000000  0.5159940000000 1.0
C      1  0.4901450000000  0.5207180000000  0.5060180000000 1.0
C      1  0.5103350000000  0.4438000000000  0.5399530000000 1.0
C      1  0.4481360000000  0.5186380000000  0.5405580000000 1.0
C      1  0.5411070000000  0.5363220000000  0.5381800000000 1.0
C      1  0.5157880000000  0.5591570000000  0.5441010000000 1.0
C      1  0.5461130000000  0.4574320000000  0.5444000000000 1.0
C      1  0.4375660000000  0.4813120000000  0.5450960000000 1.0
C      1  0.4917840000000  0.5330770000000  0.4582270000000 1.0
C      1  0.5333720000000  0.4913550000000  0.4563600000000 1.0
C      1  0.4746260000000  0.4728920000000  0.4540550000000 1.0
END
