TITL C-9256-7861-149 5.48781899349462e-05 125000 -359.28744421767 0 0 60 (C1) n - 1
REM
REM in /home/bkarasulu/CARBON/AIRSS/Generating-Clusters/EDIP-Nigel-Params/Higher-Symm/Box-15A/Only-C60/SD-CG/HFTN-CG
REM
REM
REM
REM
REM
REM ./C.cell (414f73aa93bd7a1190c7fd0f31ff2f98)
REM
REM compiler GCC version 9.2.1 20190827 (Red Hat 9.2.1-1)
REM options -cpp -mtune=generic -march=x86-64 -g -O0 -fpre-include=/usr/include/finclude/math-vector-fortran.h
REM seed 578810659 1742826761 60114464 243231122 397288621 638950054 1174130434 -1196033523 433710540 1266829460 -405503750 -1363890386 1992938799 2108050003 2106978493 -685409703 -1194940327 -1406644147 -1644013054 -1992611798 -21635445 439833893 744122858 -1094381832 -2064904448 -1992187334 -1553441246 973828934 1370054142 1834012498 665146938 -834785311 1268746972
REM
CELL 1.54180   50.00000   50.00000   50.00000   90.00000   90.00000   90.00000
LATT -1
SFAC C  
C      1  0.5439130000000  0.5493510000000  0.5299600000000 1.0
C      1  0.4457650000000  0.5494450000000  0.5271280000000 1.0
C      1  0.5039860000000  0.5530000000000  0.4450750000000 1.0
C      1  0.5051940000000  0.4704150000000  0.5205890000000 1.0
C      1  0.4778110000000  0.4722840000000  0.5018410000000 1.0
C      1  0.5141330000000  0.4760590000000  0.4794550000000 1.0
C      1  0.5391330000000  0.4512530000000  0.5415010000000 1.0
C      1  0.4420490000000  0.4508030000000  0.5161920000000 1.0
C      1  0.5156240000000  0.4518840000000  0.4430740000000 1.0
C      1  0.5695180000000  0.5094770000000  0.5126570000000 1.0
C      1  0.4465770000000  0.5074140000000  0.5532160000000 1.0
C      1  0.4850740000000  0.5091830000000  0.4296880000000 1.0
C      1  0.5548610000000  0.5519980000000  0.4604530000000 1.0
C      1  0.5090850000000  0.5460160000000  0.5661500000000 1.0
C      1  0.4376790000000  0.5444400000000  0.4753400000000 1.0
C      1  0.4719110000000  0.5025960000000  0.4964110000000 1.0
C      1  0.5177030000000  0.5059730000000  0.4797340000000 1.0
C      1  0.5074070000000  0.5010650000000  0.5271690000000 1.0
C      1  0.4203530000000  0.4888680000000  0.4993140000000 1.0
C      1  0.5462450000000  0.4823610000000  0.4257270000000 1.0
C      1  0.5399230000000  0.4894900000000  0.5692530000000 1.0
C      1  0.5591470000000  0.4722840000000  0.4486680000000 1.0
C      1  0.5140140000000  0.4784140000000  0.5724270000000 1.0
C      1  0.4325610000000  0.4773040000000  0.4764820000000 1.0
C      1  0.4747770000000  0.5430720000000  0.5306230000000 1.0
C      1  0.4853440000000  0.5445810000000  0.4666820000000 1.0
C      1  0.5250150000000  0.5444530000000  0.5099030000000 1.0
C      1  0.4778370000000  0.4511940000000  0.4791810000000 1.0
C      1  0.5369770000000  0.4601440000000  0.4914840000000 1.0
C      1  0.4891980000000  0.4484710000000  0.5369640000000 1.0
C      1  0.5258890000000  0.5156560000000  0.5073700000000 1.0
C      1  0.4793590000000  0.5130460000000  0.5239690000000 1.0
C      1  0.4895450000000  0.5145570000000  0.4735990000000 1.0
C      1  0.4910300000000  0.4940720000000  0.5764720000000 1.0
C      1  0.4420800000000  0.4926390000000  0.4548330000000 1.0
C      1  0.5732640000000  0.4884510000000  0.4665960000000 1.0
C      1  0.4331800000000  0.5294280000000  0.5421490000000 1.0
C      1  0.4996220000000  0.5328140000000  0.4261880000000 1.0
C      1  0.5667450000000  0.5338950000000  0.5260750000000 1.0
C      1  0.5695320000000  0.4869270000000  0.5291930000000 1.0
C      1  0.4360940000000  0.4812180000000  0.5480260000000 1.0
C      1  0.4973460000000  0.4865800000000  0.4183620000000 1.0
C      1  0.4237580000000  0.4725170000000  0.5225990000000 1.0
C      1  0.5206290000000  0.4709020000000  0.4215760000000 1.0
C      1  0.5539580000000  0.4749760000000  0.5492410000000 1.0
C      1  0.5751920000000  0.5102670000000  0.4838230000000 1.0
C      1  0.4721140000000  0.5132530000000  0.5677210000000 1.0
C      1  0.4580300000000  0.5127720000000  0.4426280000000 1.0
C      1  0.5330830000000  0.5510250000000  0.5554020000000 1.0
C      1  0.4370780000000  0.5522280000000  0.5008880000000 1.0
C      1  0.5301500000000  0.5582540000000  0.4528150000000 1.0
C      1  0.5394320000000  0.4442610000000  0.5143360000000 1.0
C      1  0.4611640000000  0.4535490000000  0.5380690000000 1.0
C      1  0.4899550000000  0.4587840000000  0.4547440000000 1.0
C      1  0.4573860000000  0.5399330000000  0.4560650000000 1.0
C      1  0.5718700000000  0.5348790000000  0.4717170000000 1.0
C      1  0.4823820000000  0.5403760000000  0.5598970000000 1.0
C      1  0.5408870000000  0.4529050000000  0.4614730000000 1.0
C      1  0.5127140000000  0.4534550000000  0.5557790000000 1.0
C      1  0.4477170000000  0.4530870000000  0.4860530000000 1.0
END
