TITL C-9256-7861-336 -2.51677573505678e-07 125000 -362.90488592237 0 0 60 (C1) n - 1
REM
REM in /home/bkarasulu/CARBON/AIRSS/Generating-Clusters/EDIP-Nigel-Params/Higher-Symm/Box-15A/Only-C60/SD-CG/HFTN-CG
REM
REM
REM
REM
REM
REM ./C.cell (414f73aa93bd7a1190c7fd0f31ff2f98)
REM
REM compiler GCC version 9.2.1 20190827 (Red Hat 9.2.1-1)
REM options -cpp -mtune=generic -march=x86-64 -g -O0 -fpre-include=/usr/include/finclude/math-vector-fortran.h
REM seed 899015565 -2021652433 224198243 637747626 -1334390054 438720798 -714410462 2476017 -297049750 226926609 -1262591964 -1273537530 -1184131221 -556947255 -1775485273 1768130034 1970662715 1663843248 1300204915 -814130780 -226358989 855264417 -300163386 141008961 -719331356 1469653594 -620631390 -1323819181 2035729401 -1834452862 -86997077 1593972470 -238092710
REM
CELL 1.54180   50.00000   50.00000   50.00000   90.00000   90.00000   90.00000
LATT -1
SFAC C  
C      1  0.4547820000000  0.5272960000000  0.4708880000000 1.0
C      1  0.4474500000000  0.4484070000000  0.5172720000000 1.0
C      1  0.5248650000000  0.4495570000000  0.4504350000000 1.0
C      1  0.4330280000000  0.4786130000000  0.5400590000000 1.0
C      1  0.5816680000000  0.4888930000000  0.4556110000000 1.0
C      1  0.5524530000000  0.5245070000000  0.5322470000000 1.0
C      1  0.4557600000000  0.5564620000000  0.4801860000000 1.0
C      1  0.5281730000000  0.5403120000000  0.5334030000000 1.0
C      1  0.5301400000000  0.4512970000000  0.4789460000000 1.0
C      1  0.5134850000000  0.5405900000000  0.5592850000000 1.0
C      1  0.4789820000000  0.5214030000000  0.4536220000000 1.0
C      1  0.4700120000000  0.4672110000000  0.5418740000000 1.0
C      1  0.5496870000000  0.5240340000000  0.4598470000000 1.0
C      1  0.5528230000000  0.4612940000000  0.5180570000000 1.0
C      1  0.4754170000000  0.4503020000000  0.4507360000000 1.0
C      1  0.5704140000000  0.4825550000000  0.5305360000000 1.0
C      1  0.4204890000000  0.4946430000000  0.4643950000000 1.0
C      1  0.4386700000000  0.5218050000000  0.5473590000000 1.0
C      1  0.5575070000000  0.5519010000000  0.4700300000000 1.0
C      1  0.4703660000000  0.5505350000000  0.5213880000000 1.0
C      1  0.4712660000000  0.4520140000000  0.4790660000000 1.0
C      1  0.4698350000000  0.5402030000000  0.5500440000000 1.0
C      1  0.5229550000000  0.5219730000000  0.4462320000000 1.0
C      1  0.5131070000000  0.4592540000000  0.5495390000000 1.0
C      1  0.5386910000000  0.5640650000000  0.4892630000000 1.0
C      1  0.4798260000000  0.5119420000000  0.5581370000000 1.0
C      1  0.5848240000000  0.4963960000000  0.5075430000000 1.0
C      1  0.5281460000000  0.4461950000000  0.5268870000000 1.0
C      1  0.4849530000000  0.4346320000000  0.4978800000000 1.0
C      1  0.4919290000000  0.5614420000000  0.5055020000000 1.0
C      1  0.4692490000000  0.4737170000000  0.4367800000000 1.0
C      1  0.5151950000000  0.4891330000000  0.5456150000000 1.0
C      1  0.5139740000000  0.4959490000000  0.4373890000000 1.0
C      1  0.5486800000000  0.5081780000000  0.4847430000000 1.0
C      1  0.4321580000000  0.5178130000000  0.5190580000000 1.0
C      1  0.4341260000000  0.4857240000000  0.4886560000000 1.0
C      1  0.4818090000000  0.5687210000000  0.4799240000000 1.0
C      1  0.5090140000000  0.5121280000000  0.5678560000000 1.0
C      1  0.4194370000000  0.4903750000000  0.5160000000000 1.0
C      1  0.4685420000000  0.4287870000000  0.5203560000000 1.0
C      1  0.5141290000000  0.4394820000000  0.5007540000000 1.0
C      1  0.5198920000000  0.5552330000000  0.5094870000000 1.0
C      1  0.5300510000000  0.4728910000000  0.4357200000000 1.0
C      1  0.4852220000000  0.4917070000000  0.5369630000000 1.0
C      1  0.4857010000000  0.4956840000000  0.4424630000000 1.0
C      1  0.4533390000000  0.5100650000000  0.4958750000000 1.0
C      1  0.5657610000000  0.5225300000000  0.5061700000000 1.0
C      1  0.5691510000000  0.4854670000000  0.4817870000000 1.0
C      1  0.4305620000000  0.5190530000000  0.4570470000000 1.0
C      1  0.4901330000000  0.5569200000000  0.5632970000000 1.0
C      1  0.5013450000000  0.5385470000000  0.4535230000000 1.0
C      1  0.4871470000000  0.4487170000000  0.5555640000000 1.0
C      1  0.4331830000000  0.4977960000000  0.5614760000000 1.0
C      1  0.5707510000000  0.5112900000000  0.4444420000000 1.0
C      1  0.5577100000000  0.5015820000000  0.5479630000000 1.0
C      1  0.4464640000000  0.5578800000000  0.5073510000000 1.0
C      1  0.5560040000000  0.4594880000000  0.4890820000000 1.0
C      1  0.4999310000000  0.4386660000000  0.4443520000000 1.0
C      1  0.4457160000000  0.4581940000000  0.4899110000000 1.0
C      1  0.5739240000000  0.5485500000000  0.4941260000000 1.0
END
