TITL C-9259-5960-72 -3.81620998203162e-06 125000 -364.995004354903 0 0 60 (C1) n - 1
REM
REM in /home/bkarasulu/CARBON/AIRSS/Generating-Clusters/EDIP-Nigel-Params/Higher-Symm/Box-15A/Only-C60/SD-CG/HFTN-CG
REM
REM
REM
REM
REM
REM ./C.cell (414f73aa93bd7a1190c7fd0f31ff2f98)
REM
REM compiler GCC version 9.2.1 20190827 (Red Hat 9.2.1-1)
REM options -cpp -mtune=generic -march=x86-64 -g -O0 -fpre-include=/usr/include/finclude/math-vector-fortran.h
REM seed 870116050 -674669121 -953405857 1428234317 -700758487 2040851366 996507163 -1848963937 522633221 1704733485 -1700954731 -1483017490 665050697 -266642218 932902205 751502252 734437845 2110776289 2035800701 -1413383499 1003081749 975130612 -55836657 1073188432 -1147570852 1539191024 -769764061 -1361750951 419753256 -1935307895 592118957 -750980039 331070441
REM
CELL 1.54180   50.00000   50.00000   50.00000   90.00000   90.00000   90.00000
LATT -1
SFAC C  
C      1  0.5019880000000  0.4274010000000  0.5150740000000 1.0
C      1  0.5020010000000  0.4273530000000  0.4850440000000 1.0
C      1  0.4592870000000  0.5310900000000  0.4687250000000 1.0
C      1  0.4591830000000  0.5312010000000  0.5310880000000 1.0
C      1  0.4617910000000  0.4374880000000  0.5404560000000 1.0
C      1  0.4618560000000  0.4373840000000  0.4595470000000 1.0
C      1  0.4639180000000  0.5776220000000  0.5150610000000 1.0
C      1  0.4642430000000  0.5755370000000  0.4883270000000 1.0
C      1  0.4897450000000  0.5044930000000  0.5560170000000 1.0
C      1  0.4898770000000  0.5043470000000  0.4438430000000 1.0
C      1  0.4509250000000  0.4836110000000  0.5200150000000 1.0
C      1  0.4509570000000  0.4835370000000  0.4798280000000 1.0
C      1  0.5155070000000  0.4526340000000  0.4736940000000 1.0
C      1  0.5154760000000  0.4527270000000  0.5263640000000 1.0
C      1  0.5572460000000  0.4760760000000  0.4685080000000 1.0
C      1  0.5572340000000  0.4761740000000  0.5315060000000 1.0
C      1  0.5167530000000  0.5134120000000  0.5665810000000 1.0
C      1  0.5168980000000  0.5131690000000  0.4332510000000 1.0
C      1  0.5408200000000  0.5466310000000  0.5406750000000 1.0
C      1  0.5409090000000  0.5464830000000  0.4590430000000 1.0
C      1  0.5045180000000  0.5488830000000  0.4844600000000 1.0
C      1  0.5045120000000  0.5490620000000  0.5151470000000 1.0
C      1  0.4694020000000  0.5075040000000  0.5148740000000 1.0
C      1  0.4694370000000  0.5074200000000  0.4849450000000 1.0
C      1  0.4613250000000  0.4650930000000  0.4554860000000 1.0
C      1  0.4612800000000  0.4652110000000  0.5444180000000 1.0
C      1  0.4781300000000  0.4203130000000  0.4723620000000 1.0
C      1  0.4781080000000  0.4203800000000  0.5277470000000 1.0
C      1  0.4655820000000  0.5218840000000  0.5585330000000 1.0
C      1  0.4658190000000  0.5218640000000  0.4412790000000 1.0
C      1  0.4238880000000  0.4980130000000  0.4844510000000 1.0
C      1  0.4238650000000  0.4980590000000  0.5151850000000 1.0
C      1  0.5422780000000  0.5175810000000  0.4693930000000 1.0
C      1  0.5422520000000  0.5176740000000  0.5304820000000 1.0
C      1  0.5796360000000  0.4892610000000  0.5189130000000 1.0
C      1  0.5796530000000  0.4892010000000  0.4810830000000 1.0
C      1  0.5296860000000  0.5646300000000  0.4803940000000 1.0
C      1  0.5297080000000  0.5647020000000  0.5191860000000 1.0
C      1  0.5136420000000  0.4642560000000  0.4448910000000 1.0
C      1  0.5135820000000  0.4644370000000  0.5551250000000 1.0
C      1  0.5681200000000  0.5156350000000  0.5146940000000 1.0
C      1  0.5681320000000  0.5155870000000  0.4852060000000 1.0
C      1  0.4764400000000  0.5550570000000  0.4743450000000 1.0
C      1  0.4764940000000  0.5552110000000  0.5257920000000 1.0
C      1  0.4300860000000  0.5284340000000  0.4838360000000 1.0
C      1  0.4300260000000  0.5284830000000  0.5157240000000 1.0
C      1  0.5156280000000  0.5187100000000  0.4844160000000 1.0
C      1  0.5156060000000  0.5187880000000  0.5154450000000 1.0
C      1  0.5432800000000  0.4560780000000  0.4848410000000 1.0
C      1  0.5432630000000  0.4561370000000  0.5152420000000 1.0
C      1  0.5007760000000  0.4742740000000  0.4860920000000 1.0
C      1  0.5007470000000  0.4743280000000  0.5138850000000 1.0
C      1  0.5340340000000  0.4889490000000  0.4441110000000 1.0
C      1  0.5339220000000  0.4891630000000  0.5558730000000 1.0
C      1  0.4851640000000  0.4751360000000  0.5611350000000 1.0
C      1  0.4852410000000  0.4749730000000  0.4387880000000 1.0
C      1  0.4951370000000  0.5003550000000  0.4740390000000 1.0
C      1  0.4950780000000  0.5004600000000  0.5258450000000 1.0
C      1  0.5250430000000  0.5401020000000  0.4365030000000 1.0
C      1  0.5248660000000  0.5403430000000  0.5631900000000 1.0
END
