TITL C-9268-6400-94 -2.30274308706465e-05 125000 -355.73917830629 0 0 60 (C1) n - 1
REM
REM in /home/bkarasulu/CARBON/AIRSS/Generating-Clusters/EDIP-Nigel-Params/Higher-Symm/Box-15A/Only-C60/SD-CG/HFTN-CG
REM
REM
REM
REM
REM
REM ./C.cell (414f73aa93bd7a1190c7fd0f31ff2f98)
REM
REM compiler GCC version 9.2.1 20190827 (Red Hat 9.2.1-1)
REM options -cpp -mtune=generic -march=x86-64 -g -O0 -fpre-include=/usr/include/finclude/math-vector-fortran.h
REM seed 1549275242 -333319457 -577342505 -1166262225 -1937796458 2140305769 -1914004895 942671833 -2012845770 -1345396529 -1146904361 -677446293 -2042848867 -647879318 -559476298 1448695352 1743926217 844983819 -843662568 -2078664356 -1345545659 -1947749630 -253297129 1176521837 1071821575 9585760 -861570476 399775619 1876907545 1045337009 1853330293 1357221410 -27627639
REM
CELL 1.54180   50.00000   50.00000   50.00000   90.00000   90.00000   90.00000
LATT -1
SFAC C  
C      1  0.5319700000000  0.5602530000000  0.4181890000000 1.0
C      1  0.4691850000000  0.4440170000000  0.4067150000000 1.0
C      1  0.5268940000000  0.5607870000000  0.5721930000000 1.0
C      1  0.4766100000000  0.4420930000000  0.5966100000000 1.0
C      1  0.5261850000000  0.4478440000000  0.4068830000000 1.0
C      1  0.4757690000000  0.5575900000000  0.4101050000000 1.0
C      1  0.5301630000000  0.4501030000000  0.5906630000000 1.0
C      1  0.4669420000000  0.5573900000000  0.5810510000000 1.0
C      1  0.5425770000000  0.5301760000000  0.5351640000000 1.0
C      1  0.4627240000000  0.4575050000000  0.5282310000000 1.0
C      1  0.5305700000000  0.5336160000000  0.4834860000000 1.0
C      1  0.4618300000000  0.4603720000000  0.4757570000000 1.0
C      1  0.5293750000000  0.4610260000000  0.5248450000000 1.0
C      1  0.4693520000000  0.5331790000000  0.5267000000000 1.0
C      1  0.5275920000000  0.4648540000000  0.4724590000000 1.0
C      1  0.4652710000000  0.5322020000000  0.4722150000000 1.0
C      1  0.4684860000000  0.5350130000000  0.5955790000000 1.0
C      1  0.5313650000000  0.4699110000000  0.6084310000000 1.0
C      1  0.4708710000000  0.5426240000000  0.3883350000000 1.0
C      1  0.5335610000000  0.4657220000000  0.3882320000000 1.0
C      1  0.4778940000000  0.4642740000000  0.6114700000000 1.0
C      1  0.5260490000000  0.5412180000000  0.5932470000000 1.0
C      1  0.4697890000000  0.4669930000000  0.3932000000000 1.0
C      1  0.5331270000000  0.5393850000000  0.4016330000000 1.0
C      1  0.5213320000000  0.5373590000000  0.5543480000000 1.0
C      1  0.4843630000000  0.4417660000000  0.5387050000000 1.0
C      1  0.5116370000000  0.5507130000000  0.4704090000000 1.0
C      1  0.4822810000000  0.4455740000000  0.4621660000000 1.0
C      1  0.5102010000000  0.4538890000000  0.5448910000000 1.0
C      1  0.4885430000000  0.5501300000000  0.5391220000000 1.0
C      1  0.5075060000000  0.4571150000000  0.4532910000000 1.0
C      1  0.4878060000000  0.5411060000000  0.4564960000000 1.0
C      1  0.4865660000000  0.4882110000000  0.3874230000000 1.0
C      1  0.5173390000000  0.5194410000000  0.3907770000000 1.0
C      1  0.4870320000000  0.4903110000000  0.6153730000000 1.0
C      1  0.5145980000000  0.5149290000000  0.5915570000000 1.0
C      1  0.4865790000000  0.5196500000000  0.3898510000000 1.0
C      1  0.5171270000000  0.4880880000000  0.3906360000000 1.0
C      1  0.4836640000000  0.5118320000000  0.5935120000000 1.0
C      1  0.5181060000000  0.4936500000000  0.6138920000000 1.0
C      1  0.4512220000000  0.5101120000000  0.4632710000000 1.0
C      1  0.5435450000000  0.4865380000000  0.4661440000000 1.0
C      1  0.4630570000000  0.5094200000000  0.5390400000000 1.0
C      1  0.5492390000000  0.4786470000000  0.5323350000000 1.0
C      1  0.4515920000000  0.4834480000000  0.4644030000000 1.0
C      1  0.5425380000000  0.5129960000000  0.4695600000000 1.0
C      1  0.4600910000000  0.4830000000000  0.5386240000000 1.0
C      1  0.5527260000000  0.5046050000000  0.5374470000000 1.0
C      1  0.4838110000000  0.4314790000000  0.4263540000000 1.0
C      1  0.5148810000000  0.5701670000000  0.4373360000000 1.0
C      1  0.4885510000000  0.4300000000000  0.5749400000000 1.0
C      1  0.5069300000000  0.5804900000000  0.5714190000000 1.0
C      1  0.4868930000000  0.5614180000000  0.4353520000000 1.0
C      1  0.5116110000000  0.4405320000000  0.4294590000000 1.0
C      1  0.4839910000000  0.5675500000000  0.5616300000000 1.0
C      1  0.5159070000000  0.4392700000000  0.5695120000000 1.0
C      1  0.5200560000000  0.4633950000000  0.4989970000000 1.0
C      1  0.4702640000000  0.5325220000000  0.4992850000000 1.0
C      1  0.5388640000000  0.5392650000000  0.5092730000000 1.0
C      1  0.4553990000000  0.4532370000000  0.5017750000000 1.0
END
