TITL C-9264-7143-42 1.39322629876183e-05 125000 -357.474393356203 0 0 60 (C1) n - 1
REM
REM in /home/bkarasulu/CARBON/AIRSS/Generating-Clusters/EDIP-Nigel-Params/Higher-Symm/Box-15A/Only-C60/SD-CG/HFTN-CG
REM
REM
REM
REM
REM
REM ./C.cell (414f73aa93bd7a1190c7fd0f31ff2f98)
REM
REM compiler GCC version 9.2.1 20190827 (Red Hat 9.2.1-1)
REM options -cpp -mtune=generic -march=x86-64 -g -O0 -fpre-include=/usr/include/finclude/math-vector-fortran.h
REM seed 1769315093 1266119425 -266172729 1186285066 -649242507 -1221944098 1412360859 -1538470138 1346503489 1677653931 51213770 -1192226232 -1685048788 -686772787 36522093 1853366274 2042674243 1872632518 735758372 -531619450 605275318 -1073804082 -280115274 1768678505 752434231 -1366742989 -1704077287 43065452 -444389053 1195153500 451154993 -1155010722 2008279471
REM
CELL 1.54180   50.00000   50.00000   50.00000   90.00000   90.00000   90.00000
LATT -1
SFAC C  
C      1  0.5701380000000  0.4626060000000  0.5309110000000 1.0
C      1  0.5610370000000  0.5376110000000  0.4537040000000 1.0
C      1  0.5580420000000  0.5212220000000  0.5531350000000 1.0
C      1  0.5802390000000  0.4803480000000  0.4754960000000 1.0
C      1  0.4725680000000  0.4368090000000  0.5311610000000 1.0
C      1  0.4546240000000  0.5675170000000  0.4688340000000 1.0
C      1  0.4601150000000  0.5672200000000  0.5254690000000 1.0
C      1  0.4453870000000  0.4459500000000  0.4754990000000 1.0
C      1  0.4793630000000  0.5139580000000  0.5375730000000 1.0
C      1  0.4809940000000  0.4806910000000  0.4646690000000 1.0
C      1  0.4803020000000  0.4835770000000  0.5344670000000 1.0
C      1  0.4802720000000  0.5114000000000  0.4627130000000 1.0
C      1  0.4815000000000  0.4226040000000  0.4561780000000 1.0
C      1  0.5004930000000  0.5669740000000  0.5423660000000 1.0
C      1  0.4975920000000  0.5687610000000  0.4492810000000 1.0
C      1  0.5163740000000  0.4354250000000  0.5542190000000 1.0
C      1  0.5351040000000  0.5289290000000  0.5395860000000 1.0
C      1  0.5548850000000  0.4749480000000  0.4857210000000 1.0
C      1  0.5493720000000  0.4670850000000  0.5132580000000 1.0
C      1  0.5346010000000  0.5370460000000  0.4621030000000 1.0
C      1  0.4836860000000  0.4655970000000  0.4383240000000 1.0
C      1  0.4921160000000  0.5259520000000  0.5629060000000 1.0
C      1  0.4929160000000  0.5229630000000  0.4373070000000 1.0
C      1  0.4890380000000  0.4707640000000  0.5599140000000 1.0
C      1  0.4512190000000  0.5174280000000  0.4677860000000 1.0
C      1  0.4414340000000  0.4919900000000  0.5285310000000 1.0
C      1  0.4376340000000  0.4946650000000  0.4774220000000 1.0
C      1  0.4505530000000  0.5189300000000  0.5342260000000 1.0
C      1  0.5316480000000  0.4867370000000  0.4717900000000 1.0
C      1  0.5233810000000  0.5092470000000  0.5193270000000 1.0
C      1  0.5264190000000  0.5150060000000  0.4816300000000 1.0
C      1  0.5221880000000  0.4748850000000  0.5230920000000 1.0
C      1  0.4448550000000  0.5429710000000  0.5187790000000 1.0
C      1  0.4556240000000  0.4728170000000  0.4839510000000 1.0
C      1  0.4573380000000  0.4700190000000  0.5171110000000 1.0
C      1  0.4461680000000  0.5424080000000  0.4812230000000 1.0
C      1  0.4858050000000  0.4381440000000  0.5061970000000 1.0
C      1  0.4788170000000  0.5805350000000  0.4811290000000 1.0
C      1  0.4832280000000  0.5725080000000  0.5085560000000 1.0
C      1  0.4679350000000  0.4254190000000  0.4850470000000 1.0
C      1  0.5159740000000  0.4634630000000  0.5512600000000 1.0
C      1  0.5128910000000  0.5450760000000  0.4425380000000 1.0
C      1  0.5142850000000  0.5444660000000  0.5553500000000 1.0
C      1  0.5000180000000  0.4434090000000  0.4488780000000 1.0
C      1  0.5921620000000  0.5000700000000  0.4621150000000 1.0
C      1  0.5758840000000  0.5021880000000  0.5581630000000 1.0
C      1  0.5837390000000  0.5237920000000  0.4534880000000 1.0
C      1  0.5814710000000  0.4774870000000  0.5499300000000 1.0
C      1  0.4945640000000  0.4793890000000  0.4170120000000 1.0
C      1  0.4955440000000  0.5118240000000  0.5870130000000 1.0
C      1  0.5003830000000  0.5053280000000  0.4171080000000 1.0
C      1  0.4881270000000  0.4865200000000  0.5827490000000 1.0
C      1  0.5015610000000  0.4628970000000  0.5034030000000 1.0
C      1  0.4972010000000  0.5199200000000  0.4851380000000 1.0
C      1  0.4961190000000  0.5190580000000  0.5138070000000 1.0
C      1  0.5074040000000  0.4689820000000  0.4754190000000 1.0
C      1  0.4698450000000  0.5658350000000  0.4445940000000 1.0
C      1  0.4903120000000  0.4275610000000  0.5504920000000 1.0
C      1  0.4545190000000  0.4343850000000  0.4498670000000 1.0
C      1  0.4729950000000  0.5686830000000  0.5510870000000 1.0
END
