TITL C-9262-5533-263 -8.19524437357542e-06 125000 -365.445008522964 0 0 60 (C1) n - 1
REM
REM in /home/bkarasulu/CARBON/AIRSS/Generating-Clusters/EDIP-Nigel-Params/Higher-Symm/Box-15A/Only-C60/SD-CG/HFTN-CG
REM
REM
REM
REM
REM
REM ./C.cell (414f73aa93bd7a1190c7fd0f31ff2f98)
REM
REM compiler GCC version 9.2.1 20190827 (Red Hat 9.2.1-1)
REM options -cpp -mtune=generic -march=x86-64 -g -O0 -fpre-include=/usr/include/finclude/math-vector-fortran.h
REM seed -793701544 1783307840 1675932436 -1114423730 1711208853 689055126 2039464427 -320156677 1744699819 -981489938 -763105220 -326929514 1862875081 705789337 2074878466 -1082089232 1135513868 -1873650049 -98576581 -215617434 497091197 -74116886 -1767883813 1242902944 -1880280699 -1174322542 1731627860 -262496193 1605115452 -1519146263 190977021 1788190759 -673052992
REM
CELL 1.54180   50.00000   50.00000   50.00000   90.00000   90.00000   90.00000
LATT -1
SFAC C  
C      1  0.5318100000000  0.4465130000000  0.5289530000000 1.0
C      1  0.5340160000000  0.5563110000000  0.5374150000000 1.0
C      1  0.5284400000000  0.5020010000000  0.4388800000000 1.0
C      1  0.4921070000000  0.4503390000000  0.5549040000000 1.0
C      1  0.4961860000000  0.5729720000000  0.5116460000000 1.0
C      1  0.4878050000000  0.4789600000000  0.4229760000000 1.0
C      1  0.5487880000000  0.4655670000000  0.4885170000000 1.0
C      1  0.5464840000000  0.5104670000000  0.5395650000000 1.0
C      1  0.5455800000000  0.5265120000000  0.4776940000000 1.0
C      1  0.5460580000000  0.5691210000000  0.4941920000000 1.0
C      1  0.5459870000000  0.4607710000000  0.4435250000000 1.0
C      1  0.5430710000000  0.4740590000000  0.5648180000000 1.0
C      1  0.4459130000000  0.4764990000000  0.4498280000000 1.0
C      1  0.4502660000000  0.4723160000000  0.5401090000000 1.0
C      1  0.4575160000000  0.5438930000000  0.5003130000000 1.0
C      1  0.4643660000000  0.4264910000000  0.4820150000000 1.0
C      1  0.4620570000000  0.5228260000000  0.5722990000000 1.0
C      1  0.4601750000000  0.5504630000000  0.4500520000000 1.0
C      1  0.5349460000000  0.5113850000000  0.5663440000000 1.0
C      1  0.5317270000000  0.5488940000000  0.4652190000000 1.0
C      1  0.5368070000000  0.4421780000000  0.4753630000000 1.0
C      1  0.4374170000000  0.4632300000000  0.4734240000000 1.0
C      1  0.4415810000000  0.4987460000000  0.5359670000000 1.0
C      1  0.4363440000000  0.5326140000000  0.4854110000000 1.0
C      1  0.4885120000000  0.4361090000000  0.4704650000000 1.0
C      1  0.4860910000000  0.5076960000000  0.5666550000000 1.0
C      1  0.4843500000000  0.5585780000000  0.4617880000000 1.0
C      1  0.5077950000000  0.4501700000000  0.5117980000000 1.0
C      1  0.5087280000000  0.5408730000000  0.5422200000000 1.0
C      1  0.5036550000000  0.5120340000000  0.4524280000000 1.0
C      1  0.4846550000000  0.4987040000000  0.5340170000000 1.0
C      1  0.5011190000000  0.5279600000000  0.4949750000000 1.0
C      1  0.4863260000000  0.4647030000000  0.4637530000000 1.0
C      1  0.4477000000000  0.4461810000000  0.4934400000000 1.0
C      1  0.4500930000000  0.5233840000000  0.5467210000000 1.0
C      1  0.4449480000000  0.5287070000000  0.4590610000000 1.0
C      1  0.4851250000000  0.5517240000000  0.4910790000000 1.0
C      1  0.4652580000000  0.4625520000000  0.4324150000000 1.0
C      1  0.4727330000000  0.4719340000000  0.5598810000000 1.0
C      1  0.4839110000000  0.4415960000000  0.5275740000000 1.0
C      1  0.4848310000000  0.5596300000000  0.5368550000000 1.0
C      1  0.4809100000000  0.5053400000000  0.4342600000000 1.0
C      1  0.5584340000000  0.4836520000000  0.5407830000000 1.0
C      1  0.5595850000000  0.5426910000000  0.4989240000000 1.0
C      1  0.5603070000000  0.4777220000000  0.4639110000000 1.0
C      1  0.5270760000000  0.5754700000000  0.5157780000000 1.0
C      1  0.5242880000000  0.4747100000000  0.4298800000000 1.0
C      1  0.5230500000000  0.4542620000000  0.5555960000000 1.0
C      1  0.4597870000000  0.5448510000000  0.5292520000000 1.0
C      1  0.4578370000000  0.5032060000000  0.4525360000000 1.0
C      1  0.4607560000000  0.4569940000000  0.5176400000000 1.0
C      1  0.5099380000000  0.5256440000000  0.5681450000000 1.0
C      1  0.5071100000000  0.5427290000000  0.4522350000000 1.0
C      1  0.5121510000000  0.4332020000000  0.4874440000000 1.0
C      1  0.5031840000000  0.4816590000000  0.5063820000000 1.0
C      1  0.5070690000000  0.5177330000000  0.5213460000000 1.0
C      1  0.4977180000000  0.4884740000000  0.4772710000000 1.0
C      1  0.5546650000000  0.5367340000000  0.5283980000000 1.0
C      1  0.5516700000000  0.5056080000000  0.4573610000000 1.0
C      1  0.5531870000000  0.4636600000000  0.5183040000000 1.0
END
