TITL C-9265-7156-258 -4.81695167974429e-06 125000 -358.248830185031 0 0 60 (C1) n - 1
REM
REM in /home/bkarasulu/CARBON/AIRSS/Generating-Clusters/EDIP-Nigel-Params/Higher-Symm/Box-15A/Only-C60/SD-CG/HFTN-CG
REM
REM
REM
REM
REM
REM ./C.cell (414f73aa93bd7a1190c7fd0f31ff2f98)
REM
REM compiler GCC version 9.2.1 20190827 (Red Hat 9.2.1-1)
REM options -cpp -mtune=generic -march=x86-64 -g -O0 -fpre-include=/usr/include/finclude/math-vector-fortran.h
REM seed -751415549 -21444627 307505323 -1635568919 -151057899 -454233326 219213860 -1160004998 -1592509503 411998731 284565041 -1562410907 -729833465 -63032706 1264560828 -609205676 -1155652426 -1769730032 766405165 -2100383228 125453819 -1567661914 -1439769633 -1929172600 1564729053 1298005332 -1778350493 -96205614 446503780 -730094278 -38184925 964572775 -1444305199
REM
CELL 1.54180   50.00000   50.00000   50.00000   90.00000   90.00000   90.00000
LATT -1
SFAC C  
C      1  0.4683500000000  0.5471940000000  0.5005440000000 1.0
C      1  0.4819580000000  0.5308040000000  0.4447500000000 1.0
C      1  0.5218180000000  0.5904310000000  0.5049980000000 1.0
C      1  0.4500680000000  0.4934570000000  0.5485520000000 1.0
C      1  0.4845640000000  0.4250750000000  0.4647260000000 1.0
C      1  0.4513770000000  0.5440200000000  0.4772090000000 1.0
C      1  0.4603120000000  0.4763640000000  0.4891740000000 1.0
C      1  0.4941790000000  0.5466080000000  0.5734680000000 1.0
C      1  0.5300020000000  0.5515310000000  0.5285600000000 1.0
C      1  0.5516180000000  0.5085790000000  0.4781660000000 1.0
C      1  0.5320150000000  0.4571450000000  0.5502100000000 1.0
C      1  0.5238500000000  0.5511760000000  0.4793890000000 1.0
C      1  0.5428170000000  0.4987440000000  0.5306390000000 1.0
C      1  0.4647730000000  0.5509860000000  0.4535400000000 1.0
C      1  0.5376900000000  0.4479490000000  0.4475460000000 1.0
C      1  0.5249560000000  0.5217970000000  0.4386070000000 1.0
C      1  0.5426990000000  0.4797700000000  0.4873150000000 1.0
C      1  0.5449210000000  0.5229260000000  0.5667700000000 1.0
C      1  0.5475970000000  0.4529540000000  0.4728410000000 1.0
C      1  0.5166610000000  0.4748690000000  0.5685200000000 1.0
C      1  0.4892500000000  0.4343850000000  0.4894450000000 1.0
C      1  0.4929530000000  0.5028710000000  0.5347490000000 1.0
C      1  0.4622450000000  0.5400170000000  0.5281540000000 1.0
C      1  0.5094380000000  0.4801280000000  0.4952450000000 1.0
C      1  0.5072470000000  0.5657050000000  0.5421980000000 1.0
C      1  0.5018420000000  0.4525680000000  0.5068200000000 1.0
C      1  0.4851290000000  0.5451200000000  0.5461470000000 1.0
C      1  0.4886940000000  0.4699360000000  0.5703020000000 1.0
C      1  0.4730630000000  0.5023840000000  0.4498780000000 1.0
C      1  0.5040040000000  0.5372910000000  0.4289410000000 1.0
C      1  0.4389620000000  0.4668400000000  0.4731620000000 1.0
C      1  0.4425700000000  0.5071570000000  0.4503240000000 1.0
C      1  0.4803950000000  0.4855520000000  0.4274080000000 1.0
C      1  0.5134720000000  0.4505970000000  0.4345640000000 1.0
C      1  0.5606240000000  0.4710240000000  0.5109630000000 1.0
C      1  0.5068750000000  0.4769760000000  0.4255800000000 1.0
C      1  0.5353200000000  0.5648560000000  0.5024880000000 1.0
C      1  0.4582270000000  0.4560230000000  0.5119170000000 1.0
C      1  0.4840510000000  0.4889460000000  0.4771770000000 1.0
C      1  0.5525380000000  0.5392700000000  0.5432740000000 1.0
C      1  0.5261440000000  0.4403770000000  0.5167520000000 1.0
C      1  0.5649240000000  0.5193400000000  0.5249280000000 1.0
C      1  0.4474020000000  0.4694860000000  0.5346050000000 1.0
C      1  0.5108540000000  0.5267470000000  0.5847080000000 1.0
C      1  0.4253820000000  0.4862850000000  0.4583340000000 1.0
C      1  0.4980210000000  0.5825850000000  0.5189270000000 1.0
C      1  0.5267160000000  0.4963290000000  0.4276610000000 1.0
C      1  0.4916670000000  0.5646930000000  0.4957850000000 1.0
C      1  0.4270160000000  0.4466440000000  0.4883520000000 1.0
C      1  0.5654830000000  0.5236260000000  0.4974490000000 1.0
C      1  0.4932000000000  0.4326620000000  0.4406030000000 1.0
C      1  0.4780490000000  0.4928920000000  0.5567300000000 1.0
C      1  0.4339170000000  0.5215520000000  0.4733580000000 1.0
C      1  0.5424890000000  0.4345870000000  0.4941000000000 1.0
C      1  0.5311920000000  0.5258320000000  0.4665200000000 1.0
C      1  0.4418750000000  0.4323840000000  0.5062470000000 1.0
C      1  0.5217120000000  0.5050500000000  0.5684640000000 1.0
C      1  0.5145520000000  0.4992260000000  0.5175910000000 1.0
C      1  0.4459240000000  0.5179770000000  0.5348840000000 1.0
C      1  0.5543590000000  0.4717010000000  0.5397420000000 1.0
END
