TITL C-9255-4564-328 0.000134727800935689 125000 -369.603906881636 0 0 60 (C1) n - 1
REM
REM in /home/bkarasulu/CARBON/AIRSS/Generating-Clusters/EDIP-Nigel-Params/Higher-Symm/Box-15A/Only-C60/SD-CG/HFTN-CG
REM
REM
REM
REM
REM
REM ./C.cell (414f73aa93bd7a1190c7fd0f31ff2f98)
REM
REM compiler GCC version 9.2.1 20190827 (Red Hat 9.2.1-1)
REM options -cpp -mtune=generic -march=x86-64 -g -O0 -fpre-include=/usr/include/finclude/math-vector-fortran.h
REM seed -1979034973 1196102141 375233276 -1338674916 1785995875 1942120320 -2024663255 -1575854714 -662212109 760666383 872869559 794570247 -1991444443 -843496237 762538768 1898970531 -1527974064 -1958607312 -1337753426 -420255193 -786905803 858259693 874202387 1605039140 -1632101764 -74868629 -1302788225 2000816288 -900871821 -1371811345 -1800554395 -1729770203 -427220781
REM
CELL 1.54180   50.00000   50.00000   50.00000   90.00000   90.00000   90.00000
LATT -1
SFAC C  
C      1  0.4652660000000  0.4713680000000  0.5391880000000 1.0
C      1  0.4871980000000  0.5418920000000  0.5618340000000 1.0
C      1  0.5349060000000  0.4444690000000  0.5550660000000 1.0
C      1  0.5562300000000  0.5491540000000  0.5293480000000 1.0
C      1  0.5633030000000  0.4588870000000  0.4871170000000 1.0
C      1  0.5368090000000  0.5304490000000  0.4611330000000 1.0
C      1  0.5077780000000  0.4519910000000  0.4360790000000 1.0
C      1  0.4657070000000  0.5534580000000  0.4412410000000 1.0
C      1  0.4412390000000  0.4525760000000  0.4721620000000 1.0
C      1  0.4353540000000  0.5399100000000  0.5097350000000 1.0
C      1  0.4597500000000  0.5001790000000  0.5331740000000 1.0
C      1  0.4885150000000  0.5125320000000  0.5369350000000 1.0
C      1  0.5238620000000  0.5080550000000  0.5304380000000 1.0
C      1  0.5444930000000  0.4909770000000  0.5199350000000 1.0
C      1  0.5572170000000  0.4957190000000  0.4932850000000 1.0
C      1  0.5397090000000  0.5007360000000  0.4675700000000 1.0
C      1  0.5117470000000  0.4902920000000  0.4704930000000 1.0
C      1  0.4875390000000  0.5044650000000  0.4773910000000 1.0
C      1  0.4586380000000  0.5031330000000  0.4787570000000 1.0
C      1  0.4446510000000  0.5038730000000  0.5054060000000 1.0
C      1  0.5036830000000  0.5060530000000  0.4359800000000 1.0
C      1  0.4798240000000  0.4907710000000  0.4419850000000 1.0
C      1  0.4431820000000  0.5153270000000  0.4583520000000 1.0
C      1  0.4231950000000  0.4844100000000  0.5043050000000 1.0
C      1  0.4423930000000  0.5162130000000  0.5511250000000 1.0
C      1  0.5004570000000  0.4924770000000  0.5672300000000 1.0
C      1  0.5236500000000  0.5096620000000  0.5605740000000 1.0
C      1  0.5623460000000  0.4789860000000  0.5385450000000 1.0
C      1  0.5757000000000  0.5179140000000  0.4967030000000 1.0
C      1  0.5529470000000  0.4840410000000  0.4470030000000 1.0
C      1  0.4838060000000  0.4290080000000  0.4803710000000 1.0
C      1  0.4722410000000  0.5728370000000  0.4942570000000 1.0
C      1  0.4772420000000  0.4315760000000  0.5096010000000 1.0
C      1  0.4834950000000  0.5715900000000  0.5217090000000 1.0
C      1  0.5031460000000  0.4287020000000  0.5245790000000 1.0
C      1  0.5133330000000  0.5718590000000  0.5199370000000 1.0
C      1  0.5253680000000  0.4291410000000  0.5045290000000 1.0
C      1  0.5206450000000  0.5692940000000  0.4910790000000 1.0
C      1  0.5134890000000  0.4296550000000  0.4780540000000 1.0
C      1  0.4955310000000  0.5716080000000  0.4752250000000 1.0
C      1  0.4924250000000  0.4703200000000  0.5499340000000 1.0
C      1  0.5163150000000  0.5395340000000  0.5607310000000 1.0
C      1  0.5553520000000  0.4517700000000  0.5371880000000 1.0
C      1  0.5611630000000  0.5412940000000  0.5027840000000 1.0
C      1  0.5516960000000  0.4585830000000  0.4601650000000 1.0
C      1  0.5117870000000  0.5327380000000  0.4454770000000 1.0
C      1  0.4815960000000  0.4614700000000  0.4411870000000 1.0
C      1  0.4487250000000  0.5426940000000  0.4609140000000 1.0
C      1  0.4372810000000  0.4606050000000  0.4988240000000 1.0
C      1  0.4443020000000  0.5415640000000  0.5374560000000 1.0
C      1  0.5294330000000  0.5542550000000  0.5376470000000 1.0
C      1  0.5506060000000  0.4436730000000  0.5090690000000 1.0
C      1  0.5390500000000  0.5469550000000  0.4850600000000 1.0
C      1  0.5257180000000  0.4448690000000  0.4564840000000 1.0
C      1  0.4912130000000  0.5528430000000  0.4529910000000 1.0
C      1  0.4675030000000  0.4467860000000  0.4630080000000 1.0
C      1  0.4511550000000  0.5526660000000  0.4885610000000 1.0
C      1  0.4601550000000  0.4548800000000  0.5158200000000 1.0
C      1  0.4714610000000  0.5522860000000  0.5402480000000 1.0
C      1  0.5074770000000  0.4449780000000  0.5490210000000 1.0
END
