TITL C-9262-5533-15 -2.0689447175848e-06 125000 -360.934726522581 0 0 60 (C2) n - 1
REM
REM in /home/bkarasulu/CARBON/AIRSS/Generating-Clusters/EDIP-Nigel-Params/Higher-Symm/Box-15A/Only-C60/SD-CG/HFTN-CG
REM
REM
REM
REM
REM
REM ./C.cell (414f73aa93bd7a1190c7fd0f31ff2f98)
REM
REM compiler GCC version 9.2.1 20190827 (Red Hat 9.2.1-1)
REM options -cpp -mtune=generic -march=x86-64 -g -O0 -fpre-include=/usr/include/finclude/math-vector-fortran.h
REM seed 32263988 792277834 -1548790184 752191711 252241691 1955822110 572097384 1788290719 1671559984 -1669136675 764514402 -1188251 1956884417 -686775520 411797768 -234811379 1360207466 1955253973 1445976623 -274343995 -1427395497 -253577409 306720627 1273305794 -1124022658 858390376 1583119656 -597825219 -615209646 -959839751 -1628308477 1742923148 655013967
REM
CELL 1.54180   50.00000   50.00000   50.00000   90.00000   90.00000   90.00000
LATT -1
SFAC C  
C      1  0.4231720000000  0.4879700000000  0.4633260000000 1.0
C      1  0.5768260000000  0.4879640000000  0.5366750000000 1.0
C      1  0.5772850000000  0.5121390000000  0.4623520000000 1.0
C      1  0.4227170000000  0.5121530000000  0.5376470000000 1.0
C      1  0.5666200000000  0.4592890000000  0.4975670000000 1.0
C      1  0.4333750000000  0.4592980000000  0.5024370000000 1.0
C      1  0.4345630000000  0.5389930000000  0.4978830000000 1.0
C      1  0.5654420000000  0.5389850000000  0.5021130000000 1.0
C      1  0.4928260000000  0.4877220000000  0.4791160000000 1.0
C      1  0.5071720000000  0.4877230000000  0.5208850000000 1.0
C      1  0.5082020000000  0.5125270000000  0.4794210000000 1.0
C      1  0.4918000000000  0.5125300000000  0.5205770000000 1.0
C      1  0.5278110000000  0.4373900000000  0.5240860000000 1.0
C      1  0.4721820000000  0.4373910000000  0.4759200000000 1.0
C      1  0.4721190000000  0.5622490000000  0.5242300000000 1.0
C      1  0.5278890000000  0.5622430000000  0.4757640000000 1.0
C      1  0.4574570000000  0.4766350000000  0.5437180000000 1.0
C      1  0.5425400000000  0.4766250000000  0.4562840000000 1.0
C      1  0.5420840000000  0.5234820000000  0.5439790000000 1.0
C      1  0.4579190000000  0.5234830000000  0.4560190000000 1.0
C      1  0.4722410000000  0.5610460000000  0.4744560000000 1.0
C      1  0.5277670000000  0.5610450000000  0.5255380000000 1.0
C      1  0.5277960000000  0.4390410000000  0.4743460000000 1.0
C      1  0.4721960000000  0.4390470000000  0.5256600000000 1.0
C      1  0.4672990000000  0.4905210000000  0.4906860000000 1.0
C      1  0.5327000000000  0.4905180000000  0.5093150000000 1.0
C      1  0.5342020000000  0.5105020000000  0.4906770000000 1.0
C      1  0.4657990000000  0.5105070000000  0.5093220000000 1.0
C      1  0.4316940000000  0.5363910000000  0.5259820000000 1.0
C      1  0.5683110000000  0.5363800000000  0.4740140000000 1.0
C      1  0.5681570000000  0.4634220000000  0.5255250000000 1.0
C      1  0.4318390000000  0.4634280000000  0.4744780000000 1.0
C      1  0.4856080000000  0.5651050000000  0.4998640000000 1.0
C      1  0.5144000000000  0.5651040000000  0.5001300000000 1.0
C      1  0.5143780000000  0.4348120000000  0.4997490000000 1.0
C      1  0.4856140000000  0.4348140000000  0.5002580000000 1.0
C      1  0.4542950000000  0.5480570000000  0.5409780000000 1.0
C      1  0.5457110000000  0.5480470000000  0.4590170000000 1.0
C      1  0.5453940000000  0.4521640000000  0.5404200000000 1.0
C      1  0.4546010000000  0.4521660000000  0.4595850000000 1.0
C      1  0.4476390000000  0.5447770000000  0.4734120000000 1.0
C      1  0.5523660000000  0.5447730000000  0.5265840000000 1.0
C      1  0.5526820000000  0.4548860000000  0.4733420000000 1.0
C      1  0.4473130000000  0.4548950000000  0.5266620000000 1.0
C      1  0.5177290000000  0.4638370000000  0.4471240000000 1.0
C      1  0.4822670000000  0.4638450000000  0.5528790000000 1.0
C      1  0.4827420000000  0.5365410000000  0.4471280000000 1.0
C      1  0.5172620000000  0.5365440000000  0.5528680000000 1.0
C      1  0.5060110000000  0.5179720000000  0.4496830000000 1.0
C      1  0.4939910000000  0.5179770000000  0.5503150000000 1.0
C      1  0.4945690000000  0.4825110000000  0.4496770000000 1.0
C      1  0.5054290000000  0.4825150000000  0.5503250000000 1.0
C      1  0.4649370000000  0.5254970000000  0.5582000000000 1.0
C      1  0.5350670000000  0.5254870000000  0.4417980000000 1.0
C      1  0.5346610000000  0.4746150000000  0.5576780000000 1.0
C      1  0.4653360000000  0.4746130000000  0.4423250000000 1.0
C      1  0.4458090000000  0.4969890000000  0.4486280000000 1.0
C      1  0.5541900000000  0.4969870000000  0.5513730000000 1.0
C      1  0.5545580000000  0.5029090000000  0.4479850000000 1.0
C      1  0.4454430000000  0.5029210000000  0.5520140000000 1.0
END
