TITL C-9265-7156-293 -8.62693312522065e-07 125000 -360.172911545363 0 0 60 (D5h) n - 1
REM
REM in /home/bkarasulu/CARBON/AIRSS/Generating-Clusters/EDIP-Nigel-Params/Higher-Symm/Box-15A/Only-C60/SD-CG/HFTN-CG
REM
REM
REM
REM
REM
REM ./C.cell (414f73aa93bd7a1190c7fd0f31ff2f98)
REM
REM compiler GCC version 9.2.1 20190827 (Red Hat 9.2.1-1)
REM options -cpp -mtune=generic -march=x86-64 -g -O0 -fpre-include=/usr/include/finclude/math-vector-fortran.h
REM seed -621947382 1568743014 848979658 -422863265 -939615592 -425568899 2142770206 1897519138 1196126761 1217601427 1997922414 525407166 2125319130 -1207438602 -996608969 1778394151 -25664371 1770087193 1192772548 570876840 -76313286 1932556020 1834228051 -1858327333 -1914506054 -599745605 669645250 152109731 -2013489367 -1774277397 -1075944341 -896206713 243283457
REM
CELL 1.54180   50.00000   50.00000   50.00000   90.00000   90.00000   90.00000
LATT -1
SFAC C  
C      1  0.5832880000000  0.4750460000000  0.4767450000000 1.0
C      1  0.5036550000000  0.4751300000000  0.4135790000000 1.0
C      1  0.4189730000000  0.4750460000000  0.4697960000000 1.0
C      1  0.4462700000000  0.4749100000000  0.5677050000000 1.0
C      1  0.5478220000000  0.4749100000000  0.5719990000000 1.0
C      1  0.5832850000000  0.5249640000000  0.5232540000000 1.0
C      1  0.5036530000000  0.5248710000000  0.5864200000000 1.0
C      1  0.4189700000000  0.5249440000000  0.5302050000000 1.0
C      1  0.4462660000000  0.5250830000000  0.4322960000000 1.0
C      1  0.5478180000000  0.5250960000000  0.4280000000000 1.0
C      1  0.4580100000000  0.5516290000000  0.4695680000000 1.0
C      1  0.4580100000000  0.5515430000000  0.5305780000000 1.0
C      1  0.5160350000000  0.5515210000000  0.5494300000000 1.0
C      1  0.5518950000000  0.5515920000000  0.5000720000000 1.0
C      1  0.5160340000000  0.5516590000000  0.4507140000000 1.0
C      1  0.4580170000000  0.4483660000000  0.5304330000000 1.0
C      1  0.4580160000000  0.4484510000000  0.4694230000000 1.0
C      1  0.5160400000000  0.4484810000000  0.4505690000000 1.0
C      1  0.5519010000000  0.4484140000000  0.4999270000000 1.0
C      1  0.5160410000000  0.4483430000000  0.5492860000000 1.0
C      1  0.5036520000000  0.5251130000000  0.4136500000000 1.0
C      1  0.4189700000000  0.5250290000000  0.4698660000000 1.0
C      1  0.4462670000000  0.5248930000000  0.5677750000000 1.0
C      1  0.5478190000000  0.5248940000000  0.5720700000000 1.0
C      1  0.5832850000000  0.5250290000000  0.4768150000000 1.0
C      1  0.5036560000000  0.4748870000000  0.5863500000000 1.0
C      1  0.4189730000000  0.4749610000000  0.5301350000000 1.0
C      1  0.4462690000000  0.4751000000000  0.4322260000000 1.0
C      1  0.5478210000000  0.4751120000000  0.4279300000000 1.0
C      1  0.5832880000000  0.4749810000000  0.5231840000000 1.0
C      1  0.4386660000000  0.4621360000000  0.4553840000000 1.0
C      1  0.4386670000000  0.4620110000000  0.5445100000000 1.0
C      1  0.5234310000000  0.4619780000000  0.5720510000000 1.0
C      1  0.5758180000000  0.4620820000000  0.4999460000000 1.0
C      1  0.5234300000000  0.4621800000000  0.4278420000000 1.0
C      1  0.4386620000000  0.5378560000000  0.5446170000000 1.0
C      1  0.4386620000000  0.5379810000000  0.4554910000000 1.0
C      1  0.5234250000000  0.5380250000000  0.4279490000000 1.0
C      1  0.5758130000000  0.5379270000000  0.5000530000000 1.0
C      1  0.5234260000000  0.5378230000000  0.5721570000000 1.0
C      1  0.5874200000000  0.4999610000000  0.5317600000000 1.0
C      1  0.5572200000000  0.5001060000000  0.4266730000000 1.0
C      1  0.4479440000000  0.5001050000000  0.4229210000000 1.0
C      1  0.4106080000000  0.4999580000000  0.5256900000000 1.0
C      1  0.4968090000000  0.4998690000000  0.5929560000000 1.0
C      1  0.5874200000000  0.5000500000000  0.4682390000000 1.0
C      1  0.5572210000000  0.4999010000000  0.5733260000000 1.0
C      1  0.4479450000000  0.4998890000000  0.5770790000000 1.0
C      1  0.4106070000000  0.5000300000000  0.4743110000000 1.0
C      1  0.4968070000000  0.5001300000000  0.4070440000000 1.0
C      1  0.5075420000000  0.4468850000000  0.5231280000000 1.0
C      1  0.5244000000000  0.4469180000000  0.4999250000000 1.0
C      1  0.5075420000000  0.4469500000000  0.4767230000000 1.0
C      1  0.4802660000000  0.4469360000000  0.4855860000000 1.0
C      1  0.4802660000000  0.4468960000000  0.5142650000000 1.0
C      1  0.5075350000000  0.5531160000000  0.4768720000000 1.0
C      1  0.5243930000000  0.5530850000000  0.5000740000000 1.0
C      1  0.5075360000000  0.5530510000000  0.5232770000000 1.0
C      1  0.4802600000000  0.5530620000000  0.5144140000000 1.0
C      1  0.4802600000000  0.5531020000000  0.4857350000000 1.0
END
