TITL C-9261-551-23 1.3824975188993e-05 125000 -363.523356185002 0 0 60 (C1) n - 1
REM
REM in /home/bkarasulu/CARBON/AIRSS/Generating-Clusters/EDIP-Nigel-Params/Higher-Symm/Box-15A/Only-C60/SD-CG/HFTN-CG
REM
REM
REM
REM
REM
REM ./C.cell (414f73aa93bd7a1190c7fd0f31ff2f98)
REM
REM compiler GCC version 9.2.1 20190827 (Red Hat 9.2.1-1)
REM options -cpp -mtune=generic -march=x86-64 -g -O0 -fpre-include=/usr/include/finclude/math-vector-fortran.h
REM seed -1561163404 -448090350 54763835 1236263383 -139855302 -1776390017 -172532507 1209245570 -449056814 1672387793 -1672363715 2125428534 1113508544 785255205 -1439693742 -100903575 881928278 75590413 -639945432 837540122 2053758434 184137933 892544769 -166575818 -1154534041 1968817447 -1481062598 1771173918 -1887030063 768630249 1746250041 1223706604 745117718
REM
CELL 1.54180   50.00000   50.00000   50.00000   90.00000   90.00000   90.00000
LATT -1
SFAC C  
C      1  0.4937330000000  0.4310220000000  0.4429210000000 1.0
C      1  0.5598720000000  0.5352750000000  0.5376320000000 1.0
C      1  0.5308150000000  0.4552610000000  0.4496230000000 1.0
C      1  0.5072510000000  0.5689870000000  0.5401030000000 1.0
C      1  0.4626010000000  0.5529190000000  0.5215800000000 1.0
C      1  0.4932930000000  0.4764190000000  0.5679720000000 1.0
C      1  0.5232470000000  0.4456160000000  0.4761430000000 1.0
C      1  0.5111290000000  0.4497130000000  0.4289780000000 1.0
C      1  0.5053650000000  0.4223790000000  0.4697120000000 1.0
C      1  0.5188410000000  0.4612580000000  0.5697730000000 1.0
C      1  0.4437120000000  0.5284360000000  0.5240080000000 1.0
C      1  0.5557540000000  0.5436410000000  0.5112510000000 1.0
C      1  0.5345400000000  0.5244670000000  0.4718100000000 1.0
C      1  0.5257570000000  0.5757220000000  0.4565270000000 1.0
C      1  0.4623920000000  0.5161070000000  0.5657510000000 1.0
C      1  0.4325720000000  0.5193530000000  0.4977960000000 1.0
C      1  0.4914880000000  0.4968060000000  0.4887990000000 1.0
C      1  0.4684890000000  0.4439240000000  0.4512220000000 1.0
C      1  0.5032020000000  0.5191180000000  0.5058330000000 1.0
C      1  0.4646120000000  0.5027520000000  0.4734660000000 1.0
C      1  0.5442960000000  0.5699570000000  0.5060060000000 1.0
C      1  0.4337270000000  0.4902170000000  0.4918120000000 1.0
C      1  0.4528830000000  0.5307180000000  0.4788300000000 1.0
C      1  0.5596850000000  0.5248250000000  0.4889560000000 1.0
C      1  0.5407680000000  0.4855780000000  0.4984110000000 1.0
C      1  0.5138230000000  0.5383250000000  0.4873890000000 1.0
C      1  0.4871000000000  0.4783640000000  0.5117370000000 1.0
C      1  0.4833130000000  0.4153000000000  0.4868790000000 1.0
C      1  0.5186890000000  0.4415230000000  0.5470900000000 1.0
C      1  0.5113120000000  0.4884450000000  0.4276670000000 1.0
C      1  0.4877540000000  0.5269380000000  0.5605170000000 1.0
C      1  0.5275320000000  0.5794980000000  0.5260810000000 1.0
C      1  0.5232000000000  0.5000700000000  0.5217100000000 1.0
C      1  0.4702800000000  0.5741410000000  0.4889120000000 1.0
C      1  0.5670470000000  0.4982930000000  0.4964830000000 1.0
C      1  0.5363570000000  0.4443920000000  0.5251060000000 1.0
C      1  0.5455510000000  0.5114050000000  0.5402340000000 1.0
C      1  0.4634520000000  0.4340030000000  0.4785210000000 1.0
C      1  0.4674340000000  0.4967120000000  0.4448890000000 1.0
C      1  0.5051440000000  0.5020700000000  0.5560250000000 1.0
C      1  0.4867990000000  0.5499120000000  0.5409280000000 1.0
C      1  0.4912430000000  0.4412150000000  0.5360870000000 1.0
C      1  0.5398150000000  0.5773570000000  0.4794570000000 1.0
C      1  0.4536010000000  0.5066960000000  0.5408510000000 1.0
C      1  0.4635620000000  0.4693790000000  0.4401770000000 1.0
C      1  0.4712620000000  0.5471870000000  0.4943370000000 1.0
C      1  0.5250410000000  0.4958970000000  0.4741660000000 1.0
C      1  0.5416380000000  0.4776120000000  0.5744260000000 1.0
C      1  0.4922860000000  0.5095080000000  0.4348040000000 1.0
C      1  0.5338030000000  0.5030080000000  0.5652460000000 1.0
C      1  0.4619120000000  0.4797120000000  0.5286970000000 1.0
C      1  0.5013810000000  0.5646490000000  0.4486640000000 1.0
C      1  0.4456450000000  0.4456420000000  0.4967730000000 1.0
C      1  0.5034270000000  0.5344600000000  0.4501050000000 1.0
C      1  0.5396650000000  0.4551740000000  0.4992840000000 1.0
C      1  0.4807320000000  0.5770290000000  0.4632530000000 1.0
C      1  0.4948390000000  0.4512610000000  0.5097160000000 1.0
C      1  0.4401110000000  0.4693980000000  0.5104350000000 1.0
C      1  0.5316500000000  0.4838920000000  0.4478230000000 1.0
C      1  0.4735770000000  0.4610610000000  0.5506150000000 1.0
END
