TITL C-9255-4564-243 -6.99614086470326e-07 125000 -369.873856287501 0 0 60 (C1) n - 1
REM
REM in /home/bkarasulu/CARBON/AIRSS/Generating-Clusters/EDIP-Nigel-Params/Higher-Symm/Box-15A/Only-C60/SD-CG/HFTN-CG
REM
REM
REM
REM
REM
REM ./C.cell (414f73aa93bd7a1190c7fd0f31ff2f98)
REM
REM compiler GCC version 9.2.1 20190827 (Red Hat 9.2.1-1)
REM options -cpp -mtune=generic -march=x86-64 -g -O0 -fpre-include=/usr/include/finclude/math-vector-fortran.h
REM seed 713807507 2048414710 1394812598 68070787 -227353500 -1992370739 -211557970 1572939580 -80149324 1134924060 1093344845 -77955148 -839798327 -212088104 -1080697884 -1023806456 -1709765224 -101052722 1967383428 -1167886749 1363364871 1621878004 -1137120331 690288368 -960448389 2054171250 -1295201739 219073668 1960127127 1318742388 334357187 -1533496763 1853761263
REM
CELL 1.54180   50.00000   50.00000   50.00000   90.00000   90.00000   90.00000
LATT -1
SFAC C  
C      1  0.5172560000000  0.5152430000000  0.4790500000000 1.0
C      1  0.5267400000000  0.5124060000000  0.5098990000000 1.0
C      1  0.5011600000000  0.5171430000000  0.5283300000000 1.0
C      1  0.4774690000000  0.5195870000000  0.5092460000000 1.0
C      1  0.4865540000000  0.5184750000000  0.4806840000000 1.0
C      1  0.5045240000000  0.5655190000000  0.5272900000000 1.0
C      1  0.4791390000000  0.5674400000000  0.5098910000000 1.0
C      1  0.4881540000000  0.5670000000000  0.4804700000000 1.0
C      1  0.5188020000000  0.5646520000000  0.4802810000000 1.0
C      1  0.5285610000000  0.5626910000000  0.5089350000000 1.0
C      1  0.4183370000000  0.4994680000000  0.5064340000000 1.0
C      1  0.4637570000000  0.4985960000000  0.4291520000000 1.0
C      1  0.5534710000000  0.5013580000000  0.4475460000000 1.0
C      1  0.5724090000000  0.4980850000000  0.5446690000000 1.0
C      1  0.4821870000000  0.5039140000000  0.5718240000000 1.0
C      1  0.5826290000000  0.5257480000000  0.4797650000000 1.0
C      1  0.5420010000000  0.5245100000000  0.5735640000000 1.0
C      1  0.4397670000000  0.5264670000000  0.5601460000000 1.0
C      1  0.4274250000000  0.5251680000000  0.4659120000000 1.0
C      1  0.5054350000000  0.5249300000000  0.4223380000000 1.0
C      1  0.5274910000000  0.5406210000000  0.4647670000000 1.0
C      1  0.5448630000000  0.5375400000000  0.5136860000000 1.0
C      1  0.5037270000000  0.5422390000000  0.5455760000000 1.0
C      1  0.4603670000000  0.5438300000000  0.5152720000000 1.0
C      1  0.4755570000000  0.5429120000000  0.4658580000000 1.0
C      1  0.4846780000000  0.4432930000000  0.5361900000000 1.0
C      1  0.4560340000000  0.4358220000000  0.4970150000000 1.0
C      1  0.4895850000000  0.4371950000000  0.4604330000000 1.0
C      1  0.5372310000000  0.4419090000000  0.4791930000000 1.0
C      1  0.5337350000000  0.4460950000000  0.5232800000000 1.0
C      1  0.4658080000000  0.4284570000000  0.5220550000000 1.0
C      1  0.4690790000000  0.4253350000000  0.4748450000000 1.0
C      1  0.5155490000000  0.4302920000000  0.4664990000000 1.0
C      1  0.5459900000000  0.4307060000000  0.5030790000000 1.0
C      1  0.5110300000000  0.4353450000000  0.5348690000000 1.0
C      1  0.4860240000000  0.4649880000000  0.4542770000000 1.0
C      1  0.5387590000000  0.4707050000000  0.4801860000000 1.0
C      1  0.5345140000000  0.4768420000000  0.5239910000000 1.0
C      1  0.4801450000000  0.4717680000000  0.5368070000000 1.0
C      1  0.4470540000000  0.4632730000000  0.4945940000000 1.0
C      1  0.4482270000000  0.5429680000000  0.5406770000000 1.0
C      1  0.4474060000000  0.5429160000000  0.4637790000000 1.0
C      1  0.5203890000000  0.5412720000000  0.4375540000000 1.0
C      1  0.5692570000000  0.5377890000000  0.4997720000000 1.0
C      1  0.5232950000000  0.5419050000000  0.5655410000000 1.0
C      1  0.5069500000000  0.4808340000000  0.4420230000000 1.0
C      1  0.5634200000000  0.4826890000000  0.4906860000000 1.0
C      1  0.5264340000000  0.4841550000000  0.5516600000000 1.0
C      1  0.4533230000000  0.4827390000000  0.5395110000000 1.0
C      1  0.4412400000000  0.4779880000000  0.4702740000000 1.0
C      1  0.4558580000000  0.5036870000000  0.5603290000000 1.0
C      1  0.4251310000000  0.5007960000000  0.4789530000000 1.0
C      1  0.4920420000000  0.5009610000000  0.4271170000000 1.0
C      1  0.5713160000000  0.5021000000000  0.4700410000000 1.0
C      1  0.5489740000000  0.5007470000000  0.5607820000000 1.0
C      1  0.5288580000000  0.4913340000000  0.4606040000000 1.0
C      1  0.5616740000000  0.4880050000000  0.5201540000000 1.0
C      1  0.4976990000000  0.4936030000000  0.5487640000000 1.0
C      1  0.4350530000000  0.4787190000000  0.5163050000000 1.0
C      1  0.4604560000000  0.4772260000000  0.4475760000000 1.0
END
