TITL C-9259-5960-111 2.70366109078742e-06 125000 -340.079095924674 0 0 60 (Td) n - 1
REM
REM in /home/bkarasulu/CARBON/AIRSS/Generating-Clusters/EDIP-Nigel-Params/Higher-Symm/Box-15A/Only-C60/SD-CG/HFTN-CG
REM
REM
REM
REM
REM
REM ./C.cell (414f73aa93bd7a1190c7fd0f31ff2f98)
REM
REM compiler GCC version 9.2.1 20190827 (Red Hat 9.2.1-1)
REM options -cpp -mtune=generic -march=x86-64 -g -O0 -fpre-include=/usr/include/finclude/math-vector-fortran.h
REM seed -931268196 -1311386597 1152718336 2146670381 1031663089 -1399739650 1049455074 954336355 -835104949 -866964159 -2075060370 526203210 1013106615 -2089771382 444749058 1715579951 -1859106351 -242400705 1060085089 475214035 1034421613 -845152066 -731326450 -1248651755 -718195136 1439508340 617514003 2078930852 -581646785 -724686097 -1286233563 1961188865 -597651005
REM
CELL 1.54180   50.00000   50.00000   50.00000   90.00000   90.00000   90.00000
LATT -1
SFAC C  
C      1  0.5314550000000  0.4484730000000  0.4999020000000 1.0
C      1  0.4999020000000  0.5314550000000  0.4484730000000 1.0
C      1  0.4484730000000  0.4999020000000  0.5314550000000 1.0
C      1  0.4685450000000  0.5515270000000  0.4999030000000 1.0
C      1  0.4685460000000  0.4484730000000  0.5000980000000 1.0
C      1  0.5314540000000  0.5515270000000  0.5000970000000 1.0
C      1  0.5000980000000  0.4685450000000  0.4484730000000 1.0
C      1  0.5000970000000  0.5314550000000  0.5515270000000 1.0
C      1  0.4999030000000  0.4685450000000  0.5515270000000 1.0
C      1  0.5515270000000  0.5000980000000  0.5314540000000 1.0
C      1  0.5515270000000  0.4999030000000  0.4685450000000 1.0
C      1  0.4484730000000  0.5000970000000  0.4685460000000 1.0
C      1  0.4484730000000  0.5314540000000  0.4999030000000 1.0
C      1  0.5314540000000  0.4999030000000  0.4484730000000 1.0
C      1  0.4999030000000  0.4484730000000  0.5314550000000 1.0
C      1  0.5515270000000  0.4685460000000  0.4999020000000 1.0
C      1  0.4484730000000  0.4685450000000  0.5000980000000 1.0
C      1  0.5515270000000  0.5314550000000  0.5000970000000 1.0
C      1  0.4685450000000  0.5000970000000  0.4484730000000 1.0
C      1  0.5314550000000  0.5000980000000  0.5515270000000 1.0
C      1  0.4685460000000  0.4999020000000  0.5515270000000 1.0
C      1  0.5000970000000  0.5515270000000  0.5314550000000 1.0
C      1  0.4999020000000  0.5515270000000  0.4685450000000 1.0
C      1  0.5000980000000  0.4484730000000  0.4685450000000 1.0
C      1  0.5687200000000  0.4577500000000  0.4781080000000 1.0
C      1  0.4781070000000  0.5687200000000  0.4577500000000 1.0
C      1  0.4577500000000  0.4781080000000  0.5687200000000 1.0
C      1  0.4312800000000  0.5422500000000  0.4781080000000 1.0
C      1  0.4312800000000  0.4577490000000  0.5218920000000 1.0
C      1  0.5687200000000  0.5422510000000  0.5218920000000 1.0
C      1  0.5218920000000  0.4312800000000  0.4577500000000 1.0
C      1  0.5218920000000  0.5687200000000  0.5422500000000 1.0
C      1  0.4781080000000  0.4312800000000  0.5422500000000 1.0
C      1  0.5422500000000  0.5218920000000  0.5687200000000 1.0
C      1  0.5422500000000  0.4781080000000  0.4312800000000 1.0
C      1  0.4577490000000  0.5218920000000  0.4312800000000 1.0
C      1  0.4577490000000  0.5687200000000  0.4781080000000 1.0
C      1  0.5687200000000  0.4781080000000  0.4577500000000 1.0
C      1  0.4781080000000  0.4577500000000  0.5687200000000 1.0
C      1  0.5422510000000  0.4312800000000  0.4781080000000 1.0
C      1  0.4577500000000  0.4312800000000  0.5218920000000 1.0
C      1  0.5422500000000  0.5687200000000  0.5218920000000 1.0
C      1  0.4312800000000  0.5218920000000  0.4577500000000 1.0
C      1  0.5687200000000  0.5218920000000  0.5422500000000 1.0
C      1  0.4312800000000  0.4781080000000  0.5422510000000 1.0
C      1  0.5218920000000  0.5422500000000  0.5687200000000 1.0
C      1  0.4781080000000  0.5422500000000  0.4312800000000 1.0
C      1  0.5218920000000  0.4577500000000  0.4312800000000 1.0
C      1  0.5288630000000  0.5288640000000  0.4435310000000 1.0
C      1  0.4435310000000  0.5288630000000  0.5288640000000 1.0
C      1  0.4711360000000  0.5288630000000  0.5564690000000 1.0
C      1  0.4711360000000  0.5564690000000  0.5288640000000 1.0
C      1  0.5288640000000  0.4435310000000  0.5288640000000 1.0
C      1  0.5288640000000  0.4711370000000  0.5564690000000 1.0
C      1  0.4711370000000  0.4435310000000  0.4711370000000 1.0
C      1  0.5288630000000  0.5564690000000  0.4711360000000 1.0
C      1  0.5564690000000  0.4711370000000  0.5288630000000 1.0
C      1  0.5564690000000  0.5288640000000  0.4711360000000 1.0
C      1  0.4711360000000  0.4711360000000  0.4435310000000 1.0
C      1  0.4435310000000  0.4711360000000  0.4711370000000 1.0
END
