TITL C-9261-551-138 -3.88224504444654e-07 125000 -371.571989685394 0 0 60 (C2) n - 1
REM
REM in /home/bkarasulu/CARBON/AIRSS/Generating-Clusters/EDIP-Nigel-Params/Higher-Symm/Box-15A/Only-C60/SD-CG/HFTN-CG
REM
REM
REM
REM
REM
REM ./C.cell (414f73aa93bd7a1190c7fd0f31ff2f98)
REM
REM compiler GCC version 9.2.1 20190827 (Red Hat 9.2.1-1)
REM options -cpp -mtune=generic -march=x86-64 -g -O0 -fpre-include=/usr/include/finclude/math-vector-fortran.h
REM seed 646417911 989204089 -1285294307 -1708620025 -1400148639 -309842656 656566274 1998083052 -691265359 -693936493 1564813658 -879966786 -2098151839 1360048475 -1682143252 -1740474469 -1248259038 2079176242 -283519100 758244862 709499781 1208795116 -901941309 955721733 -1150393831 261428611 1546657412 -551827877 -694889071 -137830555 969275524 -946577889 -1243963235
REM
CELL 1.54180   50.00000   50.00000   50.00000   90.00000   90.00000   90.00000
LATT -1
SFAC C  
C      1  0.4778830000000  0.4992260000000  0.5197390000000 1.0
C      1  0.4845550000000  0.4955310000000  0.4762170000000 1.0
C      1  0.5154610000000  0.5044630000000  0.4762270000000 1.0
C      1  0.5221030000000  0.5007780000000  0.5197540000000 1.0
C      1  0.4839260000000  0.5230330000000  0.5037590000000 1.0
C      1  0.4832360000000  0.4774090000000  0.5004990000000 1.0
C      1  0.5160710000000  0.4769680000000  0.5037750000000 1.0
C      1  0.5167640000000  0.5225920000000  0.5005060000000 1.0
C      1  0.4337190000000  0.5215770000000  0.4994700000000 1.0
C      1  0.4331010000000  0.4774130000000  0.4997950000000 1.0
C      1  0.5668990000000  0.5225870000000  0.4998370000000 1.0
C      1  0.5662810000000  0.4784230000000  0.4995220000000 1.0
C      1  0.4315020000000  0.4985440000000  0.5221200000000 1.0
C      1  0.4345480000000  0.4999920000000  0.4781360000000 1.0
C      1  0.5684830000000  0.5014600000000  0.5221680000000 1.0
C      1  0.5654680000000  0.5000030000000  0.4781830000000 1.0
C      1  0.4941670000000  0.4328920000000  0.5254690000000 1.0
C      1  0.4953540000000  0.5653940000000  0.4753400000000 1.0
C      1  0.5046640000000  0.4346000000000  0.4753570000000 1.0
C      1  0.5058150000000  0.5671130000000  0.5254580000000 1.0
C      1  0.4950380000000  0.5249610000000  0.4340440000000 1.0
C      1  0.4942740000000  0.4744180000000  0.5663160000000 1.0
C      1  0.5050090000000  0.4750240000000  0.4340530000000 1.0
C      1  0.5056790000000  0.5255970000000  0.5663150000000 1.0
C      1  0.5428500000000  0.5610060000000  0.4797490000000 1.0
C      1  0.5422000000000  0.4391250000000  0.5198600000000 1.0
C      1  0.4577860000000  0.5608790000000  0.5198170000000 1.0
C      1  0.4571640000000  0.4389900000000  0.4797310000000 1.0
C      1  0.5412810000000  0.4806970000000  0.5584780000000 1.0
C      1  0.5428110000000  0.5196490000000  0.4386310000000 1.0
C      1  0.4586780000000  0.5193150000000  0.5584440000000 1.0
C      1  0.4572330000000  0.4803380000000  0.4386050000000 1.0
C      1  0.5301320000000  0.4501670000000  0.4716660000000 1.0
C      1  0.5320240000000  0.5525470000000  0.5295940000000 1.0
C      1  0.4679550000000  0.4474590000000  0.5295830000000 1.0
C      1  0.4698880000000  0.5498270000000  0.4716340000000 1.0
C      1  0.5301910000000  0.4715890000000  0.4501990000000 1.0
C      1  0.5319370000000  0.5305660000000  0.5510930000000 1.0
C      1  0.4698440000000  0.5284000000000  0.4501720000000 1.0
C      1  0.4680270000000  0.4694450000000  0.5510770000000 1.0
C      1  0.4801670000000  0.4649830000000  0.4445950000000 1.0
C      1  0.4807150000000  0.5367270000000  0.5563900000000 1.0
C      1  0.5192450000000  0.4632850000000  0.5564120000000 1.0
C      1  0.5198720000000  0.5350050000000  0.4446010000000 1.0
C      1  0.4801880000000  0.4455780000000  0.4654060000000 1.0
C      1  0.4813290000000  0.5547220000000  0.5342030000000 1.0
C      1  0.5198370000000  0.5544140000000  0.4654080000000 1.0
C      1  0.5186470000000  0.4452860000000  0.5342290000000 1.0
C      1  0.4576650000000  0.4585430000000  0.5015650000000 1.0
C      1  0.4586160000000  0.5403470000000  0.4988070000000 1.0
C      1  0.5413850000000  0.4596530000000  0.4988450000000 1.0
C      1  0.5423340000000  0.5414580000000  0.5015860000000 1.0
C      1  0.4589140000000  0.5010280000000  0.4594700000000 1.0
C      1  0.4564810000000  0.4969350000000  0.5397810000000 1.0
C      1  0.5411140000000  0.4989640000000  0.4594990000000 1.0
C      1  0.5434910000000  0.5030730000000  0.5398110000000 1.0
C      1  0.5005580000000  0.5781620000000  0.5000060000000 1.0
C      1  0.4999730000000  0.5000080000000  0.5771700000000 1.0
C      1  0.5000280000000  0.4999920000000  0.4218010000000 1.0
C      1  0.4994420000000  0.4218380000000  0.5000230000000 1.0
END
