TITL C-9269-7444-204 -1.38828459795161e-06 125000 -362.832652602918 0 0 60 (D2) n - 1
REM
REM in /home/bkarasulu/CARBON/AIRSS/Generating-Clusters/EDIP-Nigel-Params/Higher-Symm/Box-15A/Only-C60/SD-CG/HFTN-CG
REM
REM
REM
REM
REM
REM ./C.cell (414f73aa93bd7a1190c7fd0f31ff2f98)
REM
REM compiler GCC version 9.2.1 20190827 (Red Hat 9.2.1-1)
REM options -cpp -mtune=generic -march=x86-64 -g -O0 -fpre-include=/usr/include/finclude/math-vector-fortran.h
REM seed 2066276725 -277058781 -178192817 -1239623284 -1098158697 -975176439 1673317703 -1422323365 -236714198 1812377124 -813158668 39955157 793480109 -2016350111 991814455 -935524405 971314148 -1893508771 1426283631 1931039539 -15074436 12635595 1237909738 1265669094 -1479759555 -942809389 502059923 -147078999 -1767985213 -1686752665 -296880179 -1625691431 1401728604
REM
CELL 1.54180   50.00000   50.00000   50.00000   90.00000   90.00000   90.00000
LATT -1
SFAC C  
C      1  0.4657730000000  0.4962230000000  0.5476150000000 1.0
C      1  0.5342270000000  0.4962220000000  0.4523850000000 1.0
C      1  0.5342270000000  0.5037770000000  0.5476140000000 1.0
C      1  0.4657730000000  0.5037780000000  0.4523860000000 1.0
C      1  0.4716450000000  0.4535540000000  0.4520210000000 1.0
C      1  0.5283520000000  0.4535530000000  0.5479790000000 1.0
C      1  0.5283540000000  0.5464460000000  0.4520210000000 1.0
C      1  0.4716480000000  0.5464470000000  0.5479800000000 1.0
C      1  0.4557530000000  0.5245820000000  0.5547610000000 1.0
C      1  0.5442480000000  0.5245810000000  0.4452390000000 1.0
C      1  0.5442470000000  0.4754170000000  0.5547610000000 1.0
C      1  0.4557520000000  0.4754200000000  0.4452390000000 1.0
C      1  0.5668720000000  0.5240440000000  0.4641840000000 1.0
C      1  0.4331290000000  0.5240470000000  0.5358160000000 1.0
C      1  0.4331280000000  0.4759560000000  0.4641850000000 1.0
C      1  0.5668710000000  0.4759520000000  0.5358150000000 1.0
C      1  0.5131200000000  0.4473240000000  0.4755940000000 1.0
C      1  0.4868770000000  0.4473250000000  0.5244060000000 1.0
C      1  0.4868800000000  0.5526760000000  0.4755940000000 1.0
C      1  0.5131230000000  0.5526750000000  0.5244060000000 1.0
C      1  0.5579520000000  0.4494850000000  0.4935550000000 1.0
C      1  0.4420450000000  0.4494880000000  0.5064450000000 1.0
C      1  0.4420470000000  0.5505150000000  0.4935550000000 1.0
C      1  0.5579550000000  0.5505120000000  0.5064450000000 1.0
C      1  0.4710810000000  0.5606800000000  0.4990560000000 1.0
C      1  0.5289220000000  0.5606790000000  0.5009440000000 1.0
C      1  0.5289190000000  0.4393200000000  0.4990560000000 1.0
C      1  0.4710780000000  0.4393210000000  0.5009440000000 1.0
C      1  0.4391090000000  0.4859660000000  0.5387010000000 1.0
C      1  0.5608900000000  0.4859630000000  0.4612990000000 1.0
C      1  0.5608910000000  0.5140340000000  0.5387010000000 1.0
C      1  0.4391100000000  0.5140370000000  0.4612990000000 1.0
C      1  0.4419950000000  0.4758030000000  0.4921290000000 1.0
C      1  0.5580040000000  0.4758000000000  0.5078710000000 1.0
C      1  0.5580050000000  0.5241970000000  0.4921290000000 1.0
C      1  0.4419960000000  0.5242000000000  0.5078710000000 1.0
C      1  0.5302300000000  0.5479840000000  0.5474480000000 1.0
C      1  0.4697720000000  0.5479860000000  0.4525520000000 1.0
C      1  0.4697700000000  0.4520160000000  0.5474480000000 1.0
C      1  0.5302280000000  0.4520150000000  0.4525520000000 1.0
C      1  0.5577720000000  0.5431680000000  0.5359310000000 1.0
C      1  0.4422300000000  0.5431710000000  0.4640690000000 1.0
C      1  0.4422280000000  0.4568320000000  0.5359320000000 1.0
C      1  0.5577700000000  0.4568290000000  0.4640680000000 1.0
C      1  0.4761110000000  0.5257870000000  0.4352200000000 1.0
C      1  0.5238900000000  0.5257860000000  0.5647800000000 1.0
C      1  0.5238890000000  0.4742130000000  0.4352200000000 1.0
C      1  0.4761100000000  0.4742140000000  0.5647800000000 1.0
C      1  0.5268760000000  0.4786640000000  0.5035940000000 1.0
C      1  0.4731240000000  0.4786650000000  0.4964060000000 1.0
C      1  0.4731250000000  0.5213360000000  0.5035940000000 1.0
C      1  0.5268760000000  0.5213350000000  0.4964060000000 1.0
C      1  0.5161370000000  0.4985230000000  0.4773090000000 1.0
C      1  0.4838630000000  0.4985230000000  0.5226910000000 1.0
C      1  0.4838630000000  0.5014770000000  0.4773090000000 1.0
C      1  0.5161370000000  0.5014760000000  0.5226910000000 1.0
C      1  0.5150890000000  0.4428290000000  0.5260180000000 1.0
C      1  0.4849090000000  0.4428300000000  0.4739820000000 1.0
C      1  0.4849110000000  0.5571710000000  0.5260180000000 1.0
C      1  0.5150910000000  0.5571700000000  0.4739820000000 1.0
END
