TITL C-9256-7861-152 0.000459904744571337 125000 -355.802722389592 0 0 60 (C1) n - 1
REM
REM in /home/bkarasulu/CARBON/AIRSS/Generating-Clusters/EDIP-Nigel-Params/Higher-Symm/Box-15A/Only-C60/SD-CG/HFTN-CG
REM
REM
REM
REM
REM
REM ./C.cell (414f73aa93bd7a1190c7fd0f31ff2f98)
REM
REM compiler GCC version 9.2.1 20190827 (Red Hat 9.2.1-1)
REM options -cpp -mtune=generic -march=x86-64 -g -O0 -fpre-include=/usr/include/finclude/math-vector-fortran.h
REM seed 504122562 -609656752 1766754075 924777762 -1808004545 973390910 -1381851801 -62961866 -922376400 2123925784 -2084157395 562157058 -1369242362 -251960954 -591362717 -656768041 582675851 -1111346393 -278512092 -2098965926 1493813014 -1548771448 -309560390 1505861110 -1988668024 -68614743 2016240280 1937389174 1325752545 1576138702 -1359427300 -1419312574 -1141332383
REM
CELL 1.54180   50.00000   50.00000   50.00000   90.00000   90.00000   90.00000
LATT -1
SFAC C  
C      1  0.5354370000000  0.5156230000000  0.5777160000000 1.0
C      1  0.5090210000000  0.4755930000000  0.5639320000000 1.0
C      1  0.4584930000000  0.4822570000000  0.5732250000000 1.0
C      1  0.4873930000000  0.5410380000000  0.5729360000000 1.0
C      1  0.4639320000000  0.5104000000000  0.5703410000000 1.0
C      1  0.4841420000000  0.4635080000000  0.5732080000000 1.0
C      1  0.5325710000000  0.4872540000000  0.5779720000000 1.0
C      1  0.5131130000000  0.5310400000000  0.5660580000000 1.0
C      1  0.5431600000000  0.5215290000000  0.4559120000000 1.0
C      1  0.5231420000000  0.4571390000000  0.4570730000000 1.0
C      1  0.4580730000000  0.4784410000000  0.4569320000000 1.0
C      1  0.4774880000000  0.5439180000000  0.4581090000000 1.0
C      1  0.4568990000000  0.5228360000000  0.4580490000000 1.0
C      1  0.4786850000000  0.4572970000000  0.4570580000000 1.0
C      1  0.5447020000000  0.4771230000000  0.4568440000000 1.0
C      1  0.5218800000000  0.5418220000000  0.4563610000000 1.0
C      1  0.4770090000000  0.4330990000000  0.5021480000000 1.0
C      1  0.4333400000000  0.5216430000000  0.5034240000000 1.0
C      1  0.5221440000000  0.5656720000000  0.5016460000000 1.0
C      1  0.5691650000000  0.4776250000000  0.5014500000000 1.0
C      1  0.5213730000000  0.4345360000000  0.5027640000000 1.0
C      1  0.5688620000000  0.5220540000000  0.5000430000000 1.0
C      1  0.4778020000000  0.5671900000000  0.5034890000000 1.0
C      1  0.4329880000000  0.4773290000000  0.5016290000000 1.0
C      1  0.5124800000000  0.5508670000000  0.4315030000000 1.0
C      1  0.5540550000000  0.4857210000000  0.4317840000000 1.0
C      1  0.4874510000000  0.4481450000000  0.4320010000000 1.0
C      1  0.4474670000000  0.5144140000000  0.4329630000000 1.0
C      1  0.4857880000000  0.5535990000000  0.4330800000000 1.0
C      1  0.4495460000000  0.4876370000000  0.4318040000000 1.0
C      1  0.5143150000000  0.4476800000000  0.4321590000000 1.0
C      1  0.5517550000000  0.5124900000000  0.4307480000000 1.0
C      1  0.5160220000000  0.5413980000000  0.5184850000000 1.0
C      1  0.5454100000000  0.4845660000000  0.5188360000000 1.0
C      1  0.4824720000000  0.4566410000000  0.5202060000000 1.0
C      1  0.4575890000000  0.5148260000000  0.5203830000000 1.0
C      1  0.4837680000000  0.5430160000000  0.5207860000000 1.0
C      1  0.4562840000000  0.4826560000000  0.5200040000000 1.0
C      1  0.5144170000000  0.4596900000000  0.5181770000000 1.0
C      1  0.5458020000000  0.5158900000000  0.5183550000000 1.0
C      1  0.4723290000000  0.4482240000000  0.5487690000000 1.0
C      1  0.4538500000000  0.5257140000000  0.5482560000000 1.0
C      1  0.5278900000000  0.5447800000000  0.5456300000000 1.0
C      1  0.5497470000000  0.4736320000000  0.5473840000000 1.0
C      1  0.5242330000000  0.4582920000000  0.5461440000000 1.0
C      1  0.5522270000000  0.5274800000000  0.5460700000000 1.0
C      1  0.4718840000000  0.5487250000000  0.5494010000000 1.0
C      1  0.4493280000000  0.4690500000000  0.5468660000000 1.0
C      1  0.5623010000000  0.4639950000000  0.4766690000000 1.0
C      1  0.4649570000000  0.4391880000000  0.4762630000000 1.0
C      1  0.4389690000000  0.5351780000000  0.4782230000000 1.0
C      1  0.5345040000000  0.5601540000000  0.4758550000000 1.0
C      1  0.4393590000000  0.4652160000000  0.4758780000000 1.0
C      1  0.5348880000000  0.4390940000000  0.4773860000000 1.0
C      1  0.5615080000000  0.5347820000000  0.4749240000000 1.0
C      1  0.4645710000000  0.5615500000000  0.4781760000000 1.0
C      1  0.4159590000000  0.4996570000000  0.4999460000000 1.0
C      1  0.5004560000000  0.5836180000000  0.5002700000000 1.0
C      1  0.5859330000000  0.4998750000000  0.4969940000000 1.0
C      1  0.4996700000000  0.4165950000000  0.5003330000000 1.0
END
