TITL C-9269-7444-233 3.54923761441368e-06 125000 -366.12502163964 0 0 60 (C1) n - 1
REM
REM in /home/bkarasulu/CARBON/AIRSS/Generating-Clusters/EDIP-Nigel-Params/Higher-Symm/Box-15A/Only-C60/SD-CG/HFTN-CG
REM
REM
REM
REM
REM
REM ./C.cell (414f73aa93bd7a1190c7fd0f31ff2f98)
REM
REM compiler GCC version 9.2.1 20190827 (Red Hat 9.2.1-1)
REM options -cpp -mtune=generic -march=x86-64 -g -O0 -fpre-include=/usr/include/finclude/math-vector-fortran.h
REM seed -578501165 -1762904696 -1855948828 -948696009 1811739691 1466846555 1071828528 1594094056 -1460054149 1796691439 -42387716 -1586741364 1321209356 1083328640 2124126505 741542950 1381957911 27147534 1085297715 -31374101 1194394335 -1568869897 862049203 24795757 -816937130 -1564498462 -605572411 -304110766 -94381474 793826832 -868746587 -1959166939 -1805603885
REM
CELL 1.54180   50.00000   50.00000   50.00000   90.00000   90.00000   90.00000
LATT -1
SFAC C  
C      1  0.5489630000000  0.5449230000000  0.4649910000000 1.0
C      1  0.4506130000000  0.5422930000000  0.4636840000000 1.0
C      1  0.5253630000000  0.4672320000000  0.5870520000000 1.0
C      1  0.4796640000000  0.4819980000000  0.5810900000000 1.0
C      1  0.4443550000000  0.4547950000000  0.5027950000000 1.0
C      1  0.5491670000000  0.4543290000000  0.4987210000000 1.0
C      1  0.4499640000000  0.5094300000000  0.5482970000000 1.0
C      1  0.5432760000000  0.5031690000000  0.5428020000000 1.0
C      1  0.4817920000000  0.4500820000000  0.4709990000000 1.0
C      1  0.5286370000000  0.4396670000000  0.4536570000000 1.0
C      1  0.5243180000000  0.5075230000000  0.4467710000000 1.0
C      1  0.4779700000000  0.5048580000000  0.4478720000000 1.0
C      1  0.4329800000000  0.5139730000000  0.5043300000000 1.0
C      1  0.5700440000000  0.5137710000000  0.5035300000000 1.0
C      1  0.4751560000000  0.4602520000000  0.5007380000000 1.0
C      1  0.5207720000000  0.4656170000000  0.4992720000000 1.0
C      1  0.5238030000000  0.4948930000000  0.5039790000000 1.0
C      1  0.4760460000000  0.4910300000000  0.4999240000000 1.0
C      1  0.4744530000000  0.5534740000000  0.4723430000000 1.0
C      1  0.5242820000000  0.5542680000000  0.4734310000000 1.0
C      1  0.4742160000000  0.5210260000000  0.5607790000000 1.0
C      1  0.5220430000000  0.5157380000000  0.5587660000000 1.0
C      1  0.4388690000000  0.4714720000000  0.4773530000000 1.0
C      1  0.5588600000000  0.4720700000000  0.4764500000000 1.0
C      1  0.4530780000000  0.4798480000000  0.5422870000000 1.0
C      1  0.5493630000000  0.4733810000000  0.5457710000000 1.0
C      1  0.5605080000000  0.4595930000000  0.5237450000000 1.0
C      1  0.4344620000000  0.4651950000000  0.5268310000000 1.0
C      1  0.4547020000000  0.5147930000000  0.4626940000000 1.0
C      1  0.5469040000000  0.5173780000000  0.4624700000000 1.0
C      1  0.4434680000000  0.5278230000000  0.5263110000000 1.0
C      1  0.5538790000000  0.5233690000000  0.5245100000000 1.0
C      1  0.5237190000000  0.5713080000000  0.4962460000000 1.0
C      1  0.4737390000000  0.5712400000000  0.4944410000000 1.0
C      1  0.4843270000000  0.5457510000000  0.5475850000000 1.0
C      1  0.5152390000000  0.5428460000000  0.5471810000000 1.0
C      1  0.5331390000000  0.5454290000000  0.5232260000000 1.0
C      1  0.4658110000000  0.5480220000000  0.5241080000000 1.0
C      1  0.4581520000000  0.4604060000000  0.4552780000000 1.0
C      1  0.5461330000000  0.4623060000000  0.4497270000000 1.0
C      1  0.4728050000000  0.4782260000000  0.4349340000000 1.0
C      1  0.5277720000000  0.4806610000000  0.4336290000000 1.0
C      1  0.4860250000000  0.5264840000000  0.4295480000000 1.0
C      1  0.5136540000000  0.5286890000000  0.4291790000000 1.0
C      1  0.5269540000000  0.4589570000000  0.5600200000000 1.0
C      1  0.4741030000000  0.4658250000000  0.5584020000000 1.0
C      1  0.5505410000000  0.5005380000000  0.4864350000000 1.0
C      1  0.4497830000000  0.4987880000000  0.4864560000000 1.0
C      1  0.5060140000000  0.4864430000000  0.5876690000000 1.0
C      1  0.4978160000000  0.5072470000000  0.5151570000000 1.0
C      1  0.4998310000000  0.4521550000000  0.5173030000000 1.0
C      1  0.5083030000000  0.4680490000000  0.4713800000000 1.0
C      1  0.4982650000000  0.5781660000000  0.5065320000000 1.0
C      1  0.5024680000000  0.4986770000000  0.4653780000000 1.0
C      1  0.4997260000000  0.5423160000000  0.4626170000000 1.0
C      1  0.4961760000000  0.5030250000000  0.5506660000000 1.0
C      1  0.4988090000000  0.5391950000000  0.5063550000000 1.0
C      1  0.5004840000000  0.4599630000000  0.5450940000000 1.0
C      1  0.5032950000000  0.4387710000000  0.4407110000000 1.0
C      1  0.5003170000000  0.4650120000000  0.4277630000000 1.0
END
