TITL C-9265-7156-269 2.02297672230416e-05 125000 -356.868492996012 0 0 60 (C1) n - 1
REM
REM in /home/bkarasulu/CARBON/AIRSS/Generating-Clusters/EDIP-Nigel-Params/Higher-Symm/Box-15A/Only-C60/SD-CG/HFTN-CG
REM
REM
REM
REM
REM
REM ./C.cell (414f73aa93bd7a1190c7fd0f31ff2f98)
REM
REM compiler GCC version 9.2.1 20190827 (Red Hat 9.2.1-1)
REM options -cpp -mtune=generic -march=x86-64 -g -O0 -fpre-include=/usr/include/finclude/math-vector-fortran.h
REM seed -1315296909 -1827239877 -1630550958 49732966 -1288341382 1020896001 -2018789324 -1048025847 404516363 343686164 -212389314 -1830285212 662150339 -544751423 1391657199 2005487870 -593351602 716203541 1226136849 583494596 574102991 1329297725 1588504570 2094990010 1062717653 1474816365 982521833 -150180955 328491815 282833477 -1186905585 765708967 -1667957729
REM
CELL 1.54180   50.00000   50.00000   50.00000   90.00000   90.00000   90.00000
LATT -1
SFAC C  
C      1  0.4218720000000  0.4963400000000  0.5408280000000 1.0
C      1  0.4992990000000  0.5278080000000  0.4236280000000 1.0
C      1  0.5395690000000  0.4410170000000  0.4849150000000 1.0
C      1  0.5731670000000  0.4871540000000  0.4656570000000 1.0
C      1  0.5546590000000  0.5204570000000  0.5373970000000 1.0
C      1  0.4245080000000  0.4943720000000  0.4771460000000 1.0
C      1  0.5020300000000  0.5345810000000  0.5747470000000 1.0
C      1  0.4890300000000  0.4776770000000  0.4268790000000 1.0
C      1  0.4842930000000  0.4603060000000  0.5609490000000 1.0
C      1  0.4696180000000  0.4248180000000  0.4991850000000 1.0
C      1  0.4726340000000  0.5602290000000  0.4884220000000 1.0
C      1  0.5442320000000  0.5738600000000  0.4941910000000 1.0
C      1  0.5364850000000  0.4826210000000  0.4325020000000 1.0
C      1  0.4252360000000  0.5355480000000  0.4990400000000 1.0
C      1  0.5072550000000  0.4261210000000  0.5265140000000 1.0
C      1  0.4611960000000  0.4942550000000  0.5775250000000 1.0
C      1  0.5255430000000  0.4943280000000  0.5729330000000 1.0
C      1  0.4620360000000  0.5195560000000  0.4458890000000 1.0
C      1  0.5780760000000  0.5326910000000  0.5021000000000 1.0
C      1  0.4368470000000  0.4609890000000  0.5188480000000 1.0
C      1  0.5727020000000  0.4766170000000  0.5111410000000 1.0
C      1  0.5049920000000  0.4352700000000  0.4581900000000 1.0
C      1  0.5061750000000  0.5721280000000  0.4523110000000 1.0
C      1  0.5105790000000  0.5616680000000  0.5282160000000 1.0
C      1  0.4924880000000  0.5214360000000  0.5505640000000 1.0
C      1  0.5424080000000  0.5517240000000  0.4775170000000 1.0
C      1  0.5354940000000  0.5032340000000  0.5272390000000 1.0
C      1  0.5196210000000  0.5262510000000  0.4425830000000 1.0
C      1  0.4994050000000  0.4709540000000  0.5403370000000 1.0
C      1  0.4913570000000  0.4821370000000  0.4556420000000 1.0
C      1  0.4721830000000  0.5406000000000  0.5076900000000 1.0
C      1  0.4797130000000  0.4520160000000  0.4964850000000 1.0
C      1  0.5295070000000  0.4604200000000  0.5019620000000 1.0
C      1  0.4514740000000  0.4962590000000  0.4881450000000 1.0
C      1  0.4440690000000  0.5124040000000  0.5362970000000 1.0
C      1  0.5497640000000  0.5008870000000  0.4763200000000 1.0
C      1  0.5587410000000  0.5290030000000  0.4824900000000 1.0
C      1  0.4920510000000  0.5412850000000  0.5283140000000 1.0
C      1  0.5133770000000  0.4968080000000  0.5465040000000 1.0
C      1  0.4491060000000  0.5216840000000  0.5083600000000 1.0
C      1  0.5454270000000  0.4853170000000  0.5049350000000 1.0
C      1  0.4573250000000  0.4707150000000  0.5029370000000 1.0
C      1  0.5216130000000  0.5497560000000  0.4585360000000 1.0
C      1  0.4889540000000  0.4555010000000  0.4684250000000 1.0
C      1  0.5044420000000  0.4534090000000  0.5166670000000 1.0
C      1  0.4700360000000  0.5010460000000  0.4649010000000 1.0
C      1  0.5263890000000  0.4992520000000  0.4538710000000 1.0
C      1  0.4649780000000  0.5111800000000  0.5558480000000 1.0
C      1  0.4684340000000  0.4685350000000  0.5810760000000 1.0
C      1  0.4848150000000  0.5729860000000  0.4684830000000 1.0
C      1  0.5854310000000  0.4763410000000  0.4872130000000 1.0
C      1  0.5146710000000  0.4749460000000  0.4187000000000 1.0
C      1  0.4723400000000  0.5302000000000  0.4233780000000 1.0
C      1  0.5294690000000  0.5762730000000  0.5164050000000 1.0
C      1  0.5298560000000  0.4267090000000  0.4642300000000 1.0
C      1  0.4866880000000  0.4123530000000  0.5158940000000 1.0
C      1  0.4173250000000  0.4704500000000  0.5348000000000 1.0
C      1  0.4126420000000  0.5178990000000  0.4829460000000 1.0
C      1  0.5772420000000  0.5325990000000  0.5290910000000 1.0
C      1  0.5191330000000  0.5170200000000  0.5860630000000 1.0
END
