TITL C-9258-7861-233 0.000362861680450974 125000 -374.264293052634 0 0 60 (C1) n - 1
REM
REM in /home/bkarasulu/CARBON/AIRSS/Generating-Clusters/EDIP-Nigel-Params/Higher-Symm/Box-15A/Only-C60/SD-CG/HFTN-CG
REM
REM
REM
REM
REM
REM ./C.cell (414f73aa93bd7a1190c7fd0f31ff2f98)
REM
REM compiler GCC version 9.2.1 20190827 (Red Hat 9.2.1-1)
REM options -cpp -mtune=generic -march=x86-64 -g -O0 -fpre-include=/usr/include/finclude/math-vector-fortran.h
REM seed 1408474704 -1817819131 -732944559 -422653403 -1191186862 -824945448 -2048152148 1994177531 1365688001 -342425916 -973058856 -179467523 -2059139213 -123030817 -1758022380 544368143 1931543734 -848068847 -748766130 -778458880 -1041477902 -904225390 1397073932 1457247728 -1692653232 -1912814344 -1035112183 -825390922 -252304562 1184428335 1516530366 -1998859404 -668117932
REM
CELL 1.54180   50.00000   50.00000   50.00000   90.00000   90.00000   90.00000
LATT -1
SFAC C  
C      1  0.5018160000000  0.4615490000000  0.5568530000000 1.0
C      1  0.4507700000000  0.4605660000000  0.4693810000000 1.0
C      1  0.5479470000000  0.4603150000000  0.4733330000000 1.0
C      1  0.5504370000000  0.5028420000000  0.5111030000000 1.0
C      1  0.4759650000000  0.5000630000000  0.5354390000000 1.0
C      1  0.4765570000000  0.5027280000000  0.4353590000000 1.0
C      1  0.4836960000000  0.5660340000000  0.5242150000000 1.0
C      1  0.4906720000000  0.5659790000000  0.4726300000000 1.0
C      1  0.5301330000000  0.5622860000000  0.5054150000000 1.0
C      1  0.5281350000000  0.4486480000000  0.5521700000000 1.0
C      1  0.4496210000000  0.4505880000000  0.4973870000000 1.0
C      1  0.5281670000000  0.4495760000000  0.4542720000000 1.0
C      1  0.5606710000000  0.5367200000000  0.4793120000000 1.0
C      1  0.4915740000000  0.5370650000000  0.5635440000000 1.0
C      1  0.4526030000000  0.5381840000000  0.4589200000000 1.0
C      1  0.5602400000000  0.5261900000000  0.5281380000000 1.0
C      1  0.4368910000000  0.5311390000000  0.5349070000000 1.0
C      1  0.4947500000000  0.5271220000000  0.4361780000000 1.0
C      1  0.4860540000000  0.5212270000000  0.4743250000000 1.0
C      1  0.5114660000000  0.5313390000000  0.4900710000000 1.0
C      1  0.4644210000000  0.5264740000000  0.5263860000000 1.0
C      1  0.4829140000000  0.4956490000000  0.4883250000000 1.0
C      1  0.5199050000000  0.5091890000000  0.5087090000000 1.0
C      1  0.4961480000000  0.4924430000000  0.5131450000000 1.0
C      1  0.5558520000000  0.4749100000000  0.5209540000000 1.0
C      1  0.4567460000000  0.4769660000000  0.5391760000000 1.0
C      1  0.4882080000000  0.4763270000000  0.4409810000000 1.0
C      1  0.4742550000000  0.4538180000000  0.5466850000000 1.0
C      1  0.4721530000000  0.4534360000000  0.4502810000000 1.0
C      1  0.5500340000000  0.4532350000000  0.5017950000000 1.0
C      1  0.5478010000000  0.4713840000000  0.5494200000000 1.0
C      1  0.4396090000000  0.4726030000000  0.5147120000000 1.0
C      1  0.5172580000000  0.4722880000000  0.4383970000000 1.0
C      1  0.5076750000000  0.4882710000000  0.5689600000000 1.0
C      1  0.4428410000000  0.4890290000000  0.4701740000000 1.0
C      1  0.5535480000000  0.4878310000000  0.4643240000000 1.0
C      1  0.5209270000000  0.5671530000000  0.4755970000000 1.0
C      1  0.5128710000000  0.5650720000000  0.5298620000000 1.0
C      1  0.4760750000000  0.5571730000000  0.4967580000000 1.0
C      1  0.5128900000000  0.4260910000000  0.4570530000000 1.0
C      1  0.5322710000000  0.4279210000000  0.5337610000000 1.0
C      1  0.4565470000000  0.4256190000000  0.5084150000000 1.0
C      1  0.5371740000000  0.5445180000000  0.4610040000000 1.0
C      1  0.5175290000000  0.5449390000000  0.5513140000000 1.0
C      1  0.4508750000000  0.5434850000000  0.4882170000000 1.0
C      1  0.4340140000000  0.4966910000000  0.4971650000000 1.0
C      1  0.5341560000000  0.4963530000000  0.4438950000000 1.0
C      1  0.5352990000000  0.4965650000000  0.5614620000000 1.0
C      1  0.5404040000000  0.5251110000000  0.5509820000000 1.0
C      1  0.4317730000000  0.5261250000000  0.5051560000000 1.0
C      1  0.5214850000000  0.5222050000000  0.4483980000000 1.0
C      1  0.5463010000000  0.4269870000000  0.5107510000000 1.0
C      1  0.4685120000000  0.4304600000000  0.5322250000000 1.0
C      1  0.4862750000000  0.4295880000000  0.4543520000000 1.0
C      1  0.4699250000000  0.5495290000000  0.5455560000000 1.0
C      1  0.4786540000000  0.5514110000000  0.4484940000000 1.0
C      1  0.5574860000000  0.5492180000000  0.5073800000000 1.0
C      1  0.5631940000000  0.5073110000000  0.4844110000000 1.0
C      1  0.4864920000000  0.5074310000000  0.5626700000000 1.0
C      1  0.4513340000000  0.5090330000000  0.4497480000000 1.0
END
