TITL C-9265-7156-141 2.08147503205901e-06 125000 -360.068160236825 0 0 60 (S4) n - 1
REM
REM in /home/bkarasulu/CARBON/AIRSS/Generating-Clusters/EDIP-Nigel-Params/Higher-Symm/Box-15A/Only-C60/SD-CG/HFTN-CG
REM
REM
REM
REM
REM
REM ./C.cell (414f73aa93bd7a1190c7fd0f31ff2f98)
REM
REM compiler GCC version 9.2.1 20190827 (Red Hat 9.2.1-1)
REM options -cpp -mtune=generic -march=x86-64 -g -O0 -fpre-include=/usr/include/finclude/math-vector-fortran.h
REM seed -1601717083 -84070078 714742451 1819402682 405818931 571034047 1960470431 -1922539308 -354998816 2033571968 -1225235015 -1588474661 828517245 591085430 1557312488 -1233916683 1731734125 619890519 1272814889 119403074 -10345223 -1668659153 -878453100 -1581358935 -1888841696 20036630 -1586796468 1499774078 637961993 504483539 1245577125 1237529071 86247931
REM
CELL 1.54180   50.00000   50.00000   50.00000   90.00000   90.00000   90.00000
LATT -1
SFAC C  
C      1  0.4365830000000  0.4494670000000  0.4956140000000 1.0
C      1  0.4494700000000  0.5634140000000  0.5044570000000 1.0
C      1  0.5634110000000  0.5505330000000  0.4955340000000 1.0
C      1  0.5505350000000  0.4365860000000  0.5043950000000 1.0
C      1  0.5507700000000  0.4879570000000  0.5326970000000 1.0
C      1  0.4879360000000  0.4492500000000  0.4672800000000 1.0
C      1  0.4492710000000  0.5120440000000  0.5327600000000 1.0
C      1  0.5120230000000  0.5507490000000  0.4672640000000 1.0
C      1  0.4768850000000  0.5703070000000  0.5036550000000 1.0
C      1  0.5703050000000  0.5231170000000  0.4963150000000 1.0
C      1  0.5231190000000  0.4296930000000  0.5036270000000 1.0
C      1  0.4296910000000  0.4768830000000  0.4964030000000 1.0
C      1  0.5157950000000  0.4656960000000  0.5619410000000 1.0
C      1  0.4656560000000  0.4842430000000  0.4380710000000 1.0
C      1  0.4842820000000  0.5343060000000  0.5619600000000 1.0
C      1  0.5342660000000  0.5157560000000  0.4380280000000 1.0
C      1  0.4624550000000  0.4445720000000  0.5072290000000 1.0
C      1  0.4445670000000  0.5375490000000  0.4928290000000 1.0
C      1  0.5375540000000  0.5554280000000  0.5071810000000 1.0
C      1  0.5554240000000  0.4624500000000  0.4927610000000 1.0
C      1  0.5132270000000  0.4392900000000  0.4615610000000 1.0
C      1  0.4393140000000  0.4867500000000  0.5384690000000 1.0
C      1  0.4867250000000  0.5607090000000  0.4615760000000 1.0
C      1  0.5607330000000  0.5132510000000  0.5383930000000 1.0
C      1  0.5410290000000  0.4749510000000  0.5549080000000 1.0
C      1  0.4749160000000  0.4590050000000  0.4450830000000 1.0
C      1  0.4590400000000  0.5250500000000  0.5549590000000 1.0
C      1  0.5250160000000  0.5409940000000  0.4450510000000 1.0
C      1  0.5370580000000  0.4819600000000  0.5065700000000 1.0
C      1  0.4819560000000  0.4629460000000  0.4934180000000 1.0
C      1  0.4629500000000  0.5180400000000  0.5066160000000 1.0
C      1  0.5180360000000  0.5370540000000  0.4933950000000 1.0
C      1  0.5716240000000  0.5244630000000  0.4681170000000 1.0
C      1  0.5244830000000  0.4283570000000  0.5318240000000 1.0
C      1  0.4283370000000  0.4755360000000  0.4682060000000 1.0
C      1  0.4755560000000  0.5716440000000  0.5318530000000 1.0
C      1  0.5141890000000  0.4961700000000  0.4298930000000 1.0
C      1  0.4962140000000  0.4857680000000  0.5701010000000 1.0
C      1  0.4857240000000  0.5038290000000  0.4299100000000 1.0
C      1  0.5038740000000  0.5142330000000  0.5700960000000 1.0
C      1  0.4465780000000  0.5380450000000  0.4648470000000 1.0
C      1  0.5380670000000  0.5534000000000  0.5351620000000 1.0
C      1  0.5533780000000  0.4619540000000  0.4647810000000 1.0
C      1  0.4619770000000  0.4466000000000  0.5352100000000 1.0
C      1  0.5337290000000  0.4519860000000  0.4477380000000 1.0
C      1  0.4520190000000  0.4662390000000  0.5522720000000 1.0
C      1  0.4662060000000  0.5480130000000  0.4477790000000 1.0
C      1  0.5480460000000  0.5337620000000  0.5522110000000 1.0
C      1  0.5089010000000  0.4639550000000  0.5113820000000 1.0
C      1  0.4639480000000  0.4911060000000  0.4886350000000 1.0
C      1  0.4911130000000  0.5360450000000  0.5113930000000 1.0
C      1  0.5360380000000  0.5088940000000  0.4885900000000 1.0
C      1  0.5236510000000  0.4698900000000  0.4290760000000 1.0
C      1  0.4699350000000  0.4763060000000  0.5709290000000 1.0
C      1  0.4762610000000  0.5301090000000  0.4291050000000 1.0
C      1  0.5301540000000  0.5236960000000  0.5708910000000 1.0
C      1  0.4488760000000  0.4941780000000  0.4602030000000 1.0
C      1  0.4942030000000  0.5510990000000  0.5398320000000 1.0
C      1  0.5510740000000  0.5058220000000  0.4601390000000 1.0
C      1  0.5058470000000  0.4489010000000  0.5398260000000 1.0
END
