TITL C-9262-5533-380 5.42140304110632e-06 125000 -361.339232486115 0 0 60 (C1) n - 1
REM
REM in /home/bkarasulu/CARBON/AIRSS/Generating-Clusters/EDIP-Nigel-Params/Higher-Symm/Box-15A/Only-C60/SD-CG/HFTN-CG
REM
REM
REM
REM
REM
REM ./C.cell (414f73aa93bd7a1190c7fd0f31ff2f98)
REM
REM compiler GCC version 9.2.1 20190827 (Red Hat 9.2.1-1)
REM options -cpp -mtune=generic -march=x86-64 -g -O0 -fpre-include=/usr/include/finclude/math-vector-fortran.h
REM seed -1534352604 622529131 -1927746447 -589364690 -1114982766 -1031758495 -1474204856 -2138510411 -1917271116 -1202647982 -1666732894 -1248130381 -144633751 820205774 -228175339 1164959383 -1082416754 971426043 492218107 -1587734071 -1272093252 1393959638 1966671918 2037700752 -653201845 -1067121793 -511932412 1226640444 519702377 -789134993 -1756665715 109429188 222666784
REM
CELL 1.54180   50.00000   50.00000   50.00000   90.00000   90.00000   90.00000
LATT -1
SFAC C  
C      1  0.4761150000000  0.5119780000000  0.5031820000000 1.0
C      1  0.5259690000000  0.5123560000000  0.5079810000000 1.0
C      1  0.5001840000000  0.4721300000000  0.5066860000000 1.0
C      1  0.4766890000000  0.4837790000000  0.4919930000000 1.0
C      1  0.5245460000000  0.4859310000000  0.4936860000000 1.0
C      1  0.5020260000000  0.5270410000000  0.4964730000000 1.0
C      1  0.4502850000000  0.5250520000000  0.4939420000000 1.0
C      1  0.5484620000000  0.5290180000000  0.4957410000000 1.0
C      1  0.5028270000000  0.4426450000000  0.4970570000000 1.0
C      1  0.4505290000000  0.4728750000000  0.5040820000000 1.0
C      1  0.5487710000000  0.4687350000000  0.5036100000000 1.0
C      1  0.5029020000000  0.5561870000000  0.5056930000000 1.0
C      1  0.5393030000000  0.4486000000000  0.5313600000000 1.0
C      1  0.4465220000000  0.4964370000000  0.5373690000000 1.0
C      1  0.5252830000000  0.5607900000000  0.5269730000000 1.0
C      1  0.5293910000000  0.5446610000000  0.4611950000000 1.0
C      1  0.4353750000000  0.5080800000000  0.4715930000000 1.0
C      1  0.5259090000000  0.4423720000000  0.4671070000000 1.0
C      1  0.4960890000000  0.5531970000000  0.4255830000000 1.0
C      1  0.5328770000000  0.4846320000000  0.4424140000000 1.0
C      1  0.4674420000000  0.4778470000000  0.4431730000000 1.0
C      1  0.4977930000000  0.4634160000000  0.5560790000000 1.0
C      1  0.5344470000000  0.5188080000000  0.5568410000000 1.0
C      1  0.4553700000000  0.5269220000000  0.5755850000000 1.0
C      1  0.4841880000000  0.5698400000000  0.4443770000000 1.0
C      1  0.5610750000000  0.4840930000000  0.4470800000000 1.0
C      1  0.4599050000000  0.4509770000000  0.4442260000000 1.0
C      1  0.4760460000000  0.4465170000000  0.5545670000000 1.0
C      1  0.5616110000000  0.5123700000000  0.5561110000000 1.0
C      1  0.4477230000000  0.5463500000000  0.5572550000000 1.0
C      1  0.5229500000000  0.5019410000000  0.5361960000000 1.0
C      1  0.4974510000000  0.4855420000000  0.5360290000000 1.0
C      1  0.4743980000000  0.5052320000000  0.5325900000000 1.0
C      1  0.5145160000000  0.4948470000000  0.4640610000000 1.0
C      1  0.5087210000000  0.5246320000000  0.4671770000000 1.0
C      1  0.4875100000000  0.4810040000000  0.4639280000000 1.0
C      1  0.5455270000000  0.4405910000000  0.4882350000000 1.0
C      1  0.4261620000000  0.4878060000000  0.4914720000000 1.0
C      1  0.5331740000000  0.5643700000000  0.4834280000000 1.0
C      1  0.5483540000000  0.5572070000000  0.5086770000000 1.0
C      1  0.4284010000000  0.5065990000000  0.5153730000000 1.0
C      1  0.5286350000000  0.4301370000000  0.5111240000000 1.0
C      1  0.4742770000000  0.4314360000000  0.4907380000000 1.0
C      1  0.4569050000000  0.5547340000000  0.4896200000000 1.0
C      1  0.5725550000000  0.5107710000000  0.4909230000000 1.0
C      1  0.4738300000000  0.5637300000000  0.5121610000000 1.0
C      1  0.4537870000000  0.4427930000000  0.5090960000000 1.0
C      1  0.5722460000000  0.4884230000000  0.5103700000000 1.0
C      1  0.4660040000000  0.4335450000000  0.4639800000000 1.0
C      1  0.4675800000000  0.5615430000000  0.4647570000000 1.0
C      1  0.5731440000000  0.5008950000000  0.4649740000000 1.0
C      1  0.4637640000000  0.5563580000000  0.5371560000000 1.0
C      1  0.4595580000000  0.4371890000000  0.5357470000000 1.0
C      1  0.5737820000000  0.4978160000000  0.5368050000000 1.0
C      1  0.4381870000000  0.5095880000000  0.5622710000000 1.0
C      1  0.5280190000000  0.5448280000000  0.5496450000000 1.0
C      1  0.5228000000000  0.4515480000000  0.5536840000000 1.0
C      1  0.4476380000000  0.4961030000000  0.4497120000000 1.0
C      1  0.5340010000000  0.4560670000000  0.4434640000000 1.0
C      1  0.5204660000000  0.5590890000000  0.4375940000000 1.0
END
