TITL C-9261-551-323 -1.02292486354737e-06 125000 -364.711350289435 0 0 60 (Oh) n - 1
REM
REM in /home/bkarasulu/CARBON/AIRSS/Generating-Clusters/EDIP-Nigel-Params/Higher-Symm/Box-15A/Only-C60/SD-CG/HFTN-CG
REM
REM
REM
REM
REM
REM ./C.cell (414f73aa93bd7a1190c7fd0f31ff2f98)
REM
REM compiler GCC version 9.2.1 20190827 (Red Hat 9.2.1-1)
REM options -cpp -mtune=generic -march=x86-64 -g -O0 -fpre-include=/usr/include/finclude/math-vector-fortran.h
REM seed -2073531333 -1395376780 1705939683 -468672331 460401784 2146043841 -1282111379 2082369123 -903564858 1127042537 1079888976 696079798 1937315718 -2068981143 1559201457 -1216708874 1351041509 1959614142 -1367942970 -890520243 1366026963 -1422797287 1667968948 -22728846 585107762 -863827752 1798390813 1140109756 1570429951 125605728 1493724268 -73554021 -341605491
REM
CELL 1.54180   50.00000   50.00000   50.00000   90.00000   90.00000   90.00000
LATT -1
SFAC C  
C      1  0.4276500000000  0.4607270000000  0.4604670000000 1.0
C      1  0.4607280000000  0.4609120000000  0.4274090000000 1.0
C      1  0.4607620000000  0.4277030000000  0.4603360000000 1.0
C      1  0.5724550000000  0.4605840000000  0.5391970000000 1.0
C      1  0.5723720000000  0.5396090000000  0.4608440000000 1.0
C      1  0.4275240000000  0.5390800000000  0.5394920000000 1.0
C      1  0.5393770000000  0.4603990000000  0.5722560000000 1.0
C      1  0.5393130000000  0.5397060000000  0.4277660000000 1.0
C      1  0.4605830000000  0.5389830000000  0.5725690000000 1.0
C      1  0.5394300000000  0.4274720000000  0.5390470000000 1.0
C      1  0.5392590000000  0.5726330000000  0.4609750000000 1.0
C      1  0.4605480000000  0.5721920000000  0.5396420000000 1.0
C      1  0.4275450000000  0.5394160000000  0.4608030000000 1.0
C      1  0.4606230000000  0.5396010000000  0.4277440000000 1.0
C      1  0.4605700000000  0.5725280000000  0.4609530000000 1.0
C      1  0.5723500000000  0.5392730000000  0.5395330000000 1.0
C      1  0.5724760000000  0.4609200000000  0.4605080000000 1.0
C      1  0.4276280000000  0.4603910000000  0.5391560000000 1.0
C      1  0.5392720000000  0.5390880000000  0.5725910000000 1.0
C      1  0.5394170000000  0.4610170000000  0.4274310000000 1.0
C      1  0.4606870000000  0.4602940000000  0.5722340000000 1.0
C      1  0.5392380000000  0.5722970000000  0.5396640000000 1.0
C      1  0.5394520000000  0.4278080000000  0.4603580000000 1.0
C      1  0.4607410000000  0.4273670000000  0.5390250000000 1.0
C      1  0.5617580000000  0.5272740000000  0.4383560000000 1.0
C      1  0.5269940000000  0.4379960000000  0.5615210000000 1.0
C      1  0.4381330000000  0.5615790000000  0.5271740000000 1.0
C      1  0.4381700000000  0.5265830000000  0.5618740000000 1.0
C      1  0.4382760000000  0.4732530000000  0.4380910000000 1.0
C      1  0.5617960000000  0.4728900000000  0.5616790000000 1.0
C      1  0.4731710000000  0.4384510000000  0.4379530000000 1.0
C      1  0.4729720000000  0.5614770000000  0.5620320000000 1.0
C      1  0.5268640000000  0.5620760000000  0.4384950000000 1.0
C      1  0.5617020000000  0.5619730000000  0.4733520000000 1.0
C      1  0.5618520000000  0.4381910000000  0.5266830000000 1.0
C      1  0.4383130000000  0.4382560000000  0.4727910000000 1.0
C      1  0.5618300000000  0.4734170000000  0.4381260000000 1.0
C      1  0.5268290000000  0.5615490000000  0.5620470000000 1.0
C      1  0.4382980000000  0.4380270000000  0.5266480000000 1.0
C      1  0.4382420000000  0.4727260000000  0.5616440000000 1.0
C      1  0.4382040000000  0.5271100000000  0.4383210000000 1.0
C      1  0.5617240000000  0.5267470000000  0.5619090000000 1.0
C      1  0.4730060000000  0.5620040000000  0.4384790000000 1.0
C      1  0.4731360000000  0.4379240000000  0.5615050000000 1.0
C      1  0.5270280000000  0.4385230000000  0.4379680000000 1.0
C      1  0.5618670000000  0.4384210000000  0.4728260000000 1.0
C      1  0.5616870000000  0.5617440000000  0.5272090000000 1.0
C      1  0.4381480000000  0.5618090000000  0.4733170000000 1.0
C      1  0.4343300000000  0.5001930000000  0.4342940000000 1.0
C      1  0.5000690000000  0.4340330000000  0.5654070000000 1.0
C      1  0.4999310000000  0.5659670000000  0.4345930000000 1.0
C      1  0.5657750000000  0.4344000000000  0.4997390000000 1.0
C      1  0.4342250000000  0.5656000000000  0.5002610000000 1.0
C      1  0.5656700000000  0.4998070000000  0.5657060000000 1.0
C      1  0.5657060000000  0.5003670000000  0.4343310000000 1.0
C      1  0.4342940000000  0.4996330000000  0.5656690000000 1.0
C      1  0.5001060000000  0.4345930000000  0.4340330000000 1.0
C      1  0.4344000000000  0.4342250000000  0.4997010000000 1.0
C      1  0.4998940000000  0.5654070000000  0.5659670000000 1.0
C      1  0.5656000000000  0.5657750000000  0.5002990000000 1.0
END
