TITL C-9263-351-161 -7.0916461162825e-07 125000 -362.43607696344 0 0 60 (C1) n - 1
REM
REM in /home/bkarasulu/CARBON/AIRSS/Generating-Clusters/EDIP-Nigel-Params/Higher-Symm/Box-15A/Only-C60/SD-CG/HFTN-CG
REM
REM
REM
REM
REM
REM ./C.cell (414f73aa93bd7a1190c7fd0f31ff2f98)
REM
REM compiler GCC version 9.2.1 20190827 (Red Hat 9.2.1-1)
REM options -cpp -mtune=generic -march=x86-64 -g -O0 -fpre-include=/usr/include/finclude/math-vector-fortran.h
REM seed 845684826 1296411037 -825436719 488805290 532636584 1692106651 498274781 1850669320 -1776294668 -1504663236 324656767 -189368163 1360894883 -958322310 -1408337579 -1764441026 1353371944 -150508195 1026956443 2036507137 -245342797 -1561626474 276443615 -1034254238 544191484 -720299597 -660749631 -1340202127 -1292680012 1479319481 -1696821584 1520622923 56797976
REM
CELL 1.54180   50.00000   50.00000   50.00000   90.00000   90.00000   90.00000
LATT -1
SFAC C  
C      1  0.5682110000000  0.5420230000000  0.4721050000000 1.0
C      1  0.4295620000000  0.5417620000000  0.5247580000000 1.0
C      1  0.5734270000000  0.5395090000000  0.5227380000000 1.0
C      1  0.4314800000000  0.5429590000000  0.4740600000000 1.0
C      1  0.4711350000000  0.5650000000000  0.5208660000000 1.0
C      1  0.5288740000000  0.5661020000000  0.4842130000000 1.0
C      1  0.4730160000000  0.5654430000000  0.4823220000000 1.0
C      1  0.5255620000000  0.5664450000000  0.5137520000000 1.0
C      1  0.5624880000000  0.5644010000000  0.5135920000000 1.0
C      1  0.4439420000000  0.5662430000000  0.4855420000000 1.0
C      1  0.5587440000000  0.5656420000000  0.4842190000000 1.0
C      1  0.4424700000000  0.5656670000000  0.5154660000000 1.0
C      1  0.5119000000000  0.4410870000000  0.4732470000000 1.0
C      1  0.4902310000000  0.4378690000000  0.5298530000000 1.0
C      1  0.5178590000000  0.4402980000000  0.5397190000000 1.0
C      1  0.4838330000000  0.4403880000000  0.4698580000000 1.0
C      1  0.5262330000000  0.4851880000000  0.5129100000000 1.0
C      1  0.4866960000000  0.4915050000000  0.4856480000000 1.0
C      1  0.5170860000000  0.4904600000000  0.4837600000000 1.0
C      1  0.4869660000000  0.4907730000000  0.5163230000000 1.0
C      1  0.4437330000000  0.5189330000000  0.5150920000000 1.0
C      1  0.5563830000000  0.5187190000000  0.4822190000000 1.0
C      1  0.4444710000000  0.5195440000000  0.4834500000000 1.0
C      1  0.5556710000000  0.5182320000000  0.5159970000000 1.0
C      1  0.5150630000000  0.5416400000000  0.4723840000000 1.0
C      1  0.4848910000000  0.5419130000000  0.5310940000000 1.0
C      1  0.5129010000000  0.5424060000000  0.5242180000000 1.0
C      1  0.4865120000000  0.5419420000000  0.4730030000000 1.0
C      1  0.5547390000000  0.4596010000000  0.4769590000000 1.0
C      1  0.4465300000000  0.4612790000000  0.5141330000000 1.0
C      1  0.5472170000000  0.4619620000000  0.5079140000000 1.0
C      1  0.4456360000000  0.4637040000000  0.4846590000000 1.0
C      1  0.4727110000000  0.5159270000000  0.4706940000000 1.0
C      1  0.5302060000000  0.5225700000000  0.5350310000000 1.0
C      1  0.4707680000000  0.5149020000000  0.5302340000000 1.0
C      1  0.5290550000000  0.5150450000000  0.4689380000000 1.0
C      1  0.4643200000000  0.5056280000000  0.5572300000000 1.0
C      1  0.5277980000000  0.5063090000000  0.4409200000000 1.0
C      1  0.4720660000000  0.5079790000000  0.4426180000000 1.0
C      1  0.5168840000000  0.5093120000000  0.5563620000000 1.0
C      1  0.4715570000000  0.4214680000000  0.4869420000000 1.0
C      1  0.5365700000000  0.4344210000000  0.5173440000000 1.0
C      1  0.4912600000000  0.4180310000000  0.5073420000000 1.0
C      1  0.5189610000000  0.4223810000000  0.4958200000000 1.0
C      1  0.5262760000000  0.4664080000000  0.4660230000000 1.0
C      1  0.4738390000000  0.4649770000000  0.5293440000000 1.0
C      1  0.5233450000000  0.4671420000000  0.5465090000000 1.0
C      1  0.4723660000000  0.4673750000000  0.4689040000000 1.0
C      1  0.4227800000000  0.5030940000000  0.5265090000000 1.0
C      1  0.5762030000000  0.5018760000000  0.4717860000000 1.0
C      1  0.4238970000000  0.5044530000000  0.4709870000000 1.0
C      1  0.5758170000000  0.5002730000000  0.5254240000000 1.0
C      1  0.5060630000000  0.4838610000000  0.5620970000000 1.0
C      1  0.4835500000000  0.4821530000000  0.4422880000000 1.0
C      1  0.5141650000000  0.4811320000000  0.4403790000000 1.0
C      1  0.4764480000000  0.4800160000000  0.5575500000000 1.0
C      1  0.4217270000000  0.4758220000000  0.5199640000000 1.0
C      1  0.5802730000000  0.4758360000000  0.4818400000000 1.0
C      1  0.4212160000000  0.4788700000000  0.4818510000000 1.0
C      1  0.5764150000000  0.4741000000000  0.5129980000000 1.0
END
