TITL C-9259-5960-341 -1.34440720322316e-06 125000 -362.969829850224 0 0 60 (S4) n - 1
REM
REM in /home/bkarasulu/CARBON/AIRSS/Generating-Clusters/EDIP-Nigel-Params/Higher-Symm/Box-15A/Only-C60/SD-CG/HFTN-CG
REM
REM
REM
REM
REM
REM ./C.cell (414f73aa93bd7a1190c7fd0f31ff2f98)
REM
REM compiler GCC version 9.2.1 20190827 (Red Hat 9.2.1-1)
REM options -cpp -mtune=generic -march=x86-64 -g -O0 -fpre-include=/usr/include/finclude/math-vector-fortran.h
REM seed 1524522453 593559298 -1370900215 878195935 -1063054706 1540341623 1629947382 840703582 -1480374700 -224517723 -1992927829 -475303720 256535347 147986573 -1926901999 795334976 -1613543418 32743575 377540143 -199455466 907359415 1403160053 -2016263379 -1831861410 827703474 1178095092 -1789087883 -930170188 -1614385591 841832211 1294225518 -517300840 -752814870
REM
CELL 1.54180   50.00000   50.00000   50.00000   90.00000   90.00000   90.00000
LATT -1
SFAC C  
C      1  0.4941270000000  0.4861870000000  0.4755840000000 1.0
C      1  0.5228100000000  0.4854650000000  0.4899610000000 1.0
C      1  0.5058750000000  0.4861850000000  0.5244150000000 1.0
C      1  0.4771920000000  0.4854610000000  0.5100380000000 1.0
C      1  0.4899610000000  0.5168110000000  0.4771920000000 1.0
C      1  0.5244140000000  0.5160900000000  0.4941260000000 1.0
C      1  0.5100370000000  0.5168110000000  0.5228100000000 1.0
C      1  0.4755840000000  0.5160860000000  0.5058750000000 1.0
C      1  0.4647740000000  0.5526790000000  0.4835800000000 1.0
C      1  0.5163550000000  0.5505690000000  0.4677410000000 1.0
C      1  0.5352180000000  0.5526830000000  0.5164250000000 1.0
C      1  0.4836370000000  0.5505630000000  0.5322640000000 1.0
C      1  0.4677430000000  0.4517060000000  0.4836390000000 1.0
C      1  0.5164260000000  0.4495950000000  0.4647760000000 1.0
C      1  0.5322650000000  0.4517100000000  0.5163570000000 1.0
C      1  0.4835820000000  0.4495890000000  0.5352190000000 1.0
C      1  0.5485580000000  0.5168430000000  0.5506870000000 1.0
C      1  0.4492460000000  0.5167260000000  0.5473190000000 1.0
C      1  0.4514390000000  0.5168400000000  0.4493150000000 1.0
C      1  0.5507520000000  0.5167390000000  0.4526830000000 1.0
C      1  0.5473190000000  0.4855420000000  0.5507520000000 1.0
C      1  0.4493150000000  0.4854260000000  0.5485590000000 1.0
C      1  0.4526830000000  0.4855400000000  0.4492460000000 1.0
C      1  0.5506870000000  0.4854390000000  0.4514400000000 1.0
C      1  0.5516570000000  0.5277860000000  0.4824030000000 1.0
C      1  0.5196280000000  0.5284890000000  0.5512850000000 1.0
C      1  0.4483380000000  0.5277760000000  0.5176000000000 1.0
C      1  0.4803670000000  0.5284910000000  0.4487180000000 1.0
C      1  0.5512860000000  0.4737890000000  0.4803680000000 1.0
C      1  0.5176010000000  0.4744910000000  0.5516580000000 1.0
C      1  0.4487190000000  0.4737790000000  0.5196290000000 1.0
C      1  0.4824040000000  0.4744940000000  0.4483390000000 1.0
C      1  0.4427370000000  0.5342100000000  0.4735170000000 1.0
C      1  0.5261500000000  0.5331630000000  0.4453920000000 1.0
C      1  0.5572580000000  0.5342170000000  0.5264860000000 1.0
C      1  0.4738450000000  0.5331540000000  0.5546110000000 1.0
C      1  0.4453930000000  0.4691120000000  0.4738460000000 1.0
C      1  0.5264870000000  0.4680650000000  0.4427380000000 1.0
C      1  0.5546120000000  0.4691180000000  0.5261510000000 1.0
C      1  0.4735180000000  0.4680550000000  0.5572590000000 1.0
C      1  0.5733900000000  0.5239010000000  0.5037850000000 1.0
C      1  0.4963560000000  0.5227120000000  0.5701830000000 1.0
C      1  0.4266060000000  0.5238900000000  0.4962170000000 1.0
C      1  0.5036410000000  0.5227190000000  0.4298190000000 1.0
C      1  0.5701830000000  0.4795640000000  0.5036410000000 1.0
C      1  0.4962180000000  0.4783740000000  0.5733910000000 1.0
C      1  0.4298200000000  0.4795530000000  0.4963570000000 1.0
C      1  0.5037860000000  0.4783820000000  0.4266070000000 1.0
C      1  0.5120910000000  0.5597520000000  0.5338590000000 1.0
C      1  0.4646440000000  0.5608390000000  0.5122110000000 1.0
C      1  0.4879000000000  0.5597530000000  0.4661470000000 1.0
C      1  0.5353470000000  0.5608460000000  0.4877950000000 1.0
C      1  0.5122130000000  0.4414310000000  0.5353490000000 1.0
C      1  0.4661480000000  0.4425180000000  0.5120930000000 1.0
C      1  0.4877970000000  0.4414320000000  0.4646460000000 1.0
C      1  0.5338610000000  0.4425240000000  0.4879020000000 1.0
C      1  0.5071230000000  0.5017540000000  0.4119250000000 1.0
C      1  0.5880750000000  0.5005310000000  0.5071230000000 1.0
C      1  0.4119250000000  0.5005180000000  0.4928770000000 1.0
C      1  0.4928770000000  0.5017450000000  0.5880750000000 1.0
END
