TITL C-9266-5713-129 -1.30910887010208e-06 125000 -367.726225217045 0 0 60 (Ci) n - 1
REM
REM in /home/bkarasulu/CARBON/AIRSS/Generating-Clusters/EDIP-Nigel-Params/Higher-Symm/Box-15A/Only-C60/SD-CG/HFTN-CG
REM
REM
REM
REM
REM
REM ./C.cell (414f73aa93bd7a1190c7fd0f31ff2f98)
REM
REM compiler GCC version 9.2.1 20190827 (Red Hat 9.2.1-1)
REM options -cpp -mtune=generic -march=x86-64 -g -O0 -fpre-include=/usr/include/finclude/math-vector-fortran.h
REM seed 1367204687 1967813091 1700826493 -1322972248 -1852935712 955127556 1797623745 2056089760 -1876780615 -1515539815 1605043073 -1976723155 -121466792 1893404576 -847290655 -1635946378 -1456351899 563523818 -102417586 -1905431125 -1697744491 1883727897 -1437835025 -258763282 -1834048065 6367663 -1227545344 -1888450882 -2066582760 -785014818 992215003 766294606 -545225118
REM
CELL 1.54180   50.00000   50.00000   50.00000   90.00000   90.00000   90.00000
LATT -1
SFAC C  
C      1  0.5004860000000  0.5251980000000  0.5105440000000 1.0
C      1  0.4995140000000  0.4748020000000  0.4894560000000 1.0
C      1  0.5456330000000  0.4777310000000  0.5491910000000 1.0
C      1  0.4543670000000  0.5222690000000  0.4508090000000 1.0
C      1  0.4587340000000  0.5218920000000  0.5451750000000 1.0
C      1  0.5412660000000  0.4781080000000  0.4548250000000 1.0
C      1  0.5081850000000  0.5875760000000  0.4971830000000 1.0
C      1  0.4918150000000  0.4124240000000  0.5028170000000 1.0
C      1  0.5314630000000  0.5294480000000  0.5540030000000 1.0
C      1  0.4685370000000  0.4705520000000  0.4459970000000 1.0
C      1  0.5040120000000  0.4495620000000  0.4748250000000 1.0
C      1  0.4959880000000  0.5504380000000  0.5251750000000 1.0
C      1  0.4535410000000  0.5256100000000  0.5154880000000 1.0
C      1  0.5464590000000  0.4743900000000  0.4845120000000 1.0
C      1  0.4929740000000  0.5511020000000  0.4600260000000 1.0
C      1  0.5070260000000  0.4488980000000  0.5399740000000 1.0
C      1  0.4713590000000  0.4954980000000  0.5509120000000 1.0
C      1  0.5286410000000  0.5045020000000  0.4490880000000 1.0
C      1  0.4444810000000  0.5344460000000  0.4762120000000 1.0
C      1  0.5555190000000  0.4655540000000  0.5237880000000 1.0
C      1  0.5580990000000  0.5315740000000  0.5083880000000 1.0
C      1  0.4419010000000  0.4684260000000  0.4916120000000 1.0
C      1  0.5434840000000  0.5571530000000  0.5142460000000 1.0
C      1  0.4565160000000  0.4428470000000  0.4857540000000 1.0
C      1  0.5181960000000  0.5277190000000  0.5794870000000 1.0
C      1  0.4818040000000  0.4722810000000  0.4205130000000 1.0
C      1  0.4823720000000  0.4932860000000  0.4742940000000 1.0
C      1  0.5176280000000  0.5067140000000  0.5257060000000 1.0
C      1  0.5630150000000  0.5221860000000  0.4812420000000 1.0
C      1  0.4369850000000  0.4778140000000  0.5187580000000 1.0
C      1  0.4293390000000  0.4870060000000  0.4724730000000 1.0
C      1  0.5706610000000  0.5129940000000  0.5275270000000 1.0
C      1  0.4824260000000  0.5293820000000  0.4416180000000 1.0
C      1  0.5175740000000  0.4706180000000  0.5583820000000 1.0
C      1  0.4289120000000  0.5071450000000  0.5155560000000 1.0
C      1  0.5710880000000  0.4928550000000  0.4844440000000 1.0
C      1  0.5394590000000  0.5271120000000  0.4637480000000 1.0
C      1  0.4605410000000  0.4728880000000  0.5362520000000 1.0
C      1  0.5135580000000  0.4289520000000  0.4955350000000 1.0
C      1  0.4864420000000  0.5710480000000  0.5044650000000 1.0
C      1  0.5014960000000  0.4960050000000  0.5523810000000 1.0
C      1  0.4985040000000  0.5039950000000  0.4476190000000 1.0
C      1  0.4769130000000  0.5142250000000  0.4978340000000 1.0
C      1  0.5230870000000  0.4857750000000  0.5021660000000 1.0
C      1  0.4733470000000  0.5587140000000  0.4806300000000 1.0
C      1  0.5266530000000  0.4412860000000  0.5193700000000 1.0
C      1  0.5286390000000  0.5689650000000  0.4906950000000 1.0
C      1  0.4713610000000  0.4310350000000  0.5093050000000 1.0
C      1  0.4755870000000  0.5444280000000  0.5450130000000 1.0
C      1  0.5244130000000  0.4555720000000  0.4549870000000 1.0
C      1  0.5088670000000  0.5020920000000  0.5798750000000 1.0
C      1  0.4911330000000  0.4979080000000  0.4201250000000 1.0
C      1  0.4754790000000  0.4452190000000  0.4625710000000 1.0
C      1  0.5245210000000  0.5547810000000  0.5374290000000 1.0
C      1  0.5530060000000  0.5071340000000  0.5500740000000 1.0
C      1  0.4469940000000  0.4928660000000  0.4499260000000 1.0
C      1  0.4235210000000  0.5132190000000  0.4862610000000 1.0
C      1  0.5764790000000  0.4867810000000  0.5137390000000 1.0
C      1  0.4789700000000  0.4507150000000  0.5300330000000 1.0
C      1  0.5210300000000  0.5492850000000  0.4699670000000 1.0
END
