TITL C-9268-6400-29 1.89657186738258e-07 125000 -359.977567417609 0 0 60 (C1) n - 1
REM
REM in /home/bkarasulu/CARBON/AIRSS/Generating-Clusters/EDIP-Nigel-Params/Higher-Symm/Box-15A/Only-C60/SD-CG/HFTN-CG
REM
REM
REM
REM
REM
REM ./C.cell (414f73aa93bd7a1190c7fd0f31ff2f98)
REM
REM compiler GCC version 9.2.1 20190827 (Red Hat 9.2.1-1)
REM options -cpp -mtune=generic -march=x86-64 -g -O0 -fpre-include=/usr/include/finclude/math-vector-fortran.h
REM seed -185828850 -1536011201 1987340615 -37741394 -1416723616 -240494374 -1308794603 -915740572 331940932 -470785662 991959338 981927034 932905937 -1080284757 -1165263129 1207108295 -903342251 -1274009358 804462618 1433679071 -1983828080 436356761 -1908688386 -1116928587 1922564757 201480857 -75400439 -1172523138 854374430 -1912963039 1107026408 -543608436 -797278166
REM
CELL 1.54180   50.00000   50.00000   50.00000   90.00000   90.00000   90.00000
LATT -1
SFAC C  
C      1  0.5214820000000  0.4721030000000  0.5660980000000 1.0
C      1  0.5236580000000  0.5517780000000  0.5169970000000 1.0
C      1  0.5591420000000  0.5364330000000  0.4886710000000 1.0
C      1  0.4803050000000  0.5488320000000  0.5597080000000 1.0
C      1  0.4785470000000  0.4943610000000  0.4352730000000 1.0
C      1  0.4530010000000  0.5563870000000  0.5106930000000 1.0
C      1  0.4982710000000  0.5331520000000  0.5126140000000 1.0
C      1  0.5466320000000  0.4685240000000  0.5271310000000 1.0
C      1  0.5041490000000  0.4510690000000  0.4400870000000 1.0
C      1  0.5313900000000  0.4425910000000  0.5300970000000 1.0
C      1  0.5120100000000  0.5306770000000  0.4434910000000 1.0
C      1  0.5605400000000  0.4480470000000  0.4865300000000 1.0
C      1  0.5266720000000  0.4875390000000  0.5153720000000 1.0
C      1  0.4474110000000  0.5331710000000  0.4797260000000 1.0
C      1  0.5269610000000  0.4804660000000  0.4635780000000 1.0
C      1  0.5345580000000  0.4401950000000  0.4799570000000 1.0
C      1  0.4986460000000  0.5761760000000  0.5226040000000 1.0
C      1  0.5548020000000  0.5041460000000  0.4516340000000 1.0
C      1  0.4816800000000  0.5577550000000  0.5036010000000 1.0
C      1  0.5139700000000  0.5485480000000  0.4672690000000 1.0
C      1  0.5688980000000  0.4656130000000  0.5066400000000 1.0
C      1  0.4613740000000  0.5033930000000  0.5231600000000 1.0
C      1  0.5689480000000  0.5362700000000  0.5171530000000 1.0
C      1  0.4877740000000  0.5148200000000  0.5322060000000 1.0
C      1  0.5346470000000  0.5529670000000  0.4885830000000 1.0
C      1  0.4873120000000  0.5597110000000  0.4738530000000 1.0
C      1  0.4460700000000  0.5310040000000  0.5618540000000 1.0
C      1  0.5138710000000  0.4461400000000  0.5538440000000 1.0
C      1  0.5297960000000  0.5079470000000  0.4360650000000 1.0
C      1  0.4839430000000  0.4346510000000  0.5161330000000 1.0
C      1  0.4564430000000  0.4631450000000  0.5376690000000 1.0
C      1  0.5041150000000  0.4795720000000  0.4305190000000 1.0
C      1  0.5141840000000  0.4416320000000  0.5053810000000 1.0
C      1  0.4533010000000  0.5581760000000  0.5568070000000 1.0
C      1  0.5470120000000  0.4828740000000  0.5545670000000 1.0
C      1  0.4458760000000  0.4585570000000  0.4865840000000 1.0
C      1  0.5298200000000  0.4440860000000  0.4514570000000 1.0
C      1  0.4305400000000  0.4911960000000  0.4545160000000 1.0
C      1  0.5459110000000  0.5394700000000  0.5353630000000 1.0
C      1  0.4388640000000  0.5118580000000  0.5417560000000 1.0
C      1  0.4862610000000  0.4402190000000  0.5452730000000 1.0
C      1  0.5046420000000  0.4709900000000  0.5051500000000 1.0
C      1  0.4874250000000  0.5744210000000  0.5490510000000 1.0
C      1  0.4988790000000  0.4776690000000  0.4775140000000 1.0
C      1  0.4533090000000  0.4786800000000  0.4426330000000 1.0
C      1  0.4831480000000  0.5240050000000  0.4413240000000 1.0
C      1  0.4557570000000  0.5057230000000  0.4918800000000 1.0
C      1  0.4673570000000  0.5434320000000  0.4591420000000 1.0
C      1  0.5772360000000  0.5092500000000  0.5228440000000 1.0
C      1  0.4877800000000  0.4517590000000  0.4646520000000 1.0
C      1  0.4587050000000  0.4538960000000  0.4593940000000 1.0
C      1  0.4637180000000  0.4559190000000  0.5105560000000 1.0
C      1  0.5076850000000  0.4936680000000  0.5375640000000 1.0
C      1  0.4383210000000  0.4832280000000  0.5471890000000 1.0
C      1  0.5468640000000  0.5116400000000  0.5468050000000 1.0
C      1  0.5753570000000  0.4933490000000  0.4985260000000 1.0
C      1  0.5571860000000  0.5082360000000  0.4799200000000 1.0
C      1  0.4350100000000  0.4859690000000  0.4822670000000 1.0
C      1  0.4316710000000  0.5525850000000  0.4940940000000 1.0
C      1  0.4811630000000  0.5003300000000  0.4789790000000 1.0
END
