TITL C-9269-7444-49 -5.81410711409843e-07 125000 -371.669270314903 0 0 60 (C1) n - 1
REM
REM in /home/bkarasulu/CARBON/AIRSS/Generating-Clusters/EDIP-Nigel-Params/Higher-Symm/Box-15A/Only-C60/SD-CG/HFTN-CG
REM
REM
REM
REM
REM
REM ./C.cell (414f73aa93bd7a1190c7fd0f31ff2f98)
REM
REM compiler GCC version 9.2.1 20190827 (Red Hat 9.2.1-1)
REM options -cpp -mtune=generic -march=x86-64 -g -O0 -fpre-include=/usr/include/finclude/math-vector-fortran.h
REM seed -617101488 1785112804 941491360 1835115381 1194885383 -1557578204 1957410796 702072082 -1664712200 1086373929 -943318307 -214124038 2024488796 -1361474574 -1041600357 -1272090148 693924469 -1860701450 -332314650 428941966 -399566649 -1609513047 1296910189 1793741758 1687492981 -794940315 -1661346069 1395701163 -1317188597 333177005 -1012643753 2118055856 1803218317
REM
CELL 1.54180   50.00000   50.00000   50.00000   90.00000   90.00000   90.00000
LATT -1
SFAC C  
C      1  0.5483700000000  0.4775670000000  0.4531980000000 1.0
C      1  0.5468530000000  0.5370860000000  0.4652990000000 1.0
C      1  0.5487950000000  0.5464170000000  0.5254040000000 1.0
C      1  0.5480800000000  0.4904790000000  0.5514690000000 1.0
C      1  0.5485960000000  0.4479480000000  0.5071470000000 1.0
C      1  0.4985740000000  0.4861810000000  0.4787730000000 1.0
C      1  0.4928980000000  0.5162650000000  0.4807910000000 1.0
C      1  0.5042500000000  0.5240310000000  0.5076350000000 1.0
C      1  0.5012340000000  0.4993450000000  0.5246320000000 1.0
C      1  0.5023590000000  0.4757840000000  0.5057580000000 1.0
C      1  0.4450240000000  0.4500600000000  0.4973570000000 1.0
C      1  0.4477190000000  0.4888720000000  0.4513150000000 1.0
C      1  0.4497440000000  0.5425400000000  0.4729910000000 1.0
C      1  0.4477290000000  0.5371200000000  0.5313100000000 1.0
C      1  0.4471110000000  0.4811700000000  0.5458960000000 1.0
C      1  0.4782220000000  0.5154030000000  0.5669370000000 1.0
C      1  0.4779770000000  0.4421420000000  0.5345920000000 1.0
C      1  0.4792270000000  0.4477720000000  0.4542080000000 1.0
C      1  0.4782560000000  0.5274590000000  0.4351390000000 1.0
C      1  0.4787140000000  0.5679490000000  0.5056490000000 1.0
C      1  0.4614630000000  0.5166580000000  0.5163370000000 1.0
C      1  0.4637130000000  0.4885390000000  0.5223570000000 1.0
C      1  0.4593590000000  0.4754820000000  0.4956320000000 1.0
C      1  0.4478310000000  0.4968170000000  0.4789040000000 1.0
C      1  0.4633990000000  0.5200060000000  0.4876650000000 1.0
C      1  0.5604340000000  0.4751070000000  0.5036090000000 1.0
C      1  0.5601800000000  0.4893400000000  0.4778790000000 1.0
C      1  0.5610430000000  0.5183770000000  0.4832930000000 1.0
C      1  0.5606590000000  0.5221300000000  0.5125630000000 1.0
C      1  0.5600880000000  0.4953800000000  0.5249150000000 1.0
C      1  0.5020760000000  0.4470710000000  0.5157710000000 1.0
C      1  0.5018810000000  0.4680120000000  0.4544930000000 1.0
C      1  0.5002580000000  0.5335950000000  0.4553820000000 1.0
C      1  0.5027030000000  0.5527680000000  0.5177560000000 1.0
C      1  0.5023900000000  0.4995150000000  0.5561880000000 1.0
C      1  0.4498270000000  0.4476140000000  0.5272960000000 1.0
C      1  0.4520590000000  0.4580020000000  0.4600660000000 1.0
C      1  0.4508820000000  0.5261320000000  0.4458550000000 1.0
C      1  0.4511430000000  0.5577440000000  0.5079490000000 1.0
C      1  0.4505130000000  0.5095920000000  0.5580310000000 1.0
C      1  0.4860100000000  0.5757600000000  0.4799640000000 1.0
C      1  0.4859170000000  0.5420800000000  0.5649390000000 1.0
C      1  0.4857740000000  0.4516450000000  0.5595480000000 1.0
C      1  0.4871130000000  0.4271670000000  0.4711230000000 1.0
C      1  0.4864120000000  0.5043030000000  0.4219910000000 1.0
C      1  0.5054430000000  0.4849240000000  0.4290930000000 1.0
C      1  0.5050370000000  0.5626020000000  0.4641780000000 1.0
C      1  0.5055220000000  0.5533530000000  0.5483140000000 1.0
C      1  0.5053020000000  0.4706960000000  0.5658770000000 1.0
C      1  0.5058120000000  0.4278750000000  0.4920030000000 1.0
C      1  0.5328460000000  0.5410110000000  0.5514040000000 1.0
C      1  0.5324180000000  0.4641730000000  0.5546150000000 1.0
C      1  0.5331620000000  0.4367390000000  0.4827430000000 1.0
C      1  0.5323370000000  0.4969110000000  0.4354930000000 1.0
C      1  0.5323340000000  0.5611080000000  0.4771760000000 1.0
C      1  0.5296450000000  0.4543170000000  0.4579190000000 1.0
C      1  0.5279790000000  0.5247970000000  0.4459160000000 1.0
C      1  0.5300570000000  0.5634580000000  0.5076910000000 1.0
C      1  0.5298380000000  0.5124220000000  0.5618430000000 1.0
C      1  0.5294070000000  0.4451900000000  0.5307230000000 1.0
END
