TITL C-9267-1554-128 -1.25833782962356e-06 125000 -383.012713878768 0 0 60 (Td) n - 1
REM
REM in /home/bkarasulu/CARBON/AIRSS/Generating-Clusters/EDIP-Nigel-Params/Higher-Symm/Box-15A/Only-C60/SD-CG/HFTN-CG
REM
REM
REM
REM
REM
REM ./C.cell (414f73aa93bd7a1190c7fd0f31ff2f98)
REM
REM compiler GCC version 9.2.1 20190827 (Red Hat 9.2.1-1)
REM options -cpp -mtune=generic -march=x86-64 -g -O0 -fpre-include=/usr/include/finclude/math-vector-fortran.h
REM seed -1742053818 1666383735 278160090 1227086617 -122537166 -277639865 -2128526293 -1510339529 -2747837 801009108 2019250824 2004611267 -1887250347 1506773068 -1683117771 625354631 -1319557624 463779488 -134006948 -278854290 -158807348 367321561 2145631511 -1947066261 -1871770526 1651840924 865400295 1662816990 -1028549794 -976780194 2106612581 -345328557 -110197200
REM
CELL 1.54180   50.00000   50.00000   50.00000   90.00000   90.00000   90.00000
LATT -1
SFAC C  
C      1  0.5775120000000  0.5018480000000  0.4634740000000 1.0
C      1  0.4634740000000  0.5775120000000  0.5018480000000 1.0
C      1  0.5018490000000  0.4634740000000  0.5775120000000 1.0
C      1  0.4224880000000  0.5018490000000  0.5365260000000 1.0
C      1  0.5775120000000  0.4981510000000  0.5365260000000 1.0
C      1  0.4224880000000  0.4981510000000  0.4634740000000 1.0
C      1  0.5365260000000  0.5775120000000  0.4981510000000 1.0
C      1  0.4634740000000  0.4224880000000  0.4981520000000 1.0
C      1  0.5365260000000  0.4224880000000  0.5018490000000 1.0
C      1  0.4981510000000  0.4634740000000  0.4224880000000 1.0
C      1  0.5018490000000  0.5365260000000  0.4224880000000 1.0
C      1  0.4981510000000  0.5365260000000  0.5775120000000 1.0
C      1  0.4634740000000  0.5018490000000  0.5775120000000 1.0
C      1  0.5018490000000  0.5775120000000  0.4634740000000 1.0
C      1  0.5775120000000  0.4634740000000  0.5018490000000 1.0
C      1  0.5365260000000  0.5018480000000  0.4224880000000 1.0
C      1  0.5365260000000  0.4981520000000  0.5775120000000 1.0
C      1  0.4634740000000  0.4981510000000  0.4224880000000 1.0
C      1  0.4981510000000  0.5775120000000  0.5365260000000 1.0
C      1  0.4981510000000  0.4224880000000  0.4634740000000 1.0
C      1  0.5018490000000  0.4224880000000  0.5365260000000 1.0
C      1  0.4224880000000  0.4634740000000  0.4981520000000 1.0
C      1  0.4224880000000  0.5365260000000  0.5018490000000 1.0
C      1  0.5775120000000  0.5365260000000  0.4981510000000 1.0
C      1  0.5398800000000  0.5196530000000  0.5600710000000 1.0
C      1  0.5600710000000  0.5398800000000  0.5196520000000 1.0
C      1  0.5196520000000  0.5600710000000  0.5398800000000 1.0
C      1  0.4601200000000  0.5196520000000  0.4399290000000 1.0
C      1  0.5398800000000  0.4803470000000  0.4399290000000 1.0
C      1  0.4601200000000  0.4803480000000  0.5600710000000 1.0
C      1  0.4399290000000  0.5398800000000  0.4803480000000 1.0
C      1  0.5600710000000  0.4601200000000  0.4803480000000 1.0
C      1  0.4399290000000  0.4601200000000  0.5196530000000 1.0
C      1  0.4803480000000  0.5600710000000  0.4601200000000 1.0
C      1  0.5196520000000  0.4399290000000  0.4601200000000 1.0
C      1  0.4803480000000  0.4399290000000  0.5398800000000 1.0
C      1  0.5600710000000  0.5196520000000  0.5398800000000 1.0
C      1  0.5196520000000  0.5398800000000  0.5600710000000 1.0
C      1  0.5398800000000  0.5600710000000  0.5196520000000 1.0
C      1  0.4399290000000  0.5196520000000  0.4601200000000 1.0
C      1  0.4399290000000  0.4803480000000  0.5398800000000 1.0
C      1  0.5600710000000  0.4803470000000  0.4601200000000 1.0
C      1  0.4803480000000  0.5398800000000  0.4399290000000 1.0
C      1  0.4803480000000  0.4601200000000  0.5600710000000 1.0
C      1  0.5196520000000  0.4601200000000  0.4399290000000 1.0
C      1  0.4601200000000  0.5600710000000  0.4803470000000 1.0
C      1  0.4601200000000  0.4399290000000  0.5196530000000 1.0
C      1  0.5398800000000  0.4399290000000  0.4803480000000 1.0
C      1  0.5816770000000  0.4898240000000  0.5101760000000 1.0
C      1  0.5816770000000  0.5101760000000  0.4898240000000 1.0
C      1  0.4898240000000  0.5816770000000  0.5101760000000 1.0
C      1  0.5101760000000  0.4183230000000  0.5101760000000 1.0
C      1  0.4183230000000  0.5101760000000  0.5101760000000 1.0
C      1  0.4183230000000  0.4898240000000  0.4898240000000 1.0
C      1  0.4898240000000  0.5101760000000  0.5816770000000 1.0
C      1  0.5101760000000  0.5816770000000  0.4898240000000 1.0
C      1  0.5101760000000  0.5101760000000  0.4183230000000 1.0
C      1  0.4898240000000  0.4898240000000  0.4183230000000 1.0
C      1  0.5101760000000  0.4898240000000  0.5816770000000 1.0
C      1  0.4898240000000  0.4183230000000  0.4898240000000 1.0
END
