TITL C-9270-2362-305 -7.81584475166566e-07 125000 -372.897508305942 0 0 60 (Cs) n - 1
REM
REM in /home/bkarasulu/CARBON/AIRSS/Generating-Clusters/EDIP-Nigel-Params/Higher-Symm/Box-15A/Only-C60/SD-CG/HFTN-CG
REM
REM
REM
REM
REM
REM ./C.cell (414f73aa93bd7a1190c7fd0f31ff2f98)
REM
REM compiler GCC version 9.2.1 20190827 (Red Hat 9.2.1-1)
REM options -cpp -mtune=generic -march=x86-64 -g -O0 -fpre-include=/usr/include/finclude/math-vector-fortran.h
REM seed 1583027333 1236822104 -2139272162 1905041506 -599531830 1045999393 -835266575 805356355 -654418690 152134430 2037539938 190508252 1381406743 759086913 -1303992710 271299421 1863573991 -681720413 -575507471 314526730 -939232077 1043428275 1081370921 984714359 1504110401 -1806575287 1719031194 -1242950054 -644293071 -481574839 87313361 685905333 -585654516
REM
CELL 1.54180   50.00000   50.00000   50.00000   90.00000   90.00000   90.00000
LATT -1
SFAC C  
C      1  0.4852230000000  0.5952640000000  0.4916990000000 1.0
C      1  0.5833540000000  0.4679770000000  0.5007890000000 1.0
C      1  0.4266170000000  0.4416540000000  0.4911200000000 1.0
C      1  0.5147750000000  0.5952640000000  0.4916990000000 1.0
C      1  0.4166460000000  0.4679750000000  0.5007870000000 1.0
C      1  0.5733850000000  0.4416550000000  0.4911220000000 1.0
C      1  0.4848200000000  0.5258860000000  0.4541950000000 1.0
C      1  0.5300340000000  0.5003280000000  0.4541300000000 1.0
C      1  0.4852680000000  0.4741980000000  0.4541180000000 1.0
C      1  0.5151800000000  0.5258860000000  0.4541960000000 1.0
C      1  0.4699660000000  0.5003280000000  0.4541290000000 1.0
C      1  0.5147330000000  0.4741990000000  0.4541190000000 1.0
C      1  0.4675640000000  0.4990100000000  0.5006790000000 1.0
C      1  0.5153590000000  0.5292910000000  0.5007860000000 1.0
C      1  0.5176820000000  0.4718730000000  0.5006660000000 1.0
C      1  0.5324360000000  0.4990100000000  0.5006790000000 1.0
C      1  0.4846410000000  0.5292900000000  0.5007860000000 1.0
C      1  0.4823190000000  0.4718720000000  0.5006650000000 1.0
C      1  0.4865960000000  0.5701160000000  0.5287640000000 1.0
C      1  0.5678610000000  0.4743710000000  0.5249050000000 1.0
C      1  0.4463110000000  0.4514790000000  0.5313970000000 1.0
C      1  0.5134020000000  0.5701160000000  0.5287640000000 1.0
C      1  0.4321390000000  0.4743700000000  0.5249030000000 1.0
C      1  0.5536890000000  0.4514800000000  0.5313980000000 1.0
C      1  0.4451780000000  0.5491560000000  0.4851750000000 1.0
C      1  0.5695400000000  0.5232590000000  0.4848570000000 1.0
C      1  0.4850140000000  0.4279690000000  0.4846240000000 1.0
C      1  0.5548210000000  0.5491570000000  0.4851760000000 1.0
C      1  0.4304600000000  0.5232570000000  0.4848560000000 1.0
C      1  0.5149880000000  0.4279690000000  0.4846240000000 1.0
C      1  0.4850290000000  0.4279020000000  0.5167020000000 1.0
C      1  0.4453050000000  0.5487580000000  0.5173250000000 1.0
C      1  0.5697630000000  0.5226740000000  0.5167990000000 1.0
C      1  0.5149720000000  0.4279030000000  0.5167030000000 1.0
C      1  0.5546930000000  0.5487590000000  0.5173260000000 1.0
C      1  0.4302360000000  0.5226730000000  0.5167980000000 1.0
C      1  0.5255860000000  0.5443530000000  0.5255750000000 1.0
C      1  0.5256940000000  0.4550940000000  0.5258460000000 1.0
C      1  0.4484980000000  0.4994730000000  0.5244060000000 1.0
C      1  0.4744130000000  0.5443520000000  0.5255740000000 1.0
C      1  0.4743060000000  0.4550940000000  0.5258460000000 1.0
C      1  0.5515020000000  0.4994740000000  0.5244070000000 1.0
C      1  0.5260090000000  0.4551040000000  0.4756410000000 1.0
C      1  0.4487210000000  0.5002760000000  0.4766080000000 1.0
C      1  0.5259570000000  0.5450300000000  0.4761520000000 1.0
C      1  0.4739930000000  0.4551030000000  0.4756400000000 1.0
C      1  0.5512790000000  0.5002770000000  0.4766090000000 1.0
C      1  0.4740420000000  0.5450300000000  0.4761510000000 1.0
C      1  0.5706810000000  0.4767210000000  0.4734970000000 1.0
C      1  0.4448550000000  0.4512460000000  0.4702600000000 1.0
C      1  0.4847210000000  0.5727250000000  0.4711300000000 1.0
C      1  0.4293200000000  0.4767200000000  0.4734960000000 1.0
C      1  0.5551470000000  0.4512470000000  0.4702610000000 1.0
C      1  0.5152780000000  0.5727250000000  0.4711300000000 1.0
C      1  0.5152160000000  0.5252140000000  0.5474910000000 1.0
C      1  0.5146950000000  0.4738510000000  0.5475010000000 1.0
C      1  0.4697700000000  0.4997510000000  0.5471640000000 1.0
C      1  0.4847830000000  0.5252130000000  0.5474910000000 1.0
C      1  0.4853050000000  0.4738510000000  0.5475010000000 1.0
C      1  0.5302300000000  0.4997510000000  0.5471640000000 1.0
END
