TITL C-9270-2362-103 -2.66357046578502e-07 125000 -360.545955947946 0 0 60 (C3) n - 1
REM
REM in /home/bkarasulu/CARBON/AIRSS/Generating-Clusters/EDIP-Nigel-Params/Higher-Symm/Box-15A/Only-C60/SD-CG/HFTN-CG
REM
REM
REM
REM
REM
REM ./C.cell (414f73aa93bd7a1190c7fd0f31ff2f98)
REM
REM compiler GCC version 9.2.1 20190827 (Red Hat 9.2.1-1)
REM options -cpp -mtune=generic -march=x86-64 -g -O0 -fpre-include=/usr/include/finclude/math-vector-fortran.h
REM seed -2124865856 2095993569 835378844 808610597 1842232360 -946325170 1336047434 1558016051 655591299 645757095 1413601011 -1924734466 -959115310 1699694734 -391540891 1220077570 1125301265 839376448 19937484 1225184277 1214684093 1069597983 -1516936620 980016311 -1552329683 1977242552 1695617345 1324250485 402845138 281837616 -1357042939 2079259848 1969650990
REM
CELL 1.54180   50.00000   50.00000   50.00000   90.00000   90.00000   90.00000
LATT -1
SFAC C  
C      1  0.4766000000000  0.4577890000000  0.5446940000000 1.0
C      1  0.4739540000000  0.4570350000000  0.4575440000000 1.0
C      1  0.5507510000000  0.4581680000000  0.4988210000000 1.0
C      1  0.4348220000000  0.4648250000000  0.4896180000000 1.0
C      1  0.5423640000000  0.4655910000000  0.4488670000000 1.0
C      1  0.5238750000000  0.4663470000000  0.5623750000000 1.0
C      1  0.4527710000000  0.5226830000000  0.5425450000000 1.0
C      1  0.4862580000000  0.5221540000000  0.4377460000000 1.0
C      1  0.5602680000000  0.5235930000000  0.5191390000000 1.0
C      1  0.5587370000000  0.5229870000000  0.4905680000000 1.0
C      1  0.4782870000000  0.5227010000000  0.5555030000000 1.0
C      1  0.4622840000000  0.5216860000000  0.4533680000000 1.0
C      1  0.4780140000000  0.5636710000000  0.4670670000000 1.0
C      1  0.5380630000000  0.5645390000000  0.4971920000000 1.0
C      1  0.4819460000000  0.5642700000000  0.5341370000000 1.0
C      1  0.5146500000000  0.5256810000000  0.4388950000000 1.0
C      1  0.5450020000000  0.5268610000000  0.5431420000000 1.0
C      1  0.4395450000000  0.5255620000000  0.5173120000000 1.0
C      1  0.5186550000000  0.4380580000000  0.5239330000000 1.0
C      1  0.4713550000000  0.4374090000000  0.5044160000000 1.0
C      1  0.5119110000000  0.4375660000000  0.4732100000000 1.0
C      1  0.4497110000000  0.4637500000000  0.5375570000000 1.0
C      1  0.4934390000000  0.4633680000000  0.4378020000000 1.0
C      1  0.5579610000000  0.4647620000000  0.5255430000000 1.0
C      1  0.5547600000000  0.4738350000000  0.4741590000000 1.0
C      1  0.4955950000000  0.4739460000000  0.5604390000000 1.0
C      1  0.4504630000000  0.4726960000000  0.4660650000000 1.0
C      1  0.4430170000000  0.4996980000000  0.4561270000000 1.0
C      1  0.5664760000000  0.5011040000000  0.4725810000000 1.0
C      1  0.4904880000000  0.5011460000000  0.5712760000000 1.0
C      1  0.5601640000000  0.5101320000000  0.4459830000000 1.0
C      1  0.5164680000000  0.5107920000000  0.5790730000000 1.0
C      1  0.4230620000000  0.5089620000000  0.4746950000000 1.0
C      1  0.5187030000000  0.5260910000000  0.5074950000000 1.0
C      1  0.4835710000000  0.5257710000000  0.5123580000000 1.0
C      1  0.4969290000000  0.5256340000000  0.4795010000000 1.0
C      1  0.5255880000000  0.5493350000000  0.5441160000000 1.0
C      1  0.4478980000000  0.5481680000000  0.4999300000000 1.0
C      1  0.5250130000000  0.5485840000000  0.4547370000000 1.0
C      1  0.4824320000000  0.4362310000000  0.4762320000000 1.0
C      1  0.5308030000000  0.4369000000000  0.4968960000000 1.0
C      1  0.4887180000000  0.4367300000000  0.5284570000000 1.0
C      1  0.4638000000000  0.5653660000000  0.5146760000000 1.0
C      1  0.5039090000000  0.5653310000000  0.4610760000000 1.0
C      1  0.5302690000000  0.5661150000000  0.5226080000000 1.0
C      1  0.5219650000000  0.5035170000000  0.4767780000000 1.0
C      1  0.5090470000000  0.5038330000000  0.5306190000000 1.0
C      1  0.4688800000000  0.5031020000000  0.4925150000000 1.0
C      1  0.5123110000000  0.4746880000000  0.4852760000000 1.0
C      1  0.5071670000000  0.4749090000000  0.5181140000000 1.0
C      1  0.4813020000000  0.4744690000000  0.4972430000000 1.0
C      1  0.5445450000000  0.5459880000000  0.4777510000000 1.0
C      1  0.4959570000000  0.5460870000000  0.5495360000000 1.0
C      1  0.4580880000000  0.5450480000000  0.4715700000000 1.0
C      1  0.5306600000000  0.5035710000000  0.5539740000000 1.0
C      1  0.4378630000000  0.5021640000000  0.4995600000000 1.0
C      1  0.5313910000000  0.5026820000000  0.4463960000000 1.0
C      1  0.4467630000000  0.4516500000000  0.5119680000000 1.0
C      1  0.5173420000000  0.4518430000000  0.4480840000000 1.0
C      1  0.5373710000000  0.4528240000000  0.5411460000000 1.0
END
