TITL C-9268-6400-147 6.06529978210625e-05 125000 -358.830904548622 0 0 60 (C1) n - 1
REM
REM in /home/bkarasulu/CARBON/AIRSS/Generating-Clusters/EDIP-Nigel-Params/Higher-Symm/Box-15A/Only-C60/SD-CG/HFTN-CG
REM
REM
REM
REM
REM
REM ./C.cell (414f73aa93bd7a1190c7fd0f31ff2f98)
REM
REM compiler GCC version 9.2.1 20190827 (Red Hat 9.2.1-1)
REM options -cpp -mtune=generic -march=x86-64 -g -O0 -fpre-include=/usr/include/finclude/math-vector-fortran.h
REM seed -1661333322 2089104537 -1526098910 1729771291 1668303358 1449884690 1572667856 -2012140479 1868110531 -1231895088 63851607 1866472883 -826522056 -1361672262 -1569909613 -2096137128 1116457049 238046253 1576636409 -2056680127 1687872116 1163692735 1291283166 -2129020212 2070249167 1385560787 1516796458 1570753922 745531565 -1700991755 1991949821 1971882121 -1756558036
REM
CELL 1.54180   50.00000   50.00000   50.00000   90.00000   90.00000   90.00000
LATT -1
SFAC C  
C      1  0.4772470000000  0.4230800000000  0.4640560000000 1.0
C      1  0.4271490000000  0.4641300000000  0.4859410000000 1.0
C      1  0.4554200000000  0.4770690000000  0.4184820000000 1.0
C      1  0.5176010000000  0.4251690000000  0.5384700000000 1.0
C      1  0.5268050000000  0.5686720000000  0.4691240000000 1.0
C      1  0.4798280000000  0.5787960000000  0.5415490000000 1.0
C      1  0.5743140000000  0.4672970000000  0.5209550000000 1.0
C      1  0.5784990000000  0.5445110000000  0.4729770000000 1.0
C      1  0.4269310000000  0.5412180000000  0.5135750000000 1.0
C      1  0.5383650000000  0.4762670000000  0.5709980000000 1.0
C      1  0.5310960000000  0.5192650000000  0.4221890000000 1.0
C      1  0.4577800000000  0.5113010000000  0.5786450000000 1.0
C      1  0.4580930000000  0.4185660000000  0.4828970000000 1.0
C      1  0.4753480000000  0.4601160000000  0.4254940000000 1.0
C      1  0.4260230000000  0.4790630000000  0.4627790000000 1.0
C      1  0.5387950000000  0.4270690000000  0.5207700000000 1.0
C      1  0.4653200000000  0.5744110000000  0.5190760000000 1.0
C      1  0.5370510000000  0.5772190000000  0.4935710000000 1.0
C      1  0.5205990000000  0.4585090000000  0.5814340000000 1.0
C      1  0.4728040000000  0.5342690000000  0.5741610000000 1.0
C      1  0.5097740000000  0.5368980000000  0.4203700000000 1.0
C      1  0.5790210000000  0.4896270000000  0.5367510000000 1.0
C      1  0.4277810000000  0.5272120000000  0.5368450000000 1.0
C      1  0.5703820000000  0.5241970000000  0.4573510000000 1.0
C      1  0.4972240000000  0.4611370000000  0.5657600000000 1.0
C      1  0.4675960000000  0.5581650000000  0.4962380000000 1.0
C      1  0.5547520000000  0.5013160000000  0.4603350000000 1.0
C      1  0.4980480000000  0.4608590000000  0.4419210000000 1.0
C      1  0.4957950000000  0.5356420000000  0.5582090000000 1.0
C      1  0.4934380000000  0.5394460000000  0.4444250000000 1.0
C      1  0.5510910000000  0.5591060000000  0.5103100000000 1.0
C      1  0.5379590000000  0.4437790000000  0.4981680000000 1.0
C      1  0.4637970000000  0.4365690000000  0.5038700000000 1.0
C      1  0.4456920000000  0.5060240000000  0.5326090000000 1.0
C      1  0.4414580000000  0.5019570000000  0.4577190000000 1.0
C      1  0.5569400000000  0.5086710000000  0.5388290000000 1.0
C      1  0.5572490000000  0.4658250000000  0.4987090000000 1.0
C      1  0.5083830000000  0.5473460000000  0.4683300000000 1.0
C      1  0.4562430000000  0.4925310000000  0.5561600000000 1.0
C      1  0.4518570000000  0.4632160000000  0.5009760000000 1.0
C      1  0.5688200000000  0.5398260000000  0.4988620000000 1.0
C      1  0.4443630000000  0.5408230000000  0.4913250000000 1.0
C      1  0.5003550000000  0.5593710000000  0.5415720000000 1.0
C      1  0.4990900000000  0.4475220000000  0.5398970000000 1.0
C      1  0.4993980000000  0.4403900000000  0.4627530000000 1.0
C      1  0.5338240000000  0.4978660000000  0.4402470000000 1.0
C      1  0.4590510000000  0.5003030000000  0.4341280000000 1.0
C      1  0.5341910000000  0.4981930000000  0.5540460000000 1.0
C      1  0.5072500000000  0.4881490000000  0.4480360000000 1.0
C      1  0.4931080000000  0.4349310000000  0.5109040000000 1.0
C      1  0.4511660000000  0.5131000000000  0.4831650000000 1.0
C      1  0.4870060000000  0.4896640000000  0.5658430000000 1.0
C      1  0.4882910000000  0.5089460000000  0.4360860000000 1.0
C      1  0.5067880000000  0.5089600000000  0.5535910000000 1.0
C      1  0.5101210000000  0.4475800000000  0.4892150000000 1.0
C      1  0.5131430000000  0.5555050000000  0.5148070000000 1.0
C      1  0.4943100000000  0.5458240000000  0.4938050000000 1.0
C      1  0.5661280000000  0.5110310000000  0.5074040000000 1.0
C      1  0.5516840000000  0.4925170000000  0.4881130000000 1.0
C      1  0.4423670000000  0.4939790000000  0.5051680000000 1.0
END
