TITL C-9258-7861-74 -6.36869354223488e-07 125000 -352.744169590199 0 0 60 (C1) n - 1
REM
REM in /home/bkarasulu/CARBON/AIRSS/Generating-Clusters/EDIP-Nigel-Params/Higher-Symm/Box-15A/Only-C60/SD-CG/HFTN-CG
REM
REM
REM
REM
REM
REM ./C.cell (414f73aa93bd7a1190c7fd0f31ff2f98)
REM
REM compiler GCC version 9.2.1 20190827 (Red Hat 9.2.1-1)
REM options -cpp -mtune=generic -march=x86-64 -g -O0 -fpre-include=/usr/include/finclude/math-vector-fortran.h
REM seed 254780945 1702954307 257094905 -171138626 725185298 -1223707341 203853854 -347163665 -457590978 -1292384093 -1780330039 -321045718 -1688367040 1788836817 759982673 2003502645 1426529804 -2019318899 1492270202 1668781607 -266757046 -15360490 871946114 1427678330 -1286335797 -1392653545 -2015039634 -213087622 1819535457 1152063261 -1036872047 39584725 452653707
REM
CELL 1.54180   50.00000   50.00000   50.00000   90.00000   90.00000   90.00000
LATT -1
SFAC C  
C      1  0.4718410000000  0.5498110000000  0.5448410000000 1.0
C      1  0.4720790000000  0.4438480000000  0.5178990000000 1.0
C      1  0.4706450000000  0.5101240000000  0.4420200000000 1.0
C      1  0.5282670000000  0.5515530000000  0.5443920000000 1.0
C      1  0.5277340000000  0.4384900000000  0.5180360000000 1.0
C      1  0.5244460000000  0.5112630000000  0.4377790000000 1.0
C      1  0.5138010000000  0.4832670000000  0.4396330000000 1.0
C      1  0.5151300000000  0.5602380000000  0.5185740000000 1.0
C      1  0.5156800000000  0.4593020000000  0.5380890000000 1.0
C      1  0.4845570000000  0.4843100000000  0.4497330000000 1.0
C      1  0.4849500000000  0.5576330000000  0.5191530000000 1.0
C      1  0.4849700000000  0.4615010000000  0.5381000000000 1.0
C      1  0.4435920000000  0.4468860000000  0.5143210000000 1.0
C      1  0.4421400000000  0.5091470000000  0.4420900000000 1.0
C      1  0.4450740000000  0.5401030000000  0.5428430000000 1.0
C      1  0.5563780000000  0.4410300000000  0.5148280000000 1.0
C      1  0.5525980000000  0.5134000000000  0.4426780000000 1.0
C      1  0.5556990000000  0.5432100000000  0.5410460000000 1.0
C      1  0.4400620000000  0.4652620000000  0.4620340000000 1.0
C      1  0.4403080000000  0.5480380000000  0.4900320000000 1.0
C      1  0.4407520000000  0.4864720000000  0.5452970000000 1.0
C      1  0.5586210000000  0.4654910000000  0.4643020000000 1.0
C      1  0.5586860000000  0.5459100000000  0.4895230000000 1.0
C      1  0.5589020000000  0.4922380000000  0.5418180000000 1.0
C      1  0.4672070000000  0.5587180000000  0.4945340000000 1.0
C      1  0.4694540000000  0.4846170000000  0.5481680000000 1.0
C      1  0.4661500000000  0.4597640000000  0.4495380000000 1.0
C      1  0.5309780000000  0.5541800000000  0.4932520000000 1.0
C      1  0.5338620000000  0.4802480000000  0.5538270000000 1.0
C      1  0.5326080000000  0.4615350000000  0.4509810000000 1.0
C      1  0.4717900000000  0.4859080000000  0.5042370000000 1.0
C      1  0.4930340000000  0.4870510000000  0.4793250000000 1.0
C      1  0.4838470000000  0.5181630000000  0.5010160000000 1.0
C      1  0.5306170000000  0.4812840000000  0.5099320000000 1.0
C      1  0.5219520000000  0.4995180000000  0.4861300000000 1.0
C      1  0.5174000000000  0.5170410000000  0.5123660000000 1.0
C      1  0.4808040000000  0.5022260000000  0.5682080000000 1.0
C      1  0.4803640000000  0.4390430000000  0.4641830000000 1.0
C      1  0.4801210000000  0.5589660000000  0.4689040000000 1.0
C      1  0.5190680000000  0.5011530000000  0.5674730000000 1.0
C      1  0.5185390000000  0.4392210000000  0.4632380000000 1.0
C      1  0.5178140000000  0.5562570000000  0.4677510000000 1.0
C      1  0.4440720000000  0.4725570000000  0.4989670000000 1.0
C      1  0.4493060000000  0.5120460000000  0.4804760000000 1.0
C      1  0.4515020000000  0.5166430000000  0.5239460000000 1.0
C      1  0.5569770000000  0.4679320000000  0.5025880000000 1.0
C      1  0.5505910000000  0.5123950000000  0.4732450000000 1.0
C      1  0.5500650000000  0.5173910000000  0.5265740000000 1.0
C      1  0.4265060000000  0.4807150000000  0.5214600000000 1.0
C      1  0.4299910000000  0.4926050000000  0.4623830000000 1.0
C      1  0.4280600000000  0.5311230000000  0.5094490000000 1.0
C      1  0.5742160000000  0.4736910000000  0.5254190000000 1.0
C      1  0.5704110000000  0.4908050000000  0.4679830000000 1.0
C      1  0.5703330000000  0.5287270000000  0.5084590000000 1.0
C      1  0.5110240000000  0.5301900000000  0.4560350000000 1.0
C      1  0.5143890000000  0.5276870000000  0.5549200000000 1.0
C      1  0.5143340000000  0.4441390000000  0.4922760000000 1.0
C      1  0.4826880000000  0.5308850000000  0.4587020000000 1.0
C      1  0.4870660000000  0.5313370000000  0.5626930000000 1.0
C      1  0.4859500000000  0.4457100000000  0.4923010000000 1.0
END
