TITL C-9265-7156-139 -5.14048436005233e-05 125000 -363.372267893278 0 0 60 (C1) n - 1
REM
REM in /home/bkarasulu/CARBON/AIRSS/Generating-Clusters/EDIP-Nigel-Params/Higher-Symm/Box-15A/Only-C60/SD-CG/HFTN-CG
REM
REM
REM
REM
REM
REM ./C.cell (414f73aa93bd7a1190c7fd0f31ff2f98)
REM
REM compiler GCC version 9.2.1 20190827 (Red Hat 9.2.1-1)
REM options -cpp -mtune=generic -march=x86-64 -g -O0 -fpre-include=/usr/include/finclude/math-vector-fortran.h
REM seed 64235119 785391261 -553675979 -1043351794 -541017654 -700948259 1901382951 -474773315 1928232793 -557887005 37140612 1618032627 1972988913 -642901830 616979763 -1952043576 493828558 -1398275713 1519537727 -1685508401 796461458 1280752405 -2112373147 -306747172 2001877644 -1392417362 -1503747763 -1155041071 -1881363177 711768157 -126894753 1616956785 772039432
REM
CELL 1.54180   50.00000   50.00000   50.00000   90.00000   90.00000   90.00000
LATT -1
SFAC C  
C      1  0.5088840000000  0.5535210000000  0.5225380000000 1.0
C      1  0.4918120000000  0.4567870000000  0.5640140000000 1.0
C      1  0.4803270000000  0.5333340000000  0.5651910000000 1.0
C      1  0.5403700000000  0.5468440000000  0.4533840000000 1.0
C      1  0.4717110000000  0.5293820000000  0.4657610000000 1.0
C      1  0.5136180000000  0.5034330000000  0.5564010000000 1.0
C      1  0.5193010000000  0.4301040000000  0.5247750000000 1.0
C      1  0.4363140000000  0.4846360000000  0.5312260000000 1.0
C      1  0.5198760000000  0.5532610000000  0.5489750000000 1.0
C      1  0.5475050000000  0.5016890000000  0.5204700000000 1.0
C      1  0.4786120000000  0.5242260000000  0.5352430000000 1.0
C      1  0.5027470000000  0.4309450000000  0.4836850000000 1.0
C      1  0.4780890000000  0.4392000000000  0.4742360000000 1.0
C      1  0.4976660000000  0.4698730000000  0.4262890000000 1.0
C      1  0.5410610000000  0.4879120000000  0.4219620000000 1.0
C      1  0.5114640000000  0.4991040000000  0.4781480000000 1.0
C      1  0.4257120000000  0.5165950000000  0.4596280000000 1.0
C      1  0.4938130000000  0.4852300000000  0.5727360000000 1.0
C      1  0.4679740000000  0.4697760000000  0.5122770000000 1.0
C      1  0.5302400000000  0.4751180000000  0.4660110000000 1.0
C      1  0.4437910000000  0.5039260000000  0.5073430000000 1.0
C      1  0.4336910000000  0.5286800000000  0.5457750000000 1.0
C      1  0.5513710000000  0.5309800000000  0.4753200000000 1.0
C      1  0.5411840000000  0.4946720000000  0.5502830000000 1.0
C      1  0.5601750000000  0.4823220000000  0.4646240000000 1.0
C      1  0.4622350000000  0.4897940000000  0.4440430000000 1.0
C      1  0.5556160000000  0.5416940000000  0.5023380000000 1.0
C      1  0.5021990000000  0.5260350000000  0.4630040000000 1.0
C      1  0.5289280000000  0.5131880000000  0.4210490000000 1.0
C      1  0.5358070000000  0.5597580000000  0.5138560000000 1.0
C      1  0.4669450000000  0.4630090000000  0.4831360000000 1.0
C      1  0.4953610000000  0.4753000000000  0.5219110000000 1.0
C      1  0.5015250000000  0.4162820000000  0.5077240000000 1.0
C      1  0.4270580000000  0.5073450000000  0.4849870000000 1.0
C      1  0.5548140000000  0.4636670000000  0.5212240000000 1.0
C      1  0.5116430000000  0.5500600000000  0.4783730000000 1.0
C      1  0.4517000000000  0.5292050000000  0.5222190000000 1.0
C      1  0.4688720000000  0.5046810000000  0.5676970000000 1.0
C      1  0.5691250000000  0.5098500000000  0.4681540000000 1.0
C      1  0.4650700000000  0.4507990000000  0.5571810000000 1.0
C      1  0.5100980000000  0.5327090000000  0.5667530000000 1.0
C      1  0.5011740000000  0.5030890000000  0.5281150000000 1.0
C      1  0.5234190000000  0.4697310000000  0.4367270000000 1.0
C      1  0.5394440000000  0.4662330000000  0.5454530000000 1.0
C      1  0.4557670000000  0.5563180000000  0.5073240000000 1.0
C      1  0.4518080000000  0.5163380000000  0.4489820000000 1.0
C      1  0.4507240000000  0.4565340000000  0.5338070000000 1.0
C      1  0.4905260000000  0.5694390000000  0.4835200000000 1.0
C      1  0.4641690000000  0.5555280000000  0.4770210000000 1.0
C      1  0.5660690000000  0.4876340000000  0.4364660000000 1.0
C      1  0.4757340000000  0.4842120000000  0.4202320000000 1.0
C      1  0.5671190000000  0.5230910000000  0.5200450000000 1.0
C      1  0.5255960000000  0.4496200000000  0.4830620000000 1.0
C      1  0.5191770000000  0.5331820000000  0.4379140000000 1.0
C      1  0.4404160000000  0.5023080000000  0.5557050000000 1.0
C      1  0.5406450000000  0.4427460000000  0.5074300000000 1.0
C      1  0.4770250000000  0.4853350000000  0.4684690000000 1.0
C      1  0.5108090000000  0.4561490000000  0.5398120000000 1.0
C      1  0.4853210000000  0.5691810000000  0.5133020000000 1.0
C      1  0.5207530000000  0.5084040000000  0.5066690000000 1.0
END
