TITL C-9268-6400-301 -9.58304633710373e-06 125000 -356.866427774015 0 0 60 (C1) n - 1
REM
REM in /home/bkarasulu/CARBON/AIRSS/Generating-Clusters/EDIP-Nigel-Params/Higher-Symm/Box-15A/Only-C60/SD-CG/HFTN-CG
REM
REM
REM
REM
REM
REM ./C.cell (414f73aa93bd7a1190c7fd0f31ff2f98)
REM
REM compiler GCC version 9.2.1 20190827 (Red Hat 9.2.1-1)
REM options -cpp -mtune=generic -march=x86-64 -g -O0 -fpre-include=/usr/include/finclude/math-vector-fortran.h
REM seed 1951301905 -1618674689 1281340729 -327204964 2103936983 217103212 -1250176046 -961676195 2061979123 -2091655452 -1879325713 1377367495 973449444 596677131 245399858 604731226 1382844864 1264451608 398743582 -430417611 1760135050 1008185556 -32467789 -2060541960 501778308 -1999614135 -1782036047 1524506554 1442354384 -1462133357 235004871 1836243949 927673525
REM
CELL 1.54180   50.00000   50.00000   50.00000   90.00000   90.00000   90.00000
LATT -1
SFAC C  
C      1  0.4734570000000  0.5197560000000  0.5622840000000 1.0
C      1  0.4259430000000  0.5063160000000  0.4889020000000 1.0
C      1  0.4785930000000  0.5135190000000  0.4334240000000 1.0
C      1  0.5561750000000  0.5058070000000  0.4608430000000 1.0
C      1  0.5676170000000  0.5059870000000  0.5525950000000 1.0
C      1  0.5111920000000  0.4355910000000  0.4813790000000 1.0
C      1  0.5268750000000  0.4378580000000  0.5068550000000 1.0
C      1  0.5093460000000  0.4313500000000  0.5280410000000 1.0
C      1  0.4843130000000  0.4430880000000  0.5217110000000 1.0
C      1  0.4822920000000  0.4440810000000  0.4923430000000 1.0
C      1  0.4594760000000  0.4949830000000  0.5673140000000 1.0
C      1  0.4385560000000  0.4811730000000  0.4789120000000 1.0
C      1  0.4882570000000  0.4870790000000  0.4315780000000 1.0
C      1  0.5672070000000  0.4800250000000  0.4678760000000 1.0
C      1  0.5544260000000  0.4805780000000  0.5579660000000 1.0
C      1  0.5209930000000  0.4732680000000  0.5760690000000 1.0
C      1  0.4346990000000  0.4696810000000  0.5514200000000 1.0
C      1  0.4346720000000  0.4756630000000  0.4510830000000 1.0
C      1  0.5306000000000  0.4701020000000  0.4225330000000 1.0
C      1  0.5832060000000  0.4630440000000  0.4981930000000 1.0
C      1  0.4904230000000  0.5639900000000  0.4843260000000 1.0
C      1  0.5152430000000  0.5662480000000  0.4995310000000 1.0
C      1  0.5068620000000  0.5522990000000  0.5240430000000 1.0
C      1  0.4775810000000  0.5566180000000  0.5264880000000 1.0
C      1  0.4686810000000  0.5677750000000  0.5020580000000 1.0
C      1  0.4335830000000  0.4961920000000  0.4328680000000 1.0
C      1  0.5462840000000  0.4909360000000  0.4155460000000 1.0
C      1  0.5911450000000  0.4792160000000  0.5200210000000 1.0
C      1  0.5057010000000  0.4942460000000  0.5868700000000 1.0
C      1  0.4191250000000  0.4791430000000  0.5295450000000 1.0
C      1  0.4936630000000  0.5360000000000  0.4725420000000 1.0
C      1  0.5203850000000  0.5295550000000  0.4889110000000 1.0
C      1  0.5104620000000  0.5217680000000  0.5169750000000 1.0
C      1  0.4812240000000  0.5109030000000  0.5136280000000 1.0
C      1  0.4714810000000  0.5167260000000  0.4839020000000 1.0
C      1  0.4668400000000  0.5292350000000  0.5340320000000 1.0
C      1  0.4441000000000  0.5291510000000  0.4812450000000 1.0
C      1  0.4974120000000  0.5337360000000  0.4429000000000 1.0
C      1  0.5495550000000  0.5218980000000  0.4842720000000 1.0
C      1  0.5491730000000  0.5269160000000  0.5556990000000 1.0
C      1  0.5436200000000  0.5106480000000  0.4353020000000 1.0
C      1  0.5800540000000  0.5050920000000  0.5261470000000 1.0
C      1  0.5006770000000  0.5182800000000  0.5724850000000 1.0
C      1  0.4229460000000  0.5054200000000  0.5180830000000 1.0
C      1  0.4502170000000  0.5178760000000  0.4386220000000 1.0
C      1  0.5079150000000  0.4681940000000  0.4384010000000 1.0
C      1  0.5586880000000  0.4801910000000  0.4965650000000 1.0
C      1  0.5269410000000  0.4892300000000  0.5520920000000 1.0
C      1  0.4564830000000  0.4860000000000  0.5395570000000 1.0
C      1  0.4670590000000  0.4896970000000  0.4685830000000 1.0
C      1  0.5671330000000  0.5208780000000  0.5063750000000 1.0
C      1  0.5223490000000  0.5304770000000  0.5588300000000 1.0
C      1  0.4386110000000  0.5251850000000  0.5305140000000 1.0
C      1  0.4405830000000  0.5387470000000  0.4548550000000 1.0
C      1  0.5235460000000  0.5297290000000  0.4340380000000 1.0
C      1  0.5305590000000  0.4682220000000  0.5029630000000 1.0
C      1  0.5136920000000  0.4840210000000  0.5244060000000 1.0
C      1  0.4834210000000  0.4733220000000  0.5255410000000 1.0
C      1  0.4863470000000  0.4720050000000  0.4817720000000 1.0
C      1  0.5123420000000  0.4652830000000  0.4681460000000 1.0
END
