TITL C-9260-5597-141 7.23885381272367e-07 125000 -356.316946076803 0 0 60 (Ci) n - 1
REM
REM in /home/bkarasulu/CARBON/AIRSS/Generating-Clusters/EDIP-Nigel-Params/Higher-Symm/Box-15A/Only-C60/SD-CG/HFTN-CG
REM
REM
REM
REM
REM
REM ./C.cell (414f73aa93bd7a1190c7fd0f31ff2f98)
REM
REM compiler GCC version 9.2.1 20190827 (Red Hat 9.2.1-1)
REM options -cpp -mtune=generic -march=x86-64 -g -O0 -fpre-include=/usr/include/finclude/math-vector-fortran.h
REM seed -1765678156 186475088 -464522624 750355793 -1273007257 71332425 563823882 -1131684551 -1558853384 965168179 -321644814 -1832273879 -548554989 1022124142 599101060 -122887910 1239463085 1184983336 116943638 1862424607 -875618440 -1072158953 439984331 1441806912 1260927223 -1304446135 -981241880 -122164410 1084425953 788313248 1235939342 1372592507 -319154701
REM
CELL 1.54180   50.00000   50.00000   50.00000   90.00000   90.00000   90.00000
LATT -1
SFAC C  
C      1  0.5082680000000  0.5272120000000  0.4429650000000 1.0
C      1  0.4828850000000  0.4625570000000  0.4378530000000 1.0
C      1  0.5171150000000  0.5374430000000  0.5621470000000 1.0
C      1  0.4917320000000  0.4727880000000  0.5570350000000 1.0
C      1  0.5245090000000  0.4798450000000  0.4852610000000 1.0
C      1  0.4791260000000  0.5278290000000  0.4866480000000 1.0
C      1  0.5208740000000  0.4721710000000  0.5133520000000 1.0
C      1  0.4754910000000  0.5201550000000  0.5147390000000 1.0
C      1  0.4262270000000  0.5197140000000  0.5120900000000 1.0
C      1  0.5698430000000  0.4812860000000  0.5162870000000 1.0
C      1  0.4301570000000  0.5187140000000  0.4837130000000 1.0
C      1  0.5737730000000  0.4802860000000  0.4879100000000 1.0
C      1  0.4771190000000  0.5190620000000  0.5622150000000 1.0
C      1  0.5395250000000  0.4960820000000  0.5606540000000 1.0
C      1  0.4604750000000  0.5039180000000  0.4393460000000 1.0
C      1  0.5228810000000  0.4809380000000  0.4377850000000 1.0
C      1  0.5448670000000  0.4682120000000  0.5566420000000 1.0
C      1  0.4492130000000  0.5167760000000  0.5551450000000 1.0
C      1  0.5507870000000  0.4832240000000  0.4448550000000 1.0
C      1  0.4551330000000  0.5317880000000  0.4433580000000 1.0
C      1  0.5100220000000  0.4884880000000  0.5378410000000 1.0
C      1  0.4964660000000  0.5178570000000  0.5365900000000 1.0
C      1  0.5035340000000  0.4821430000000  0.4634100000000 1.0
C      1  0.4899780000000  0.5115120000000  0.4621590000000 1.0
C      1  0.4210180000000  0.4559480000000  0.4696730000000 1.0
C      1  0.5759550000000  0.5396930000000  0.4733540000000 1.0
C      1  0.4240450000000  0.4603070000000  0.5266460000000 1.0
C      1  0.5789820000000  0.5440520000000  0.5303270000000 1.0
C      1  0.4531770000000  0.5340130000000  0.4728840000000 1.0
C      1  0.5501850000000  0.4756200000000  0.4724830000000 1.0
C      1  0.4498150000000  0.5243800000000  0.5275170000000 1.0
C      1  0.5468230000000  0.4659870000000  0.5271160000000 1.0
C      1  0.5085590000000  0.5031550000000  0.4235880000000 1.0
C      1  0.4810390000000  0.4890120000000  0.4251880000000 1.0
C      1  0.5189610000000  0.5109880000000  0.5748120000000 1.0
C      1  0.4914410000000  0.4968450000000  0.5764120000000 1.0
C      1  0.4301900000000  0.5249600000000  0.5716520000000 1.0
C      1  0.5655020000000  0.4575620000000  0.5697580000000 1.0
C      1  0.4344980000000  0.5424380000000  0.4302420000000 1.0
C      1  0.5698100000000  0.4750400000000  0.4283480000000 1.0
C      1  0.4113830000000  0.4786150000000  0.4824260000000 1.0
C      1  0.5905220000000  0.5212840000000  0.4883830000000 1.0
C      1  0.4094780000000  0.4787160000000  0.5116170000000 1.0
C      1  0.5886170000000  0.5213850000000  0.5175740000000 1.0
C      1  0.4583870000000  0.4319940000000  0.5131650000000 1.0
C      1  0.5456460000000  0.5719670000000  0.5129210000000 1.0
C      1  0.4543540000000  0.4280330000000  0.4870790000000 1.0
C      1  0.5416130000000  0.5680060000000  0.4868350000000 1.0
C      1  0.4671410000000  0.4628510000000  0.5481760000000 1.0
C      1  0.5393920000000  0.5514280000000  0.5546100000000 1.0
C      1  0.4606080000000  0.4485720000000  0.4453900000000 1.0
C      1  0.5328590000000  0.5371490000000  0.4518240000000 1.0
C      1  0.5511280000000  0.5506800000000  0.4676740000000 1.0
C      1  0.4432240000000  0.4402000000000  0.4649890000000 1.0
C      1  0.5567760000000  0.5598000000000  0.5350110000000 1.0
C      1  0.4488720000000  0.4493200000000  0.5323260000000 1.0
C      1  0.5947160000000  0.4957960000000  0.4769090000000 1.0
C      1  0.4108800000000  0.5038380000000  0.4690520000000 1.0
C      1  0.5891200000000  0.4961620000000  0.5309480000000 1.0
C      1  0.4052840000000  0.5042040000000  0.5230910000000 1.0
END
