TITL C-9268-6400-31 -1.102015652387e-06 125000 -363.00169934284 0 0 60 (C1) n - 1
REM
REM in /home/bkarasulu/CARBON/AIRSS/Generating-Clusters/EDIP-Nigel-Params/Higher-Symm/Box-15A/Only-C60/SD-CG/HFTN-CG
REM
REM
REM
REM
REM
REM ./C.cell (414f73aa93bd7a1190c7fd0f31ff2f98)
REM
REM compiler GCC version 9.2.1 20190827 (Red Hat 9.2.1-1)
REM options -cpp -mtune=generic -march=x86-64 -g -O0 -fpre-include=/usr/include/finclude/math-vector-fortran.h
REM seed -467172354 882318709 1771534692 1689037853 889073165 1170844691 -369534571 -1487141505 119445186 1055032470 1379719354 1255174788 1849151135 2049543988 317203943 -1795076570 479930828 1667579443 153519454 1556980622 -995634873 1408633905 1549044395 -488048054 968525964 -1437238322 -978696753 533647117 1702464439 179757264 240883 1488818928 -1808303684
REM
CELL 1.54180   50.00000   50.00000   50.00000   90.00000   90.00000   90.00000
LATT -1
SFAC C  
C      1  0.5265790000000  0.5313900000000  0.5613690000000 1.0
C      1  0.5266470000000  0.4690060000000  0.4387330000000 1.0
C      1  0.4726590000000  0.5004810000000  0.5783590000000 1.0
C      1  0.4723720000000  0.4991560000000  0.4213100000000 1.0
C      1  0.4631070000000  0.5602150000000  0.5358060000000 1.0
C      1  0.4629690000000  0.4399480000000  0.4642030000000 1.0
C      1  0.5263360000000  0.5539480000000  0.5066970000000 1.0
C      1  0.5266970000000  0.4456660000000  0.4925760000000 1.0
C      1  0.5657050000000  0.4763290000000  0.4866460000000 1.0
C      1  0.5650040000000  0.5234780000000  0.5134990000000 1.0
C      1  0.4810270000000  0.5250310000000  0.4228590000000 1.0
C      1  0.4811830000000  0.4745390000000  0.5766650000000 1.0
C      1  0.4353270000000  0.5167800000000  0.5263830000000 1.0
C      1  0.4354200000000  0.4832880000000  0.4739920000000 1.0
C      1  0.5802860000000  0.4972300000000  0.4740290000000 1.0
C      1  0.5797880000000  0.5028540000000  0.5262080000000 1.0
C      1  0.5122710000000  0.4937430000000  0.5440150000000 1.0
C      1  0.5127650000000  0.5069990000000  0.4564560000000 1.0
C      1  0.5421920000000  0.5382360000000  0.5263990000000 1.0
C      1  0.5425850000000  0.4621590000000  0.4736000000000 1.0
C      1  0.5022010000000  0.5534590000000  0.4611000000000 1.0
C      1  0.5021910000000  0.4456210000000  0.5385050000000 1.0
C      1  0.5238760000000  0.5433980000000  0.4789810000000 1.0
C      1  0.5264870000000  0.4513730000000  0.5219340000000 1.0
C      1  0.4908210000000  0.4351710000000  0.4514990000000 1.0
C      1  0.4908080000000  0.5651440000000  0.5486420000000 1.0
C      1  0.4370820000000  0.5129600000000  0.4736130000000 1.0
C      1  0.4373430000000  0.4871070000000  0.5267610000000 1.0
C      1  0.4979380000000  0.4585520000000  0.4344340000000 1.0
C      1  0.4978760000000  0.5417990000000  0.5658470000000 1.0
C      1  0.5473860000000  0.5173000000000  0.4413270000000 1.0
C      1  0.5465780000000  0.4819340000000  0.5587340000000 1.0
C      1  0.4974040000000  0.4862450000000  0.4978110000000 1.0
C      1  0.4978070000000  0.5153990000000  0.5014000000000 1.0
C      1  0.5673580000000  0.5204680000000  0.4844440000000 1.0
C      1  0.5674510000000  0.4793470000000  0.5157600000000 1.0
C      1  0.4764580000000  0.4784530000000  0.4398170000000 1.0
C      1  0.4764120000000  0.5217960000000  0.5604520000000 1.0
C      1  0.4838490000000  0.5704030000000  0.4742180000000 1.0
C      1  0.4833460000000  0.4293240000000  0.5252930000000 1.0
C      1  0.4285430000000  0.5232640000000  0.4992070000000 1.0
C      1  0.4287580000000  0.4767250000000  0.5011910000000 1.0
C      1  0.5283850000000  0.5020570000000  0.5695220000000 1.0
C      1  0.5281460000000  0.4982480000000  0.4309420000000 1.0
C      1  0.4547230000000  0.4671920000000  0.4563770000000 1.0
C      1  0.4548680000000  0.5329460000000  0.5436240000000 1.0
C      1  0.5466820000000  0.4695620000000  0.5325840000000 1.0
C      1  0.5475160000000  0.5311840000000  0.4668170000000 1.0
C      1  0.5079340000000  0.4794240000000  0.4713520000000 1.0
C      1  0.5075010000000  0.5210960000000  0.5287720000000 1.0
C      1  0.4725790000000  0.4718890000000  0.5043670000000 1.0
C      1  0.4722100000000  0.5289690000000  0.4956550000000 1.0
C      1  0.4901230000000  0.4722060000000  0.5488710000000 1.0
C      1  0.4895980000000  0.5275670000000  0.4507640000000 1.0
C      1  0.4997150000000  0.5617340000000  0.5186380000000 1.0
C      1  0.4998060000000  0.4388280000000  0.4811740000000 1.0
C      1  0.4757550000000  0.4421550000000  0.5003520000000 1.0
C      1  0.4755440000000  0.5586300000000  0.4994190000000 1.0
C      1  0.4647440000000  0.5222800000000  0.4684870000000 1.0
C      1  0.4652810000000  0.4783130000000  0.5315090000000 1.0
END
