TITL C-9262-5533-393 -2.12462118106299e-06 125000 -360.071170193394 0 0 60 (C1) n - 1
REM
REM in /home/bkarasulu/CARBON/AIRSS/Generating-Clusters/EDIP-Nigel-Params/Higher-Symm/Box-15A/Only-C60/SD-CG/HFTN-CG
REM
REM
REM
REM
REM
REM ./C.cell (414f73aa93bd7a1190c7fd0f31ff2f98)
REM
REM compiler GCC version 9.2.1 20190827 (Red Hat 9.2.1-1)
REM options -cpp -mtune=generic -march=x86-64 -g -O0 -fpre-include=/usr/include/finclude/math-vector-fortran.h
REM seed 1766009225 1887125163 1266529229 1866877390 184525510 -289722373 1558099882 1910697864 -873014938 -988717410 -877403689 -292490436 -330876587 454303567 -739504449 1458703290 -161692888 -1707096358 362098373 188826382 -1239433503 -983688355 76522784 1744960886 32852600 1991712191 -1870052075 -559018596 1437306147 1992614727 -1767344651 195279493 -934901782
REM
CELL 1.54180   50.00000   50.00000   50.00000   90.00000   90.00000   90.00000
LATT -1
SFAC C  
C      1  0.4517650000000  0.5460610000000  0.4572340000000 1.0
C      1  0.5420530000000  0.5482700000000  0.4513810000000 1.0
C      1  0.5470900000000  0.5473080000000  0.5419480000000 1.0
C      1  0.4563510000000  0.5465090000000  0.5473320000000 1.0
C      1  0.5217160000000  0.4493720000000  0.4327450000000 1.0
C      1  0.5744020000000  0.4513800000000  0.5215090000000 1.0
C      1  0.4754460000000  0.4475720000000  0.5700180000000 1.0
C      1  0.4300440000000  0.4478730000000  0.4779530000000 1.0
C      1  0.5618120000000  0.5391100000000  0.4959830000000 1.0
C      1  0.5018290000000  0.5342620000000  0.5587380000000 1.0
C      1  0.4386730000000  0.5350550000000  0.5026630000000 1.0
C      1  0.4968300000000  0.5360550000000  0.4391080000000 1.0
C      1  0.4639670000000  0.5016820000000  0.4350100000000 1.0
C      1  0.5665320000000  0.5047940000000  0.4628530000000 1.0
C      1  0.5356070000000  0.5019050000000  0.5625360000000 1.0
C      1  0.4333370000000  0.5018790000000  0.5369500000000 1.0
C      1  0.4630290000000  0.4435410000000  0.5335280000000 1.0
C      1  0.4684950000000  0.4454230000000  0.4762110000000 1.0
C      1  0.5241420000000  0.4480480000000  0.4711860000000 1.0
C      1  0.5356940000000  0.4524400000000  0.5226990000000 1.0
C      1  0.4456060000000  0.5277770000000  0.5295010000000 1.0
C      1  0.4704870000000  0.5279080000000  0.4469370000000 1.0
C      1  0.5536740000000  0.5305690000000  0.4697620000000 1.0
C      1  0.5288810000000  0.5282810000000  0.5515770000000 1.0
C      1  0.4216590000000  0.4896880000000  0.5114190000000 1.0
C      1  0.4891710000000  0.4904050000000  0.4226510000000 1.0
C      1  0.5827850000000  0.4950150000000  0.4867220000000 1.0
C      1  0.5108250000000  0.4888050000000  0.5748010000000 1.0
C      1  0.4486040000000  0.4538950000000  0.4552630000000 1.0
C      1  0.5450280000000  0.4555410000000  0.4505790000000 1.0
C      1  0.5559760000000  0.4573900000000  0.5440380000000 1.0
C      1  0.4495210000000  0.4550910000000  0.5572660000000 1.0
C      1  0.4805200000000  0.4683600000000  0.4911500000000 1.0
C      1  0.5115360000000  0.4726300000000  0.4831520000000 1.0
C      1  0.5261750000000  0.4770130000000  0.5095360000000 1.0
C      1  0.4799550000000  0.4635420000000  0.5212010000000 1.0
C      1  0.5466720000000  0.4856930000000  0.4500110000000 1.0
C      1  0.5562440000000  0.4872860000000  0.5464400000000 1.0
C      1  0.4516330000000  0.4850630000000  0.5546580000000 1.0
C      1  0.4489010000000  0.4838970000000  0.4542370000000 1.0
C      1  0.5076110000000  0.5132530000000  0.4256560000000 1.0
C      1  0.5786780000000  0.5178760000000  0.5054120000000 1.0
C      1  0.4915640000000  0.5105330000000  0.5707870000000 1.0
C      1  0.4253860000000  0.5119200000000  0.4923410000000 1.0
C      1  0.5013470000000  0.4692280000000  0.4397660000000 1.0
C      1  0.5691600000000  0.4712940000000  0.5005070000000 1.0
C      1  0.4980980000000  0.4646240000000  0.5616570000000 1.0
C      1  0.4368560000000  0.4663550000000  0.4997230000000 1.0
C      1  0.5148700000000  0.5485060000000  0.4580000000000 1.0
C      1  0.5416950000000  0.5490650000000  0.5145510000000 1.0
C      1  0.4836040000000  0.5475430000000  0.5407710000000 1.0
C      1  0.4577350000000  0.5474280000000  0.4845890000000 1.0
C      1  0.5201270000000  0.5673700000000  0.5060760000000 1.0
C      1  0.4925280000000  0.5671700000000  0.5207040000000 1.0
C      1  0.4777480000000  0.5674350000000  0.4931330000000 1.0
C      1  0.5057160000000  0.5677450000000  0.4784210000000 1.0
C      1  0.4547810000000  0.4896230000000  0.4832300000000 1.0
C      1  0.5175900000000  0.4918550000000  0.4557060000000 1.0
C      1  0.5515890000000  0.4934240000000  0.5166480000000 1.0
C      1  0.4806500000000  0.4853620000000  0.5438350000000 1.0
END
