TITL C-9268-6400-187 -1.38127526851772e-05 125000 -367.123192414411 0 0 60 (Cs) n - 1
REM
REM in /home/bkarasulu/CARBON/AIRSS/Generating-Clusters/EDIP-Nigel-Params/Higher-Symm/Box-15A/Only-C60/SD-CG/HFTN-CG
REM
REM
REM
REM
REM
REM ./C.cell (414f73aa93bd7a1190c7fd0f31ff2f98)
REM
REM compiler GCC version 9.2.1 20190827 (Red Hat 9.2.1-1)
REM options -cpp -mtune=generic -march=x86-64 -g -O0 -fpre-include=/usr/include/finclude/math-vector-fortran.h
REM seed 1636882941 -510910664 893346944 1719949911 2076099374 -53717978 -746598337 -266444604 76353080 -531071295 -1851260285 -2123371017 -1571815062 1546716814 -544858925 1456966483 1711188397 -1334643885 430418470 615773434 1482550038 1128902118 -942984079 1608812924 -251098555 -6696993 -886737514 -1772476638 347882886 -402705507 349625406 706896517 851869226
REM
CELL 1.54180   50.00000   50.00000   50.00000   90.00000   90.00000   90.00000
LATT -1
SFAC C  
C      1  0.5723490000000  0.4786650000000  0.5577380000000 1.0
C      1  0.5723140000000  0.4786970000000  0.4422060000000 1.0
C      1  0.4350430000000  0.5163370000000  0.4626300000000 1.0
C      1  0.4350660000000  0.5163160000000  0.5374190000000 1.0
C      1  0.4261270000000  0.5050590000000  0.5134890000000 1.0
C      1  0.4261190000000  0.5050670000000  0.4865590000000 1.0
C      1  0.4972450000000  0.5444200000000  0.4740940000000 1.0
C      1  0.4972610000000  0.5444060000000  0.5259330000000 1.0
C      1  0.4766890000000  0.5429480000000  0.4223250000000 1.0
C      1  0.4767370000000  0.5429050000000  0.5777130000000 1.0
C      1  0.5214320000000  0.4480390000000  0.5143220000000 1.0
C      1  0.5214230000000  0.4480470000000  0.4856350000000 1.0
C      1  0.5612920000000  0.4989170000000  0.5146360000000 1.0
C      1  0.5612830000000  0.4989250000000  0.4853260000000 1.0
C      1  0.4393460000000  0.5630530000000  0.4426830000000 1.0
C      1  0.4393820000000  0.5630210000000  0.5573900000000 1.0
C      1  0.4878730000000  0.5200060000000  0.5152970000000 1.0
C      1  0.4878640000000  0.5200150000000  0.4847210000000 1.0
C      1  0.5050100000000  0.4494040000000  0.5597860000000 1.0
C      1  0.5049730000000  0.4494380000000  0.4401820000000 1.0
C      1  0.4998090000000  0.4975320000000  0.4275950000000 1.0
C      1  0.4998530000000  0.4974920000000  0.5724040000000 1.0
C      1  0.4987040000000  0.4643540000000  0.4748010000000 1.0
C      1  0.4987200000000  0.4643400000000  0.5251800000000 1.0
C      1  0.5399390000000  0.5439550000000  0.5144970000000 1.0
C      1  0.5399300000000  0.5439630000000  0.4855030000000 1.0
C      1  0.4299660000000  0.5430170000000  0.5424020000000 1.0
C      1  0.4299400000000  0.5430410000000  0.4576640000000 1.0
C      1  0.4554540000000  0.5034560000000  0.5541970000000 1.0
C      1  0.4554210000000  0.5034860000000  0.4458320000000 1.0
C      1  0.5462950000000  0.4752200000000  0.4311660000000 1.0
C      1  0.5463370000000  0.4751820000000  0.5687920000000 1.0
C      1  0.4778740000000  0.5169810000000  0.4320960000000 1.0
C      1  0.4779150000000  0.5169430000000  0.5679270000000 1.0
C      1  0.4514860000000  0.4571920000000  0.4669470000000 1.0
C      1  0.4515060000000  0.4571730000000  0.5330590000000 1.0
C      1  0.5434500000000  0.5209270000000  0.4433690000000 1.0
C      1  0.5434850000000  0.5208950000000  0.5566160000000 1.0
C      1  0.5681050000000  0.4753170000000  0.4698270000000 1.0
C      1  0.5681230000000  0.4753000000000  0.5301180000000 1.0
C      1  0.4604240000000  0.5638490000000  0.4262180000000 1.0
C      1  0.4604700000000  0.5638070000000  0.5738420000000 1.0
C      1  0.5200920000000  0.5593420000000  0.5274610000000 1.0
C      1  0.5200750000000  0.5593570000000  0.4725600000000 1.0
C      1  0.4618300000000  0.4752390000000  0.4475190000000 1.0
C      1  0.4618620000000  0.4752090000000  0.5524900000000 1.0
C      1  0.4725460000000  0.4551760000000  0.4855020000000 1.0
C      1  0.4725550000000  0.4551680000000  0.5144890000000 1.0
C      1  0.5342620000000  0.4498690000000  0.4409320000000 1.0
C      1  0.5342980000000  0.4498360000000  0.5590190000000 1.0
C      1  0.5446410000000  0.4458630000000  0.5314640000000 1.0
C      1  0.5446210000000  0.4458810000000  0.4684790000000 1.0
C      1  0.5293720000000  0.4991850000000  0.5678200000000 1.0
C      1  0.5293300000000  0.4992230000000  0.4321610000000 1.0
C      1  0.5512200000000  0.5221020000000  0.4706010000000 1.0
C      1  0.5512380000000  0.5220860000000  0.5293800000000 1.0
C      1  0.4877720000000  0.4716150000000  0.4337460000000 1.0
C      1  0.4878130000000  0.4715780000000  0.5662460000000 1.0
C      1  0.5042210000000  0.4930770000000  0.5153550000000 1.0
C      1  0.5042120000000  0.4930860000000  0.4846390000000 1.0
END
