TITL C-9263-351-13 -8.89209379205789e-07 125000 -373.26288306719 0 0 60 (C3) n - 1
REM
REM in /home/bkarasulu/CARBON/AIRSS/Generating-Clusters/EDIP-Nigel-Params/Higher-Symm/Box-15A/Only-C60/SD-CG/HFTN-CG
REM
REM
REM
REM
REM
REM ./C.cell (414f73aa93bd7a1190c7fd0f31ff2f98)
REM
REM compiler GCC version 9.2.1 20190827 (Red Hat 9.2.1-1)
REM options -cpp -mtune=generic -march=x86-64 -g -O0 -fpre-include=/usr/include/finclude/math-vector-fortran.h
REM seed 163678350 -900382157 1517402160 -2059506123 2044187587 -338378861 -1725191979 1157081755 -1272627699 -217430842 -240143912 -2049922629 -304113210 -2084023558 -1503752674 1970693793 -1498072397 -2026394292 -1560561668 -432690315 -336659479 6585675 862190322 1190934714 -602328638 420827056 954600856 1104707327 -177091073 -1360171149 -2011661446 -1506236004 162500368
REM
CELL 1.54180   50.00000   50.00000   50.00000   90.00000   90.00000   90.00000
LATT -1
SFAC C  
C      1  0.5569650000000  0.4588870000000  0.4870660000000 1.0
C      1  0.4603230000000  0.4588700000000  0.4571440000000 1.0
C      1  0.4827310000000  0.4588810000000  0.5557990000000 1.0
C      1  0.4739340000000  0.5290030000000  0.4357520000000 1.0
C      1  0.4573870000000  0.5290090000000  0.5546910000000 1.0
C      1  0.5686650000000  0.5290230000000  0.5095510000000 1.0
C      1  0.4409160000000  0.5237130000000  0.4814970000000 1.0
C      1  0.5135140000000  0.5237310000000  0.5604140000000 1.0
C      1  0.5455590000000  0.5237280000000  0.4580840000000 1.0
C      1  0.5082070000000  0.4457210000000  0.4719020000000 1.0
C      1  0.4715720000000  0.4457180000000  0.5069550000000 1.0
C      1  0.5202470000000  0.4457260000000  0.5211560000000 1.0
C      1  0.4389120000000  0.5033970000000  0.4600550000000 1.0
C      1  0.4959500000000  0.5034150000000  0.5728750000000 1.0
C      1  0.5651370000000  0.5034180000000  0.4670690000000 1.0
C      1  0.4910710000000  0.4420000000000  0.5300190000000 1.0
C      1  0.5304710000000  0.4420030000000  0.4927380000000 1.0
C      1  0.4784850000000  0.4419940000000  0.4772570000000 1.0
C      1  0.5171950000000  0.4752450000000  0.4752610000000 1.0
C      1  0.4699820000000  0.4752400000000  0.4974840000000 1.0
C      1  0.5128350000000  0.4752490000000  0.5272610000000 1.0
C      1  0.5471810000000  0.5491050000000  0.4696820000000 1.0
C      1  0.4501450000000  0.5490900000000  0.4742870000000 1.0
C      1  0.5026510000000  0.5491050000000  0.5560200000000 1.0
C      1  0.5193440000000  0.4895570000000  0.4333990000000 1.0
C      1  0.4326510000000  0.4895500000000  0.5165510000000 1.0
C      1  0.5480100000000  0.4895700000000  0.5500530000000 1.0
C      1  0.4737840000000  0.5580140000000  0.4859070000000 1.0
C      1  0.5008930000000  0.5580220000000  0.5297350000000 1.0
C      1  0.5252950000000  0.5580220000000  0.4843440000000 1.0
C      1  0.4827360000000  0.4883370000000  0.5223890000000 1.0
C      1  0.5280240000000  0.4883430000000  0.5037590000000 1.0
C      1  0.4892460000000  0.4883340000000  0.4738540000000 1.0
C      1  0.5264160000000  0.5541480000000  0.5143750000000 1.0
C      1  0.4992320000000  0.5541400000000  0.4699220000000 1.0
C      1  0.4743260000000  0.5541400000000  0.5156910000000 1.0
C      1  0.5590920000000  0.4747260000000  0.4609730000000 1.0
C      1  0.4366600000000  0.4747070000000  0.4683440000000 1.0
C      1  0.5042600000000  0.4747250000000  0.5706880000000 1.0
C      1  0.4994930000000  0.5367280000000  0.4444220000000 1.0
C      1  0.4521160000000  0.5367270000000  0.5282190000000 1.0
C      1  0.5483740000000  0.5367420000000  0.5273500000000 1.0
C      1  0.5667990000000  0.4770930000000  0.5338120000000 1.0
C      1  0.4958860000000  0.4770730000000  0.4252500000000 1.0
C      1  0.4373250000000  0.4770730000000  0.5409440000000 1.0
C      1  0.5402950000000  0.4725600000000  0.4401260000000 1.0
C      1  0.4280050000000  0.4725470000000  0.4950480000000 1.0
C      1  0.5317130000000  0.4725680000000  0.5648330000000 1.0
C      1  0.4765190000000  0.4823700000000  0.4459790000000 1.0
C      1  0.4649600000000  0.4823760000000  0.5473510000000 1.0
C      1  0.5585300000000  0.4823880000000  0.5066750000000 1.0
C      1  0.5737590000000  0.5054450000000  0.4953620000000 1.0
C      1  0.4591030000000  0.5054230000000  0.4384410000000 1.0
C      1  0.4671350000000  0.5054340000000  0.5661960000000 1.0
C      1  0.5205530000000  0.5159880000000  0.4453760000000 1.0
C      1  0.4424150000000  0.5159800000000  0.5095080000000 1.0
C      1  0.5370240000000  0.5159980000000  0.5451120000000 1.0
C      1  0.4921380000000  0.5179570000000  0.4827690000000 1.0
C      1  0.4890050000000  0.5179590000000  0.5154190000000 1.0
C      1  0.5188480000000  0.5179630000000  0.5018080000000 1.0
END
