TITL C-9266-5713-274 -0.000505079456772235 125000 -352.591915481933 0 0 60 (C1) n - 1
REM
REM in /home/bkarasulu/CARBON/AIRSS/Generating-Clusters/EDIP-Nigel-Params/Higher-Symm/Box-15A/Only-C60/SD-CG/HFTN-CG
REM
REM
REM
REM
REM
REM ./C.cell (414f73aa93bd7a1190c7fd0f31ff2f98)
REM
REM compiler GCC version 9.2.1 20190827 (Red Hat 9.2.1-1)
REM options -cpp -mtune=generic -march=x86-64 -g -O0 -fpre-include=/usr/include/finclude/math-vector-fortran.h
REM seed 23547166 1699917169 1223179450 25019696 1089600906 1066671534 359650491 -394887999 31743533 -1050789978 -620523340 -1907549926 -1844916090 641282380 -1989313513 681400302 850769959 -773908878 -29866566 -769973764 423952872 435226296 918634533 694199127 -163789590 1860515065 -1298904441 882366838 845216819 933232057 -994198417 1740144157 -658711359
REM
CELL 1.54180   50.00000   50.00000   50.00000   90.00000   90.00000   90.00000
LATT -1
SFAC C  
C      1  0.5479250000000  0.5440060000000  0.4861600000000 1.0
C      1  0.4459880000000  0.5549170000000  0.5139380000000 1.0
C      1  0.5514060000000  0.5473720000000  0.5178210000000 1.0
C      1  0.4482440000000  0.5581710000000  0.4846450000000 1.0
C      1  0.4832240000000  0.4941620000000  0.5478260000000 1.0
C      1  0.5195950000000  0.5022020000000  0.4555470000000 1.0
C      1  0.4660990000000  0.4920210000000  0.4485040000000 1.0
C      1  0.5134570000000  0.4924000000000  0.5468390000000 1.0
C      1  0.4438780000000  0.4471280000000  0.5119130000000 1.0
C      1  0.5538870000000  0.4503080000000  0.4851630000000 1.0
C      1  0.4458450000000  0.4422660000000  0.4832330000000 1.0
C      1  0.5552100000000  0.4499310000000  0.5134470000000 1.0
C      1  0.4690500000000  0.4482150000000  0.5263530000000 1.0
C      1  0.5271640000000  0.4516040000000  0.4741710000000 1.0
C      1  0.4740300000000  0.4445480000000  0.4742440000000 1.0
C      1  0.5296210000000  0.4510720000000  0.5266510000000 1.0
C      1  0.4316970000000  0.5078340000000  0.4784340000000 1.0
C      1  0.5873270000000  0.5002220000000  0.5096870000000 1.0
C      1  0.4209780000000  0.5062370000000  0.5038990000000 1.0
C      1  0.5848580000000  0.5048560000000  0.4827430000000 1.0
C      1  0.5604470000000  0.4720940000000  0.4539680000000 1.0
C      1  0.4358850000000  0.4743780000000  0.5383040000000 1.0
C      1  0.5640190000000  0.4724860000000  0.5435930000000 1.0
C      1  0.4306730000000  0.4596650000000  0.4666460000000 1.0
C      1  0.5350110000000  0.5233260000000  0.4442270000000 1.0
C      1  0.4702050000000  0.5198900000000  0.5549470000000 1.0
C      1  0.5297580000000  0.5170240000000  0.5526830000000 1.0
C      1  0.4695500000000  0.5211600000000  0.4491790000000 1.0
C      1  0.5001150000000  0.5578170000000  0.4734290000000 1.0
C      1  0.4958860000000  0.5640750000000  0.5253640000000 1.0
C      1  0.5265070000000  0.5657490000000  0.5274080000000 1.0
C      1  0.4742390000000  0.5685030000000  0.4785120000000 1.0
C      1  0.5146620000000  0.5390260000000  0.5608570000000 1.0
C      1  0.4903720000000  0.5355400000000  0.4365230000000 1.0
C      1  0.5168420000000  0.5429500000000  0.4351070000000 1.0
C      1  0.4876670000000  0.5402890000000  0.5617730000000 1.0
C      1  0.5122900000000  0.4763650000000  0.4828740000000 1.0
C      1  0.4829990000000  0.4722430000000  0.5152420000000 1.0
C      1  0.5151780000000  0.4763280000000  0.5192200000000 1.0
C      1  0.4810210000000  0.4719300000000  0.4845580000000 1.0
C      1  0.4782020000000  0.4437100000000  0.4460400000000 1.0
C      1  0.5393800000000  0.4570670000000  0.5542470000000 1.0
C      1  0.4579150000000  0.4581950000000  0.5525370000000 1.0
C      1  0.5343800000000  0.4587630000000  0.4462050000000 1.0
C      1  0.5672060000000  0.4973690000000  0.5285560000000 1.0
C      1  0.4460760000000  0.4840690000000  0.4689280000000 1.0
C      1  0.5609610000000  0.4959730000000  0.4707410000000 1.0
C      1  0.4341710000000  0.5015910000000  0.5277700000000 1.0
C      1  0.5175140000000  0.4719780000000  0.5678290000000 1.0
C      1  0.4852770000000  0.4709460000000  0.4404820000000 1.0
C      1  0.5138370000000  0.4793080000000  0.4386120000000 1.0
C      1  0.4788070000000  0.4728900000000  0.5674830000000 1.0
C      1  0.4460060000000  0.5257990000000  0.5395030000000 1.0
C      1  0.5583790000000  0.5261870000000  0.4639540000000 1.0
C      1  0.4482370000000  0.5309290000000  0.4691650000000 1.0
C      1  0.5524220000000  0.5212640000000  0.5350810000000 1.0
C      1  0.4733770000000  0.5436050000000  0.5180970000000 1.0
C      1  0.5186430000000  0.5358740000000  0.4833500000000 1.0
C      1  0.4806230000000  0.5296640000000  0.4909650000000 1.0
C      1  0.5157760000000  0.5345090000000  0.5148250000000 1.0
END
