TITL C-9266-5713-126 -6.16484667781482e-07 125000 -391.467711235593 0 0 60 (Ih) n - 1
REM
REM in /home/bkarasulu/CARBON/AIRSS/Generating-Clusters/EDIP-Nigel-Params/Higher-Symm/Box-15A/Only-C60/SD-CG/HFTN-CG
REM
REM
REM
REM
REM
REM ./C.cell (414f73aa93bd7a1190c7fd0f31ff2f98)
REM
REM compiler GCC version 9.2.1 20190827 (Red Hat 9.2.1-1)
REM options -cpp -mtune=generic -march=x86-64 -g -O0 -fpre-include=/usr/include/finclude/math-vector-fortran.h
REM seed 554259411 462455496 1204990041 199744665 -508341549 990433717 -1774494168 968371340 -1879499243 -2065968514 -1966326 597118572 -1670517121 -433139964 -701078005 623355233 -1622780814 -346721516 -1499697902 -1695942129 1836893845 688298776 -556130508 -2101079541 -1832555743 -1466216439 -142326349 393269192 -773091521 2027972897 -232135284 -817969767 -1254632174
REM
CELL 1.54180   50.00000   50.00000   50.00000   90.00000   90.00000   90.00000
LATT -1
SFAC C  
C      1  0.4442050000000  0.5468480000000  0.5116790000000 1.0
C      1  0.5506160000000  0.5158660000000  0.4487120000000 1.0
C      1  0.5136280000000  0.4467550000000  0.5492280000000 1.0
C      1  0.5541860000000  0.4532920000000  0.5180650000000 1.0
C      1  0.4482460000000  0.4504010000000  0.4825190000000 1.0
C      1  0.5533620000000  0.5494590000000  0.4877360000000 1.0
C      1  0.4552000000000  0.4836270000000  0.4437060000000 1.0
C      1  0.5455520000000  0.4865940000000  0.5564750000000 1.0
C      1  0.4486320000000  0.5139120000000  0.5511070000000 1.0
C      1  0.4811720000000  0.5536980000000  0.5469700000000 1.0
C      1  0.5161080000000  0.5540060000000  0.4523760000000 1.0
C      1  0.4890920000000  0.4455410000000  0.4514260000000 1.0
C      1  0.4458140000000  0.5467080000000  0.4819350000000 1.0
C      1  0.5448000000000  0.5163730000000  0.5562940000000 1.0
C      1  0.5188280000000  0.4463020000000  0.4530300000000 1.0
C      1  0.5557950000000  0.4531520000000  0.4883210000000 1.0
C      1  0.4466380000000  0.4505410000000  0.5122640000000 1.0
C      1  0.5517540000000  0.5495990000000  0.5174810000000 1.0
C      1  0.4493840000000  0.4841340000000  0.5512880000000 1.0
C      1  0.5513680000000  0.4860880000000  0.4488930000000 1.0
C      1  0.4544480000000  0.5134060000000  0.4435250000000 1.0
C      1  0.4863720000000  0.5532450000000  0.4507720000000 1.0
C      1  0.5109080000000  0.5544590000000  0.5485740000000 1.0
C      1  0.4838920000000  0.4459940000000  0.5476240000000 1.0
C      1  0.4800990000000  0.4693280000000  0.4359120000000 1.0
C      1  0.4731750000000  0.4360840000000  0.4747160000000 1.0
C      1  0.4392630000000  0.4741580000000  0.4670240000000 1.0
C      1  0.5267090000000  0.5300800000000  0.4381450000000 1.0
C      1  0.4717870000000  0.5294420000000  0.5614930000000 1.0
C      1  0.5214040000000  0.4711510000000  0.5644500000000 1.0
C      1  0.5294260000000  0.5636900000000  0.4771560000000 1.0
C      1  0.4673890000000  0.5623960000000  0.5220780000000 1.0
C      1  0.5300090000000  0.4378310000000  0.5260500000000 1.0
C      1  0.5639510000000  0.5255620000000  0.4735220000000 1.0
C      1  0.4348320000000  0.5226210000000  0.5261850000000 1.0
C      1  0.5619530000000  0.4776590000000  0.5332690000000 1.0
C      1  0.4732910000000  0.4699200000000  0.5618550000000 1.0
C      1  0.4705740000000  0.4363100000000  0.5228440000000 1.0
C      1  0.4360490000000  0.4744380000000  0.5264780000000 1.0
C      1  0.5199010000000  0.5306720000000  0.5640880000000 1.0
C      1  0.4785960000000  0.5288490000000  0.4355500000000 1.0
C      1  0.5282130000000  0.4705580000000  0.4385070000000 1.0
C      1  0.5268250000000  0.5639160000000  0.5252840000000 1.0
C      1  0.4699910000000  0.5621690000000  0.4739500000000 1.0
C      1  0.5326110000000  0.4376040000000  0.4779220000000 1.0
C      1  0.5607370000000  0.5258420000000  0.5329760000000 1.0
C      1  0.4380470000000  0.5223410000000  0.4667310000000 1.0
C      1  0.5651680000000  0.4773790000000  0.4738150000000 1.0
C      1  0.5713380000000  0.5019150000000  0.5187460000000 1.0
C      1  0.5166740000000  0.4281350000000  0.5012400000000 1.0
C      1  0.4833260000000  0.5718650000000  0.4987600000000 1.0
C      1  0.4270560000000  0.4982240000000  0.5109630000000 1.0
C      1  0.5729440000000  0.5017760000000  0.4890370000000 1.0
C      1  0.4286620000000  0.4980850000000  0.4812540000000 1.0
C      1  0.4964740000000  0.4854680000000  0.5722540000000 1.0
C      1  0.5042770000000  0.4847890000000  0.4279270000000 1.0
C      1  0.5035260000000  0.5145320000000  0.4277460000000 1.0
C      1  0.4957230000000  0.5152110000000  0.5720730000000 1.0
C      1  0.5130250000000  0.5726250000000  0.5003620000000 1.0
C      1  0.4869750000000  0.4273750000000  0.4996380000000 1.0
END
