TITL C-9267-1554-324 -4.20116306570187e-07 125000 -371.420547696128 0 0 60 (C1) n - 1
REM
REM in /home/bkarasulu/CARBON/AIRSS/Generating-Clusters/EDIP-Nigel-Params/Higher-Symm/Box-15A/Only-C60/SD-CG/HFTN-CG
REM
REM
REM
REM
REM
REM ./C.cell (414f73aa93bd7a1190c7fd0f31ff2f98)
REM
REM compiler GCC version 9.2.1 20190827 (Red Hat 9.2.1-1)
REM options -cpp -mtune=generic -march=x86-64 -g -O0 -fpre-include=/usr/include/finclude/math-vector-fortran.h
REM seed 751628500 1714570123 1441989541 1075629903 -1694485641 508497080 934449221 72673764 -1085056865 -776675027 -1169857221 346552996 -1348953148 1421591674 -235502721 985602822 264764187 -930532813 791912132 -251950228 420408675 -579107417 288589251 1449623131 429419839 -1044049351 -266960811 255675265 -476517478 1410948494 -1335474482 -1232003254 -1392473152
REM
CELL 1.54180   50.00000   50.00000   50.00000   90.00000   90.00000   90.00000
LATT -1
SFAC C  
C      1  0.5236590000000  0.5135040000000  0.5127150000000 1.0
C      1  0.4967180000000  0.5296410000000  0.5131520000000 1.0
C      1  0.4722090000000  0.5091760000000  0.5145890000000 1.0
C      1  0.4845110000000  0.4799660000000  0.5120730000000 1.0
C      1  0.5148730000000  0.4848470000000  0.5138340000000 1.0
C      1  0.5238810000000  0.5149920000000  0.5633720000000 1.0
C      1  0.4966010000000  0.5271100000000  0.5647720000000 1.0
C      1  0.4763790000000  0.5049010000000  0.5653210000000 1.0
C      1  0.4917050000000  0.4786430000000  0.5632030000000 1.0
C      1  0.5208230000000  0.4851350000000  0.5625920000000 1.0
C      1  0.4623250000000  0.4712460000000  0.4532140000000 1.0
C      1  0.5152120000000  0.4540990000000  0.4531890000000 1.0
C      1  0.5466530000000  0.4991490000000  0.4536480000000 1.0
C      1  0.5138150000000  0.5430110000000  0.4542080000000 1.0
C      1  0.4639300000000  0.5256090000000  0.4554580000000 1.0
C      1  0.4461870000000  0.5219790000000  0.4986480000000 1.0
C      1  0.4591940000000  0.4550440000000  0.4961290000000 1.0
C      1  0.5358060000000  0.4355230000000  0.4918330000000 1.0
C      1  0.5586510000000  0.5129540000000  0.4958240000000 1.0
C      1  0.5064260000000  0.5623530000000  0.4951980000000 1.0
C      1  0.5683990000000  0.4841480000000  0.4943420000000 1.0
C      1  0.5368130000000  0.5614340000000  0.4932480000000 1.0
C      1  0.4540320000000  0.5517980000000  0.4959000000000 1.0
C      1  0.4326570000000  0.4695700000000  0.4921440000000 1.0
C      1  0.5067930000000  0.4288930000000  0.4942940000000 1.0
C      1  0.4659440000000  0.5673460000000  0.5190300000000 1.0
C      1  0.4187780000000  0.4849320000000  0.5127390000000 1.0
C      1  0.4903860000000  0.4276910000000  0.5197460000000 1.0
C      1  0.5645260000000  0.4668550000000  0.5170900000000 1.0
C      1  0.5540560000000  0.5544930000000  0.5170170000000 1.0
C      1  0.4959280000000  0.4381720000000  0.4684270000000 1.0
C      1  0.5571120000000  0.4755720000000  0.4681000000000 1.0
C      1  0.5399260000000  0.5469300000000  0.4669230000000 1.0
C      1  0.4674980000000  0.5515400000000  0.4686860000000 1.0
C      1  0.4392910000000  0.4840280000000  0.4665820000000 1.0
C      1  0.4950060000000  0.5608430000000  0.4678490000000 1.0
C      1  0.4431660000000  0.5124610000000  0.4703880000000 1.0
C      1  0.4686890000000  0.4476530000000  0.4689970000000 1.0
C      1  0.5410240000000  0.4510640000000  0.4667880000000 1.0
C      1  0.5561350000000  0.5227840000000  0.4680350000000 1.0
C      1  0.5313090000000  0.4731630000000  0.5364440000000 1.0
C      1  0.5376870000000  0.5251570000000  0.5383950000000 1.0
C      1  0.4903280000000  0.5444180000000  0.5399090000000 1.0
C      1  0.4589460000000  0.5099010000000  0.5417250000000 1.0
C      1  0.4846480000000  0.4621010000000  0.5380200000000 1.0
C      1  0.5323010000000  0.4428660000000  0.5380020000000 1.0
C      1  0.5672710000000  0.5251840000000  0.5396700000000 1.0
C      1  0.4983150000000  0.5729670000000  0.5405360000000 1.0
C      1  0.4303210000000  0.5077630000000  0.5421570000000 1.0
C      1  0.4614930000000  0.4437380000000  0.5413860000000 1.0
C      1  0.4925840000000  0.5810670000000  0.5135040000000 1.0
C      1  0.4221050000000  0.5135960000000  0.5150140000000 1.0
C      1  0.4607580000000  0.4324860000000  0.5151380000000 1.0
C      1  0.5514900000000  0.4405980000000  0.5166170000000 1.0
C      1  0.5735060000000  0.5318910000000  0.5126900000000 1.0
C      1  0.5078830000000  0.5238420000000  0.4320280000000 1.0
C      1  0.4792530000000  0.5141730000000  0.4324940000000 1.0
C      1  0.4797710000000  0.4839400000000  0.4324150000000 1.0
C      1  0.5084100000000  0.4747470000000  0.4324680000000 1.0
C      1  0.5259040000000  0.4993140000000  0.4320910000000 1.0
END
