TITL C-9258-7861-292 1.42788444103928e-06 125000 -365.628035789811 0 0 60 (C3) n - 1
REM
REM in /home/bkarasulu/CARBON/AIRSS/Generating-Clusters/EDIP-Nigel-Params/Higher-Symm/Box-15A/Only-C60/SD-CG/HFTN-CG
REM
REM
REM
REM
REM
REM ./C.cell (414f73aa93bd7a1190c7fd0f31ff2f98)
REM
REM compiler GCC version 9.2.1 20190827 (Red Hat 9.2.1-1)
REM options -cpp -mtune=generic -march=x86-64 -g -O0 -fpre-include=/usr/include/finclude/math-vector-fortran.h
REM seed -624404093 -1785598204 1005045392 34239233 163739815 703308630 -115117156 286316327 -984824137 1130420060 1688984580 -1979848288 1964371033 -627078176 -810666048 1121791259 468646740 -208060213 -760935985 1207723192 1064879660 -962051553 -1412930751 827504947 2082791474 1586478072 552245598 -1414415705 -1604467285 362882291 -858612436 1993521321 1897249975
REM
CELL 1.54180   50.00000   50.00000   50.00000   90.00000   90.00000   90.00000
LATT -1
SFAC C  
C      1  0.5435720000000  0.4707800000000  0.4960180000000 1.0
C      1  0.5435700000000  0.5180580000000  0.4766810000000 1.0
C      1  0.5435740000000  0.5111650000000  0.5272930000000 1.0
C      1  0.4836560000000  0.5443310000000  0.4582070000000 1.0
C      1  0.4836630000000  0.5140290000000  0.5592900000000 1.0
C      1  0.4836590000000  0.4416400000000  0.4825060000000 1.0
C      1  0.5288530000000  0.5188720000000  0.4355490000000 1.0
C      1  0.5288610000000  0.5463790000000  0.5485660000000 1.0
C      1  0.5288600000000  0.4347500000000  0.5158790000000 1.0
C      1  0.5145930000000  0.4794310000000  0.4876860000000 1.0
C      1  0.5145920000000  0.5209480000000  0.4883430000000 1.0
C      1  0.5145950000000  0.4996210000000  0.5239690000000 1.0
C      1  0.4923840000000  0.5169690000000  0.4674850000000 1.0
C      1  0.4923890000000  0.5196740000000  0.5309540000000 1.0
C      1  0.4923870000000  0.4633560000000  0.5015620000000 1.0
C      1  0.5142860000000  0.4744930000000  0.5424920000000 1.0
C      1  0.5142800000000  0.4759540000000  0.4566630000000 1.0
C      1  0.5142820000000  0.5495540000000  0.5008420000000 1.0
C      1  0.5083430000000  0.5080500000000  0.5762060000000 1.0
C      1  0.5083370000000  0.4299790000000  0.4688680000000 1.0
C      1  0.5083340000000  0.5619720000000  0.4549250000000 1.0
C      1  0.5014640000000  0.4808730000000  0.5682970000000 1.0
C      1  0.5014570000000  0.4504160000000  0.4492870000000 1.0
C      1  0.5014570000000  0.5687100000000  0.4824150000000 1.0
C      1  0.4636060000000  0.4751650000000  0.4623330000000 1.0
C      1  0.4636070000000  0.5450390000000  0.4973300000000 1.0
C      1  0.4636110000000  0.4797940000000  0.5403440000000 1.0
C      1  0.4474660000000  0.5192810000000  0.4601060000000 1.0
C      1  0.4474710000000  0.5249100000000  0.5366510000000 1.0
C      1  0.4474700000000  0.4558060000000  0.5032530000000 1.0
C      1  0.5501630000000  0.5424790000000  0.5279060000000 1.0
C      1  0.5501640000000  0.4545910000000  0.5228290000000 1.0
C      1  0.5501590000000  0.5029320000000  0.4492550000000 1.0
C      1  0.4580790000000  0.4327980000000  0.5178860000000 1.0
C      1  0.4580720000000  0.5181120000000  0.4328630000000 1.0
C      1  0.4580790000000  0.5490880000000  0.5492590000000 1.0
C      1  0.5550920000000  0.4963110000000  0.5508930000000 1.0
C      1  0.5550870000000  0.4577680000000  0.4713530000000 1.0
C      1  0.5550860000000  0.5459230000000  0.4777430000000 1.0
C      1  0.4480940000000  0.5451280000000  0.4729480000000 1.0
C      1  0.4481000000000  0.5008660000000  0.5526140000000 1.0
C      1  0.4480950000000  0.4540040000000  0.4744490000000 1.0
C      1  0.4660050000000  0.4784430000000  0.5101900000000 1.0
C      1  0.4660020000000  0.5019550000000  0.4762400000000 1.0
C      1  0.4660050000000  0.5196000000000  0.5135770000000 1.0
C      1  0.5433070000000  0.4691990000000  0.5479980000000 1.0
C      1  0.5433000000000  0.4738310000000  0.4493220000000 1.0
C      1  0.5433030000000  0.5569710000000  0.5026710000000 1.0
C      1  0.5340730000000  0.5459910000000  0.4508330000000 1.0
C      1  0.5340820000000  0.5195830000000  0.5644080000000 1.0
C      1  0.5340780000000  0.4344280000000  0.4847510000000 1.0
C      1  0.5040120000000  0.5027180000000  0.4439320000000 1.0
C      1  0.5040170000000  0.5471980000000  0.5303870000000 1.0
C      1  0.5040180000000  0.4500850000000  0.5256800000000 1.0
C      1  0.4804550000000  0.5648930000000  0.5378680000000 1.0
C      1  0.4804570000000  0.4347600000000  0.5372670000000 1.0
C      1  0.4804490000000  0.5003470000000  0.4248690000000 1.0
C      1  0.4624990000000  0.4531370000000  0.5507680000000 1.0
C      1  0.4624910000000  0.4794660000000  0.4340360000000 1.0
C      1  0.4624950000000  0.5673950000000  0.5152040000000 1.0
END
