TITL C-9261-551-233 8.47148361340045e-06 125000 -369.519785769608 0 0 60 (C1) n - 1
REM
REM in /home/bkarasulu/CARBON/AIRSS/Generating-Clusters/EDIP-Nigel-Params/Higher-Symm/Box-15A/Only-C60/SD-CG/HFTN-CG
REM
REM
REM
REM
REM
REM ./C.cell (414f73aa93bd7a1190c7fd0f31ff2f98)
REM
REM compiler GCC version 9.2.1 20190827 (Red Hat 9.2.1-1)
REM options -cpp -mtune=generic -march=x86-64 -g -O0 -fpre-include=/usr/include/finclude/math-vector-fortran.h
REM seed 1668424509 -2022016141 -1955523149 -1956174067 195013619 870648585 -2028787912 1571836070 -229205581 2031059671 748931197 -402140113 -240208297 -1344462272 -1171874598 1160421539 2090859830 1709187883 -1647293600 -718488833 163396458 -1825713594 -881320015 92508734 421147872 1645480640 404590196 -1000053836 1893584292 -260573751 510397579 -1596645880 -1600118986
REM
CELL 1.54180   50.00000   50.00000   50.00000   90.00000   90.00000   90.00000
LATT -1
SFAC C  
C      1  0.4746920000000  0.5473650000000  0.4362440000000 1.0
C      1  0.4760660000000  0.4177890000000  0.4917760000000 1.0
C      1  0.4739020000000  0.5322850000000  0.5731770000000 1.0
C      1  0.5256390000000  0.5467230000000  0.4347770000000 1.0
C      1  0.5264930000000  0.4197720000000  0.4899830000000 1.0
C      1  0.5239180000000  0.5328730000000  0.5734750000000 1.0
C      1  0.5154120000000  0.4411660000000  0.5057100000000 1.0
C      1  0.5134700000000  0.5351880000000  0.5466820000000 1.0
C      1  0.5149740000000  0.5225880000000  0.4463470000000 1.0
C      1  0.4862700000000  0.4405580000000  0.5062990000000 1.0
C      1  0.4845470000000  0.5346750000000  0.5464350000000 1.0
C      1  0.4855610000000  0.5228190000000  0.4463830000000 1.0
C      1  0.4444050000000  0.4926080000000  0.5546450000000 1.0
C      1  0.4487700000000  0.5511580000000  0.4807630000000 1.0
C      1  0.4448200000000  0.4504300000000  0.4667690000000 1.0
C      1  0.5541060000000  0.4941130000000  0.5548490000000 1.0
C      1  0.5560920000000  0.5515880000000  0.4772910000000 1.0
C      1  0.5516500000000  0.4559300000000  0.4637810000000 1.0
C      1  0.4853820000000  0.4816360000000  0.4742750000000 1.0
C      1  0.4841940000000  0.4861850000000  0.5252220000000 1.0
C      1  0.4834510000000  0.5279600000000  0.4976070000000 1.0
C      1  0.5168150000000  0.4831610000000  0.4756170000000 1.0
C      1  0.5151450000000  0.4869790000000  0.5256890000000 1.0
C      1  0.5147470000000  0.5298030000000  0.4977960000000 1.0
C      1  0.4737580000000  0.5116200000000  0.4719110000000 1.0
C      1  0.4741350000000  0.4678600000000  0.5003230000000 1.0
C      1  0.4735070000000  0.5158810000000  0.5251690000000 1.0
C      1  0.5265610000000  0.5136880000000  0.4731670000000 1.0
C      1  0.5267740000000  0.4689080000000  0.5015480000000 1.0
C      1  0.5250350000000  0.5171640000000  0.5252460000000 1.0
C      1  0.5140650000000  0.4640960000000  0.5565680000000 1.0
C      1  0.5173500000000  0.5679350000000  0.5027570000000 1.0
C      1  0.5107830000000  0.4688010000000  0.4405850000000 1.0
C      1  0.4854260000000  0.4636840000000  0.5563590000000 1.0
C      1  0.4891760000000  0.5654720000000  0.5034510000000 1.0
C      1  0.4826560000000  0.4662010000000  0.4390840000000 1.0
C      1  0.5737420000000  0.4831190000000  0.4942100000000 1.0
C      1  0.5755550000000  0.5227450000000  0.5197860000000 1.0
C      1  0.5738160000000  0.5107020000000  0.4945490000000 1.0
C      1  0.4272020000000  0.4829430000000  0.4936050000000 1.0
C      1  0.4233850000000  0.5217860000000  0.5193260000000 1.0
C      1  0.4264020000000  0.5104690000000  0.4938290000000 1.0
C      1  0.4451670000000  0.5118530000000  0.5340130000000 1.0
C      1  0.4452990000000  0.5236600000000  0.4756730000000 1.0
C      1  0.4453530000000  0.4626230000000  0.4919090000000 1.0
C      1  0.5534570000000  0.5131200000000  0.5340040000000 1.0
C      1  0.5559030000000  0.5234640000000  0.4750930000000 1.0
C      1  0.5544450000000  0.4642270000000  0.4902770000000 1.0
C      1  0.5149670000000  0.4256270000000  0.4643090000000 1.0
C      1  0.5142870000000  0.5067450000000  0.5804450000000 1.0
C      1  0.5161100000000  0.5660650000000  0.4536840000000 1.0
C      1  0.4850960000000  0.4242840000000  0.4652920000000 1.0
C      1  0.4839750000000  0.5063470000000  0.5802760000000 1.0
C      1  0.4860510000000  0.5662620000000  0.4545950000000 1.0
C      1  0.5279820000000  0.4483500000000  0.4508240000000 1.0
C      1  0.5298540000000  0.4855090000000  0.5671960000000 1.0
C      1  0.5317670000000  0.5657430000000  0.4784730000000 1.0
C      1  0.4692250000000  0.4459040000000  0.4536670000000 1.0
C      1  0.4691200000000  0.4848490000000  0.5666530000000 1.0
C      1  0.4720940000000  0.5669440000000  0.4805530000000 1.0
END
