TITL C-9270-2362-300 -3.01186237675645e-06 125000 -363.955104954946 0 0 60 (Ci) n - 1
REM
REM in /home/bkarasulu/CARBON/AIRSS/Generating-Clusters/EDIP-Nigel-Params/Higher-Symm/Box-15A/Only-C60/SD-CG/HFTN-CG
REM
REM
REM
REM
REM
REM ./C.cell (414f73aa93bd7a1190c7fd0f31ff2f98)
REM
REM compiler GCC version 9.2.1 20190827 (Red Hat 9.2.1-1)
REM options -cpp -mtune=generic -march=x86-64 -g -O0 -fpre-include=/usr/include/finclude/math-vector-fortran.h
REM seed 2045182987 -1856010523 -1225613513 1001855063 107967318 1145844749 -206574458 134850771 -1957584475 -814430026 1136715732 -1493326617 1085254761 -651749484 1732191062 1883206809 906278620 -1912416673 843560444 983404064 309975574 1320615650 493376330 1973890753 1007727634 1383944941 -2143672433 810526864 299990083 -1693396033 90128123 934661666 1365520218
REM
CELL 1.54180   50.00000   50.00000   50.00000   90.00000   90.00000   90.00000
LATT -1
SFAC C  
C      1  0.5048830000000  0.5593870000000  0.5049670000000 1.0
C      1  0.5476140000000  0.5246100000000  0.4948380000000 1.0
C      1  0.5427410000000  0.4679520000000  0.5056240000000 1.0
C      1  0.4951170000000  0.4406130000000  0.4950330000000 1.0
C      1  0.4523860000000  0.4753900000000  0.5051620000000 1.0
C      1  0.4572590000000  0.5320480000000  0.4943760000000 1.0
C      1  0.4382130000000  0.5409100000000  0.5392570000000 1.0
C      1  0.5048180000000  0.5772170000000  0.4579800000000 1.0
C      1  0.5661600000000  0.5329660000000  0.5396730000000 1.0
C      1  0.5617870000000  0.4590900000000  0.4607430000000 1.0
C      1  0.4951820000000  0.4227830000000  0.5420200000000 1.0
C      1  0.4338400000000  0.4670340000000  0.4603270000000 1.0
C      1  0.5301150000000  0.4948470000000  0.4414850000000 1.0
C      1  0.5094210000000  0.4689300000000  0.5578510000000 1.0
C      1  0.4786240000000  0.4791970000000  0.4419190000000 1.0
C      1  0.4698850000000  0.5051530000000  0.5585150000000 1.0
C      1  0.4905790000000  0.5310700000000  0.4421490000000 1.0
C      1  0.5213760000000  0.5208030000000  0.5580810000000 1.0
C      1  0.4880590000000  0.4980600000000  0.4810380000000 1.0
C      1  0.4896350000000  0.5218590000000  0.5232420000000 1.0
C      1  0.5056280000000  0.5214870000000  0.4818120000000 1.0
C      1  0.5119410000000  0.5019400000000  0.5189620000000 1.0
C      1  0.5103650000000  0.4781410000000  0.4767580000000 1.0
C      1  0.4943720000000  0.4785130000000  0.5181880000000 1.0
C      1  0.4238900000000  0.5019420000000  0.4736880000000 1.0
C      1  0.4606880000000  0.5695790000000  0.5266630000000 1.0
C      1  0.5401650000000  0.5677710000000  0.4704640000000 1.0
C      1  0.5761100000000  0.4980580000000  0.5263120000000 1.0
C      1  0.5393120000000  0.4304210000000  0.4733370000000 1.0
C      1  0.4598350000000  0.4322290000000  0.5295360000000 1.0
C      1  0.5578260000000  0.4478590000000  0.4880780000000 1.0
C      1  0.4827770000000  0.4202800000000  0.5151020000000 1.0
C      1  0.4271090000000  0.4763320000000  0.4877960000000 1.0
C      1  0.4421740000000  0.5521410000000  0.5119220000000 1.0
C      1  0.5172230000000  0.5797200000000  0.4848980000000 1.0
C      1  0.5728910000000  0.5236680000000  0.5122040000000 1.0
C      1  0.4562260000000  0.4609830000000  0.5322910000000 1.0
C      1  0.4465200000000  0.5191190000000  0.4686630000000 1.0
C      1  0.4876720000000  0.5601740000000  0.5316110000000 1.0
C      1  0.5437740000000  0.5390170000000  0.4677090000000 1.0
C      1  0.5534800000000  0.4808810000000  0.5313370000000 1.0
C      1  0.5123280000000  0.4398260000000  0.4683890000000 1.0
C      1  0.4618550000000  0.4600810000000  0.4577950000000 1.0
C      1  0.4469990000000  0.5133990000000  0.5405940000000 1.0
C      1  0.4847950000000  0.5564300000000  0.4573350000000 1.0
C      1  0.5381450000000  0.5399190000000  0.5422050000000 1.0
C      1  0.5530010000000  0.4866010000000  0.4594060000000 1.0
C      1  0.5152050000000  0.4435700000000  0.5426650000000 1.0
C      1  0.4861250000000  0.5440690000000  0.4848530000000 1.0
C      1  0.5282880000000  0.5392740000000  0.5138350000000 1.0
C      1  0.5380970000000  0.4912430000000  0.4851370000000 1.0
C      1  0.5138750000000  0.4559310000000  0.5151470000000 1.0
C      1  0.4717120000000  0.4607260000000  0.4861650000000 1.0
C      1  0.4619030000000  0.5087570000000  0.5148630000000 1.0
C      1  0.4913820000000  0.5282720000000  0.5535270000000 1.0
C      1  0.5203240000000  0.5228420000000  0.4526000000000 1.0
C      1  0.5269100000000  0.4925860000000  0.5452240000000 1.0
C      1  0.5086180000000  0.4717280000000  0.4464730000000 1.0
C      1  0.4796760000000  0.4771580000000  0.5474000000000 1.0
C      1  0.4730900000000  0.5074140000000  0.4547760000000 1.0
END
