TITL C-9260-5597-64 0.00010636494789796 125000 -367.487350974745 0 0 60 (C5) n - 1
REM
REM in /home/bkarasulu/CARBON/AIRSS/Generating-Clusters/EDIP-Nigel-Params/Higher-Symm/Box-15A/Only-C60/SD-CG/HFTN-CG
REM
REM
REM
REM
REM
REM ./C.cell (414f73aa93bd7a1190c7fd0f31ff2f98)
REM
REM compiler GCC version 9.2.1 20190827 (Red Hat 9.2.1-1)
REM options -cpp -mtune=generic -march=x86-64 -g -O0 -fpre-include=/usr/include/finclude/math-vector-fortran.h
REM seed 1361312967 -682091217 -1360765138 -633369522 1621712113 -562158470 709101235 -414003544 -1239538294 253839693 -107669726 2065189400 -1537843915 1043775004 4223779 -837533708 -1012112191 -378455825 1623738590 264347435 -1098588413 479418047 1387317300 -422297112 1810460268 -747618927 1586615787 600836926 -320385216 892920083 70020475 -1666031720 -1602941257
REM
CELL 1.54180   50.00000   50.00000   50.00000   90.00000   90.00000   90.00000
LATT -1
SFAC C  
C      1  0.4430530000000  0.4941600000000  0.5231320000000 1.0
C      1  0.4768490000000  0.5523730000000  0.5230910000000 1.0
C      1  0.5426560000000  0.5382210000000  0.5230600000000 1.0
C      1  0.5495320000000  0.4712600000000  0.5230810000000 1.0
C      1  0.4879740000000  0.4440290000000  0.5231250000000 1.0
C      1  0.5447340000000  0.4850310000000  0.5649330000000 1.0
C      1  0.4995890000000  0.4528810000000  0.5649710000000 1.0
C      1  0.4550620000000  0.4858820000000  0.5649830000000 1.0
C      1  0.4726880000000  0.5384270000000  0.5649540000000 1.0
C      1  0.5281080000000  0.5379010000000  0.5649230000000 1.0
C      1  0.4761840000000  0.4678100000000  0.5670300000000 1.0
C      1  0.4620280000000  0.5127560000000  0.5670220000000 1.0
C      1  0.5004000000000  0.5401090000000  0.5669900000000 1.0
C      1  0.5382710000000  0.5120670000000  0.5669790000000 1.0
C      1  0.5233050000000  0.4673830000000  0.5670040000000 1.0
C      1  0.5090020000000  0.4484040000000  0.4486240000000 1.0
C      1  0.4537090000000  0.4754540000000  0.4486450000000 1.0
C      1  0.4623490000000  0.5364000000000  0.4486170000000 1.0
C      1  0.5229820000000  0.5470160000000  0.4485800000000 1.0
C      1  0.5518150000000  0.4926310000000  0.4485840000000 1.0
C      1  0.5566440000000  0.5355820000000  0.4750700000000 1.0
C      1  0.5513430000000  0.4571040000000  0.4751020000000 1.0
C      1  0.4750690000000  0.4378950000000  0.4751520000000 1.0
C      1  0.4332290000000  0.5045000000000  0.4751500000000 1.0
C      1  0.4836450000000  0.5648740000000  0.4751000000000 1.0
C      1  0.5214330000000  0.4510070000000  0.4761860000000 1.0
C      1  0.4600270000000  0.4644570000000  0.4762150000000 1.0
C      1  0.4538440000000  0.5270140000000  0.4761950000000 1.0
C      1  0.5114280000000  0.5522260000000  0.4761540000000 1.0
C      1  0.5532010000000  0.5052510000000  0.4761480000000 1.0
C      1  0.4816650000000  0.5173880000000  0.4366490000000 1.0
C      1  0.5108690000000  0.5227600000000  0.4366310000000 1.0
C      1  0.5250030000000  0.4966460000000  0.4366330000000 1.0
C      1  0.5045340000000  0.4751340000000  0.4366520000000 1.0
C      1  0.4777500000000  0.4879530000000  0.4366630000000 1.0
C      1  0.5432450000000  0.5499260000000  0.4967110000000 1.0
C      1  0.5608450000000  0.4742970000000  0.4967300000000 1.0
C      1  0.4943570000000  0.4341870000000  0.4967820000000 1.0
C      1  0.4356650000000  0.4850270000000  0.4967960000000 1.0
C      1  0.4658790000000  0.5565570000000  0.4967520000000 1.0
C      1  0.4987540000000  0.4320260000000  0.5459530000000 1.0
C      1  0.4349690000000  0.4802170000000  0.5459710000000 1.0
C      1  0.4610910000000  0.5557710000000  0.5459280000000 1.0
C      1  0.5410190000000  0.5542750000000  0.5458840000000 1.0
C      1  0.5642960000000  0.4777970000000  0.5458990000000 1.0
C      1  0.5512560000000  0.5462750000000  0.4496080000000 1.0
C      1  0.5598470000000  0.4655120000000  0.4496330000000 1.0
C      1  0.4856920000000  0.4323850000000  0.4496870000000 1.0
C      1  0.4312710000000  0.4926730000000  0.4496950000000 1.0
C      1  0.4717920000000  0.5630610000000  0.4496460000000 1.0
C      1  0.4810350000000  0.4824910000000  0.4891080000000 1.0
C      1  0.4774870000000  0.5126180000000  0.4890990000000 1.0
C      1  0.5050430000000  0.5253010000000  0.4890790000000 1.0
C      1  0.5256210000000  0.5030140000000  0.4890760000000 1.0
C      1  0.5107830000000  0.4765560000000  0.4890940000000 1.0
C      1  0.4915750000000  0.5263330000000  0.5269630000000 1.0
C      1  0.5224420000000  0.5161710000000  0.5269490000000 1.0
C      1  0.5223150000000  0.4836750000000  0.5269620000000 1.0
C      1  0.4913710000000  0.4737540000000  0.5269830000000 1.0
C      1  0.4723730000000  0.5001180000000  0.5269830000000 1.0
END
