TITL C-9268-6400-16 -3.8061790910195e-07 125000 -363.207561667529 0 0 60 (C1) n - 1
REM
REM in /home/bkarasulu/CARBON/AIRSS/Generating-Clusters/EDIP-Nigel-Params/Higher-Symm/Box-15A/Only-C60/SD-CG/HFTN-CG
REM
REM
REM
REM
REM
REM ./C.cell (414f73aa93bd7a1190c7fd0f31ff2f98)
REM
REM compiler GCC version 9.2.1 20190827 (Red Hat 9.2.1-1)
REM options -cpp -mtune=generic -march=x86-64 -g -O0 -fpre-include=/usr/include/finclude/math-vector-fortran.h
REM seed 261573014 -253071763 39337085 -1817479811 -1051071309 -498521960 -1551375675 -1002750408 559928292 -802345105 1461297580 1470453536 1141156376 1790193764 1879965234 -194743974 -1170342738 -2078884561 544392536 -1082205387 215305087 -2007237598 1100441712 -940439937 1908522590 414845318 1322198400 -296806250 -1032846066 349586055 -2128565272 307681984 1979567121
REM
CELL 1.54180   50.00000   50.00000   50.00000   90.00000   90.00000   90.00000
LATT -1
SFAC C  
C      1  0.5506410000000  0.5011720000000  0.4964640000000 1.0
C      1  0.5308800000000  0.5176440000000  0.4427370000000 1.0
C      1  0.4797960000000  0.4849050000000  0.5742870000000 1.0
C      1  0.5377020000000  0.4735640000000  0.4642680000000 1.0
C      1  0.5222790000000  0.5285570000000  0.5594100000000 1.0
C      1  0.4776170000000  0.5070770000000  0.5563410000000 1.0
C      1  0.5336700000000  0.4447170000000  0.5394540000000 1.0
C      1  0.4895670000000  0.4570450000000  0.4432610000000 1.0
C      1  0.5621010000000  0.5097770000000  0.5425270000000 1.0
C      1  0.4849050000000  0.5563040000000  0.5405750000000 1.0
C      1  0.4939000000000  0.5320860000000  0.5570990000000 1.0
C      1  0.4607840000000  0.4432800000000  0.4777760000000 1.0
C      1  0.5446760000000  0.4396060000000  0.5035250000000 1.0
C      1  0.4378450000000  0.4562400000000  0.5417210000000 1.0
C      1  0.4438040000000  0.5075910000000  0.4375100000000 1.0
C      1  0.4597330000000  0.4399550000000  0.5444040000000 1.0
C      1  0.4632780000000  0.5422770000000  0.4640890000000 1.0
C      1  0.5079340000000  0.4357280000000  0.5278260000000 1.0
C      1  0.4845840000000  0.4362530000000  0.4636450000000 1.0
C      1  0.4918750000000  0.5226830000000  0.5001260000000 1.0
C      1  0.5160940000000  0.4386550000000  0.4994970000000 1.0
C      1  0.4656980000000  0.4783040000000  0.4440020000000 1.0
C      1  0.5129190000000  0.5643180000000  0.4560760000000 1.0
C      1  0.5269640000000  0.5400870000000  0.4620050000000 1.0
C      1  0.4912560000000  0.5737700000000  0.4935260000000 1.0
C      1  0.5627450000000  0.5162300000000  0.4741150000000 1.0
C      1  0.5172240000000  0.4818880000000  0.4906420000000 1.0
C      1  0.4351090000000  0.4838650000000  0.5373720000000 1.0
C      1  0.5169810000000  0.4692060000000  0.4402840000000 1.0
C      1  0.5054240000000  0.4245680000000  0.4780080000000 1.0
C      1  0.4855470000000  0.4582690000000  0.5666360000000 1.0
C      1  0.4883960000000  0.5465520000000  0.4801760000000 1.0
C      1  0.5585230000000  0.4586110000000  0.4868050000000 1.0
C      1  0.4853090000000  0.5013180000000  0.4524250000000 1.0
C      1  0.4395760000000  0.5294340000000  0.4758770000000 1.0
C      1  0.4381840000000  0.4919580000000  0.5086790000000 1.0
C      1  0.5088250000000  0.5852750000000  0.4744040000000 1.0
C      1  0.5665550000000  0.4810530000000  0.5331880000000 1.0
C      1  0.5314200000000  0.5668550000000  0.5177780000000 1.0
C      1  0.4247340000000  0.5140530000000  0.4571090000000 1.0
C      1  0.4675930000000  0.5237690000000  0.5165440000000 1.0
C      1  0.5162630000000  0.5163890000000  0.5231730000000 1.0
C      1  0.5168260000000  0.4866850000000  0.5210860000000 1.0
C      1  0.5034880000000  0.5702180000000  0.5202460000000 1.0
C      1  0.4402300000000  0.5224410000000  0.5054030000000 1.0
C      1  0.5464410000000  0.5210120000000  0.5183130000000 1.0
C      1  0.5513100000000  0.4996290000000  0.4525170000000 1.0
C      1  0.5098360000000  0.4980250000000  0.4358880000000 1.0
C      1  0.4893180000000  0.4965370000000  0.4837820000000 1.0
C      1  0.5363230000000  0.4746960000000  0.5406130000000 1.0
C      1  0.4492250000000  0.5012270000000  0.5565090000000 1.0
C      1  0.5705920000000  0.4805520000000  0.5036440000000 1.0
C      1  0.4504200000000  0.4681850000000  0.4678450000000 1.0
C      1  0.4624230000000  0.4788200000000  0.4935750000000 1.0
C      1  0.5514660000000  0.5436670000000  0.4776090000000 1.0
C      1  0.4856430000000  0.4505440000000  0.5390560000000 1.0
C      1  0.5502390000000  0.5487570000000  0.5075390000000 1.0
C      1  0.5398680000000  0.5059150000000  0.5614310000000 1.0
C      1  0.4593590000000  0.5486700000000  0.5273620000000 1.0
C      1  0.4680820000000  0.5235350000000  0.4422200000000 1.0
END
