TITL C-9263-351-89 3.88529462036333e-07 125000 -352.188481312459 0 0 60 (C1) n - 1
REM
REM in /home/bkarasulu/CARBON/AIRSS/Generating-Clusters/EDIP-Nigel-Params/Higher-Symm/Box-15A/Only-C60/SD-CG/HFTN-CG
REM
REM
REM
REM
REM
REM ./C.cell (414f73aa93bd7a1190c7fd0f31ff2f98)
REM
REM compiler GCC version 9.2.1 20190827 (Red Hat 9.2.1-1)
REM options -cpp -mtune=generic -march=x86-64 -g -O0 -fpre-include=/usr/include/finclude/math-vector-fortran.h
REM seed -1550935410 -318260860 1957605957 1505233550 1171674305 693998893 1187051323 -609847445 405008802 1303963270 -769767867 -612796813 181844376 39428353 -1998918858 -968406569 1772466189 1905027249 2086026369 -1511362193 630285107 -44261928 1633610250 -279079923 2032584862 -1121707569 -653822614 -1675026444 -1560541588 -1816864770 -1474673409 1490319761 2007076431
REM
CELL 1.54180   50.00000   50.00000   50.00000   90.00000   90.00000   90.00000
LATT -1
SFAC C  
C      1  0.5099050000000  0.4760360000000  0.6022010000000 1.0
C      1  0.5788270000000  0.4789880000000  0.4442310000000 1.0
C      1  0.4096720000000  0.4739340000000  0.4693270000000 1.0
C      1  0.5159060000000  0.5206460000000  0.3997430000000 1.0
C      1  0.5816090000000  0.5181610000000  0.5558230000000 1.0
C      1  0.4110340000000  0.5231560000000  0.5350430000000 1.0
C      1  0.4890530000000  0.5197590000000  0.3980570000000 1.0
C      1  0.4244470000000  0.5248210000000  0.5583230000000 1.0
C      1  0.5900680000000  0.5259570000000  0.5314990000000 1.0
C      1  0.4831420000000  0.4781750000000  0.6001790000000 1.0
C      1  0.4175400000000  0.4796610000000  0.4442300000000 1.0
C      1  0.5902830000000  0.4782590000000  0.4685790000000 1.0
C      1  0.5154640000000  0.5312990000000  0.5510930000000 1.0
C      1  0.5251600000000  0.5367170000000  0.4675700000000 1.0
C      1  0.4642630000000  0.5352120000000  0.4908140000000 1.0
C      1  0.5115580000000  0.4645450000000  0.4589310000000 1.0
C      1  0.5263380000000  0.4614960000000  0.5354220000000 1.0
C      1  0.4716360000000  0.4657760000000  0.5044040000000 1.0
C      1  0.4831310000000  0.4641980000000  0.4543110000000 1.0
C      1  0.4751010000000  0.4631090000000  0.5328010000000 1.0
C      1  0.5325980000000  0.4660190000000  0.5077640000000 1.0
C      1  0.4916130000000  0.5350620000000  0.5379380000000 1.0
C      1  0.4722450000000  0.5376330000000  0.4632270000000 1.0
C      1  0.5276330000000  0.5358080000000  0.4963080000000 1.0
C      1  0.4668410000000  0.4881450000000  0.4596960000000 1.0
C      1  0.4844150000000  0.4861390000000  0.5484050000000 1.0
C      1  0.5445850000000  0.4884450000000  0.4924700000000 1.0
C      1  0.4711170000000  0.5132910000000  0.5372600000000 1.0
C      1  0.4829940000000  0.5137430000000  0.4498680000000 1.0
C      1  0.5434260000000  0.5147670000000  0.5104460000000 1.0
C      1  0.5323360000000  0.5100820000000  0.5427980000000 1.0
C      1  0.5156990000000  0.5137730000000  0.4518730000000 1.0
C      1  0.4548840000000  0.5126340000000  0.5079500000000 1.0
C      1  0.5304870000000  0.4878940000000  0.4621140000000 1.0
C      1  0.5165050000000  0.4842790000000  0.5508660000000 1.0
C      1  0.4555580000000  0.4862170000000  0.4905180000000 1.0
C      1  0.4435900000000  0.4862870000000  0.4431030000000 1.0
C      1  0.4746010000000  0.4827210000000  0.5750810000000 1.0
C      1  0.5723340000000  0.4826750000000  0.4881470000000 1.0
C      1  0.4508470000000  0.5201800000000  0.5562970000000 1.0
C      1  0.4772210000000  0.5165330000000  0.4219830000000 1.0
C      1  0.5704440000000  0.5239840000000  0.5131690000000 1.0
C      1  0.5559350000000  0.5109950000000  0.5589020000000 1.0
C      1  0.5247080000000  0.5178440000000  0.4250110000000 1.0
C      1  0.4273990000000  0.5174210000000  0.5144610000000 1.0
C      1  0.5523450000000  0.4835520000000  0.4441470000000 1.0
C      1  0.5221320000000  0.4791100000000  0.5784390000000 1.0
C      1  0.4284860000000  0.4770050000000  0.4882850000000 1.0
C      1  0.4719480000000  0.4370900000000  0.4972440000000 1.0
C      1  0.5147860000000  0.4278690000000  0.5213680000000 1.0
C      1  0.5149570000000  0.4379350000000  0.4708710000000 1.0
C      1  0.4718360000000  0.5614390000000  0.5005460000000 1.0
C      1  0.5140870000000  0.5718430000000  0.4747940000000 1.0
C      1  0.5125370000000  0.5767930000000  0.5228760000000 1.0
C      1  0.5268410000000  0.5653440000000  0.5012080000000 1.0
C      1  0.4850240000000  0.5711170000000  0.4752700000000 1.0
C      1  0.4893070000000  0.5606700000000  0.5244140000000 1.0
C      1  0.5292760000000  0.4389550000000  0.4975120000000 1.0
C      1  0.4860410000000  0.4281600000000  0.5222290000000 1.0
C      1  0.4862420000000  0.4306420000000  0.4725630000000 1.0
END
