TITL C-9259-5960-198 -3.99857253829124e-07 125000 -373.22864260529 0 0 60 (C1) n - 1
REM
REM in /home/bkarasulu/CARBON/AIRSS/Generating-Clusters/EDIP-Nigel-Params/Higher-Symm/Box-15A/Only-C60/SD-CG/HFTN-CG
REM
REM
REM
REM
REM
REM ./C.cell (414f73aa93bd7a1190c7fd0f31ff2f98)
REM
REM compiler GCC version 9.2.1 20190827 (Red Hat 9.2.1-1)
REM options -cpp -mtune=generic -march=x86-64 -g -O0 -fpre-include=/usr/include/finclude/math-vector-fortran.h
REM seed -422754249 -56462364 1462882238 364517911 1076783826 1921039100 66442857 -292887014 -645522908 -446960667 1246725556 2084354013 980736157 -1123265946 -154729088 -1864315271 284689797 2080257440 716133296 -1841317552 -785056776 -1890170427 -401128071 71659817 -1986654641 -1059874997 1175231980 1101548171 -1641342748 2017168202 1415028584 836948863 -182319993
REM
CELL 1.54180   50.00000   50.00000   50.00000   90.00000   90.00000   90.00000
LATT -1
SFAC C  
C      1  0.4785960000000  0.4573580000000  0.5602670000000 1.0
C      1  0.5583330000000  0.4625430000000  0.4655770000000 1.0
C      1  0.4649070000000  0.5545210000000  0.4719650000000 1.0
C      1  0.4651060000000  0.5343820000000  0.4532130000000 1.0
C      1  0.5357070000000  0.5345670000000  0.5622360000000 1.0
C      1  0.5216800000000  0.4525640000000  0.4372820000000 1.0
C      1  0.5511520000000  0.5379600000000  0.5396640000000 1.0
C      1  0.4411930000000  0.5214990000000  0.4474960000000 1.0
C      1  0.4455240000000  0.4704260000000  0.5296230000000 1.0
C      1  0.4658980000000  0.4529900000000  0.5361190000000 1.0
C      1  0.5360610000000  0.4468800000000  0.4603640000000 1.0
C      1  0.5469670000000  0.5613220000000  0.5254070000000 1.0
C      1  0.5367470000000  0.4658580000000  0.5639420000000 1.0
C      1  0.4450930000000  0.4609180000000  0.4577750000000 1.0
C      1  0.5337970000000  0.5615730000000  0.4663310000000 1.0
C      1  0.5369830000000  0.5387710000000  0.4510400000000 1.0
C      1  0.4763570000000  0.5400280000000  0.5584070000000 1.0
C      1  0.4606130000000  0.4660940000000  0.4354090000000 1.0
C      1  0.4454720000000  0.5309440000000  0.5237630000000 1.0
C      1  0.5602230000000  0.5240930000000  0.4548750000000 1.0
C      1  0.5472580000000  0.4676390000000  0.5384670000000 1.0
C      1  0.5471440000000  0.4450770000000  0.5222680000000 1.0
C      1  0.4521570000000  0.4400770000000  0.4745000000000 1.0
C      1  0.4659870000000  0.5464700000000  0.5336820000000 1.0
C      1  0.5269970000000  0.4311660000000  0.5093130000000 1.0
C      1  0.5152560000000  0.5226780000000  0.4409100000000 1.0
C      1  0.4303750000000  0.5134510000000  0.5086340000000 1.0
C      1  0.5209940000000  0.5771000000000  0.4853310000000 1.0
C      1  0.4815850000000  0.5644950000000  0.5175190000000 1.0
C      1  0.4739890000000  0.4311050000000  0.4888970000000 1.0
C      1  0.5188350000000  0.4777360000000  0.5812620000000 1.0
C      1  0.4811870000000  0.4801240000000  0.4233210000000 1.0
C      1  0.4894100000000  0.5213500000000  0.5740740000000 1.0
C      1  0.4270630000000  0.4797540000000  0.4702180000000 1.0
C      1  0.5660650000000  0.4877540000000  0.5295370000000 1.0
C      1  0.5705520000000  0.5103430000000  0.4766730000000 1.0
C      1  0.4802560000000  0.4371320000000  0.5166550000000 1.0
C      1  0.4868720000000  0.5280860000000  0.4351710000000 1.0
C      1  0.5616800000000  0.5162820000000  0.5238030000000 1.0
C      1  0.4770710000000  0.5715590000000  0.4897270000000 1.0
C      1  0.5248700000000  0.5735540000000  0.5138930000000 1.0
C      1  0.5204390000000  0.4346230000000  0.4812980000000 1.0
C      1  0.4903450000000  0.4770090000000  0.5758780000000 1.0
C      1  0.5092450000000  0.4759350000000  0.4288070000000 1.0
C      1  0.5179180000000  0.5221070000000  0.5792500000000 1.0
C      1  0.5718950000000  0.4816850000000  0.4803150000000 1.0
C      1  0.4279130000000  0.4850570000000  0.5142020000000 1.0
C      1  0.4240490000000  0.5082630000000  0.4649000000000 1.0
C      1  0.4754440000000  0.4992780000000  0.5844830000000 1.0
C      1  0.5238000000000  0.4996430000000  0.4274530000000 1.0
C      1  0.5781010000000  0.4760890000000  0.5069300000000 1.0
C      1  0.4963190000000  0.5883790000000  0.4782980000000 1.0
C      1  0.4771190000000  0.5073920000000  0.4187650000000 1.0
C      1  0.5749160000000  0.5242410000000  0.5004380000000 1.0
C      1  0.4150850000000  0.5231350000000  0.4870790000000 1.0
C      1  0.4145670000000  0.4708740000000  0.4939720000000 1.0
C      1  0.5044470000000  0.4256560000000  0.5249150000000 1.0
C      1  0.4961020000000  0.4228400000000  0.4740310000000 1.0
C      1  0.5024030000000  0.5788070000000  0.5299390000000 1.0
C      1  0.5278830000000  0.5007660000000  0.5944360000000 1.0
END
