TITL C-9256-7861-34 -0.00022946775338371 125000 -356.211394682271 0 0 60 (C1) n - 1
REM
REM in /home/bkarasulu/CARBON/AIRSS/Generating-Clusters/EDIP-Nigel-Params/Higher-Symm/Box-15A/Only-C60/SD-CG/HFTN-CG
REM
REM
REM
REM
REM
REM ./C.cell (414f73aa93bd7a1190c7fd0f31ff2f98)
REM
REM compiler GCC version 9.2.1 20190827 (Red Hat 9.2.1-1)
REM options -cpp -mtune=generic -march=x86-64 -g -O0 -fpre-include=/usr/include/finclude/math-vector-fortran.h
REM seed 1306229102 2036054484 1120863027 1279886222 690771788 -987809581 -2036110436 -2110585200 -532129797 -1250849898 494482062 -1897424809 304465124 558362886 -1960822431 -687930715 363115630 1852810611 581736348 120476364 -1913100887 -96618770 -255114318 155539364 -1579817058 -376912329 -159984549 917479670 -1192293699 -319989257 2003239491 377748679 -970814239
REM
CELL 1.54180   50.00000   50.00000   50.00000   90.00000   90.00000   90.00000
LATT -1
SFAC C  
C      1  0.5003460000000  0.5373440000000  0.5282810000000 1.0
C      1  0.5277220000000  0.5402550000000  0.4758850000000 1.0
C      1  0.4568670000000  0.5497910000000  0.4856350000000 1.0
C      1  0.4324240000000  0.4652480000000  0.5169440000000 1.0
C      1  0.5495570000000  0.4647860000000  0.5488870000000 1.0
C      1  0.5192410000000  0.4646870000000  0.4385180000000 1.0
C      1  0.4482930000000  0.5354300000000  0.4615950000000 1.0
C      1  0.4904410000000  0.5337500000000  0.5557520000000 1.0
C      1  0.5552680000000  0.5332160000000  0.4805130000000 1.0
C      1  0.5275050000000  0.4626810000000  0.4680840000000 1.0
C      1  0.4568940000000  0.4653330000000  0.4982600000000 1.0
C      1  0.5214920000000  0.4675090000000  0.5360370000000 1.0
C      1  0.4872630000000  0.5063620000000  0.4242710000000 1.0
C      1  0.4413310000000  0.5084740000000  0.5515950000000 1.0
C      1  0.5782540000000  0.5077230000000  0.5270110000000 1.0
C      1  0.5193010000000  0.5624560000000  0.4934500000000 1.0
C      1  0.4823430000000  0.5646400000000  0.4805170000000 1.0
C      1  0.4893820000000  0.5638830000000  0.5185310000000 1.0
C      1  0.4631170000000  0.4935160000000  0.5610240000000 1.0
C      1  0.5794160000000  0.4940170000000  0.5012990000000 1.0
C      1  0.4653850000000  0.4945780000000  0.4380020000000 1.0
C      1  0.5657650000000  0.5506240000000  0.5004230000000 1.0
C      1  0.4639430000000  0.5466340000000  0.4406270000000 1.0
C      1  0.4665370000000  0.5487920000000  0.5587920000000 1.0
C      1  0.4345230000000  0.4911090000000  0.4796560000000 1.0
C      1  0.5147630000000  0.4904490000000  0.5665290000000 1.0
C      1  0.5535110000000  0.4893050000000  0.4568370000000 1.0
C      1  0.5812890000000  0.4662420000000  0.5060710000000 1.0
C      1  0.4666850000000  0.4667500000000  0.4358390000000 1.0
C      1  0.4576340000000  0.4660950000000  0.5621350000000 1.0
C      1  0.4626030000000  0.5602510000000  0.5332540000000 1.0
C      1  0.5419590000000  0.5601240000000  0.5130570000000 1.0
C      1  0.4884720000000  0.5519560000000  0.4541930000000 1.0
C      1  0.4629350000000  0.4421770000000  0.4826970000000 1.0
C      1  0.5093970000000  0.4420860000000  0.5321310000000 1.0
C      1  0.5278700000000  0.4350190000000  0.4755240000000 1.0
C      1  0.5066310000000  0.5282370000000  0.4590910000000 1.0
C      1  0.4523260000000  0.5395690000000  0.5137190000000 1.0
C      1  0.5304150000000  0.5371650000000  0.5281970000000 1.0
C      1  0.5093090000000  0.4796520000000  0.4872710000000 1.0
C      1  0.4741930000000  0.4921630000000  0.4990710000000 1.0
C      1  0.5226900000000  0.4863950000000  0.5129390000000 1.0
C      1  0.4898620000000  0.5050930000000  0.5613360000000 1.0
C      1  0.5637450000000  0.5054250000000  0.4784200000000 1.0
C      1  0.4534560000000  0.5065540000000  0.4631380000000 1.0
C      1  0.4824400000000  0.4245270000000  0.4781580000000 1.0
C      1  0.5090590000000  0.4212880000000  0.5154770000000 1.0
C      1  0.5079380000000  0.4202830000000  0.4879420000000 1.0
C      1  0.4926570000000  0.4606630000000  0.4308080000000 1.0
C      1  0.4376860000000  0.4615270000000  0.5441840000000 1.0
C      1  0.5713040000000  0.4624520000000  0.5311940000000 1.0
C      1  0.4321960000000  0.5160760000000  0.5252380000000 1.0
C      1  0.5558210000000  0.5136610000000  0.5464490000000 1.0
C      1  0.5132320000000  0.5145590000000  0.4329820000000 1.0
C      1  0.4913850000000  0.5033470000000  0.4727090000000 1.0
C      1  0.4710640000000  0.5125470000000  0.5223700000000 1.0
C      1  0.5412590000000  0.5103240000000  0.5151710000000 1.0
C      1  0.4236470000000  0.4927220000000  0.5072090000000 1.0
C      1  0.5450030000000  0.4910940000000  0.5639250000000 1.0
C      1  0.5329540000000  0.4913850000000  0.4351430000000 1.0
END
