TITL C-9269-7444-138 -7.14778835955767e-07 125000 -357.322295654864 0 0 60 (C1) n - 1
REM
REM in /home/bkarasulu/CARBON/AIRSS/Generating-Clusters/EDIP-Nigel-Params/Higher-Symm/Box-15A/Only-C60/SD-CG/HFTN-CG
REM
REM
REM
REM
REM
REM ./C.cell (414f73aa93bd7a1190c7fd0f31ff2f98)
REM
REM compiler GCC version 9.2.1 20190827 (Red Hat 9.2.1-1)
REM options -cpp -mtune=generic -march=x86-64 -g -O0 -fpre-include=/usr/include/finclude/math-vector-fortran.h
REM seed -1372567894 -1402071378 -72173631 -39039197 647968662 1984230151 2120917766 -1175968536 -1396241091 1679614518 -109249777 1419378751 -1983889329 1262858774 541824332 -1471497842 -906356593 521297531 1564177084 1393663066 76528832 -309908279 -1811547406 -849276616 -182699952 -550132899 1532298281 -1418588563 610042814 -177858300 -1303839781 -912795692 -662820244
REM
CELL 1.54180   50.00000   50.00000   50.00000   90.00000   90.00000   90.00000
LATT -1
SFAC C  
C      1  0.4762700000000  0.4855340000000  0.5330980000000 1.0
C      1  0.4705200000000  0.4577230000000  0.5197300000000 1.0
C      1  0.4723800000000  0.4725950000000  0.4781800000000 1.0
C      1  0.4697660000000  0.4910860000000  0.4538700000000 1.0
C      1  0.4756820000000  0.5293870000000  0.4660160000000 1.0
C      1  0.4554360000000  0.5520960000000  0.5124990000000 1.0
C      1  0.4579080000000  0.5358080000000  0.5371470000000 1.0
C      1  0.4822060000000  0.4837020000000  0.4265550000000 1.0
C      1  0.4863410000000  0.5405360000000  0.4412560000000 1.0
C      1  0.4786110000000  0.5685670000000  0.5030980000000 1.0
C      1  0.4752720000000  0.5449270000000  0.5594810000000 1.0
C      1  0.4937350000000  0.4863080000000  0.5571990000000 1.0
C      1  0.4791940000000  0.4338800000000  0.5339430000000 1.0
C      1  0.4888370000000  0.4479990000000  0.4734750000000 1.0
C      1  0.5457550000000  0.5379890000000  0.4630520000000 1.0
C      1  0.5461380000000  0.5554700000000  0.5102170000000 1.0
C      1  0.5287640000000  0.5227460000000  0.5472460000000 1.0
C      1  0.5502540000000  0.4724240000000  0.5528660000000 1.0
C      1  0.5258820000000  0.4513680000000  0.5096650000000 1.0
C      1  0.5568640000000  0.4505810000000  0.4614570000000 1.0
C      1  0.5527630000000  0.4828950000000  0.4413630000000 1.0
C      1  0.5094250000000  0.4334060000000  0.4932670000000 1.0
C      1  0.5060730000000  0.4632560000000  0.4268170000000 1.0
C      1  0.5103370000000  0.5243640000000  0.4333500000000 1.0
C      1  0.5021570000000  0.5593650000000  0.4842780000000 1.0
C      1  0.5001500000000  0.5635860000000  0.5534430000000 1.0
C      1  0.5141040000000  0.5062300000000  0.5675400000000 1.0
C      1  0.5057990000000  0.4365880000000  0.5504360000000 1.0
C      1  0.4999630000000  0.5759250000000  0.5250140000000 1.0
C      1  0.4978130000000  0.5324140000000  0.5771530000000 1.0
C      1  0.5058210000000  0.4622010000000  0.5678270000000 1.0
C      1  0.4969800000000  0.4181680000000  0.5168500000000 1.0
C      1  0.5097970000000  0.4529990000000  0.4541880000000 1.0
C      1  0.5070860000000  0.5007640000000  0.4155460000000 1.0
C      1  0.5037960000000  0.5621310000000  0.4550020000000 1.0
C      1  0.5545590000000  0.4855370000000  0.5283810000000 1.0
C      1  0.5414960000000  0.4758210000000  0.5026170000000 1.0
C      1  0.5635840000000  0.4697930000000  0.4823500000000 1.0
C      1  0.5657060000000  0.4945440000000  0.4664030000000 1.0
C      1  0.5492140000000  0.5163620000000  0.4813480000000 1.0
C      1  0.5579740000000  0.5300450000000  0.5074540000000 1.0
C      1  0.5524610000000  0.5144290000000  0.5319730000000 1.0
C      1  0.4456940000000  0.5329380000000  0.4670080000000 1.0
C      1  0.4365370000000  0.5428360000000  0.4922370000000 1.0
C      1  0.4371970000000  0.5146870000000  0.5383330000000 1.0
C      1  0.4455420000000  0.4869390000000  0.5414730000000 1.0
C      1  0.4402670000000  0.4644450000000  0.5184920000000 1.0
C      1  0.4435700000000  0.4799000000000  0.4921600000000 1.0
C      1  0.4427310000000  0.5041990000000  0.4613530000000 1.0
C      1  0.5295740000000  0.4384440000000  0.5341180000000 1.0
C      1  0.5320270000000  0.4368660000000  0.4624220000000 1.0
C      1  0.5322880000000  0.4806480000000  0.4195720000000 1.0
C      1  0.5295700000000  0.5469560000000  0.4426930000000 1.0
C      1  0.5227830000000  0.5698960000000  0.5040120000000 1.0
C      1  0.5260390000000  0.5494700000000  0.5572420000000 1.0
C      1  0.5324110000000  0.4729940000000  0.5740910000000 1.0
C      1  0.4796950000000  0.5070160000000  0.5115470000000 1.0
C      1  0.4501950000000  0.5086710000000  0.5031620000000 1.0
C      1  0.5246850000000  0.4993020000000  0.4897790000000 1.0
C      1  0.4947010000000  0.5034600000000  0.4864490000000 1.0
END
