TITL C-9268-6400-51 6.56796556042899e-05 125000 -366.420276472548 0 0 60 (C1) n - 1
REM
REM in /home/bkarasulu/CARBON/AIRSS/Generating-Clusters/EDIP-Nigel-Params/Higher-Symm/Box-15A/Only-C60/SD-CG/HFTN-CG
REM
REM
REM
REM
REM
REM ./C.cell (414f73aa93bd7a1190c7fd0f31ff2f98)
REM
REM compiler GCC version 9.2.1 20190827 (Red Hat 9.2.1-1)
REM options -cpp -mtune=generic -march=x86-64 -g -O0 -fpre-include=/usr/include/finclude/math-vector-fortran.h
REM seed 719763399 -431277888 614748631 1830371045 -182054161 -1772018426 -701212407 -2086524108 -129605208 1640729441 -1031404741 -1167902810 1125047668 -1351913244 659148245 456114089 1655105456 604007230 -1109325273 1221939776 -1781829879 -1959298099 1471312841 -271960903 672789172 -566570388 153674405 1214882507 -1332747819 569367539 933479869 -1576050505 453346286
REM
CELL 1.54180   50.00000   50.00000   50.00000   90.00000   90.00000   90.00000
LATT -1
SFAC C  
C      1  0.4815950000000  0.4759760000000  0.5750000000000 1.0
C      1  0.4778670000000  0.5209800000000  0.4229560000000 1.0
C      1  0.4799270000000  0.5204210000000  0.5772010000000 1.0
C      1  0.4778180000000  0.4759100000000  0.4258600000000 1.0
C      1  0.5352180000000  0.5229580000000  0.4510210000000 1.0
C      1  0.5362540000000  0.4799880000000  0.5477470000000 1.0
C      1  0.5332850000000  0.4790340000000  0.4532480000000 1.0
C      1  0.5352740000000  0.5240400000000  0.5507230000000 1.0
C      1  0.4986590000000  0.4531760000000  0.5187640000000 1.0
C      1  0.5018590000000  0.5456450000000  0.4829280000000 1.0
C      1  0.5029000000000  0.5413810000000  0.5165690000000 1.0
C      1  0.4978660000000  0.4501240000000  0.4809340000000 1.0
C      1  0.4393900000000  0.5267720000000  0.5159590000000 1.0
C      1  0.4325310000000  0.4783930000000  0.4882490000000 1.0
C      1  0.4428970000000  0.4698240000000  0.5142800000000 1.0
C      1  0.4386030000000  0.5249950000000  0.4866440000000 1.0
C      1  0.4668560000000  0.5571660000000  0.4502290000000 1.0
C      1  0.4654680000000  0.4395500000000  0.5495760000000 1.0
C      1  0.4647040000000  0.4387230000000  0.4500320000000 1.0
C      1  0.4675920000000  0.5551270000000  0.5492310000000 1.0
C      1  0.4521800000000  0.5124650000000  0.5372780000000 1.0
C      1  0.4560800000000  0.4823920000000  0.4686130000000 1.0
C      1  0.4476640000000  0.4835730000000  0.5393250000000 1.0
C      1  0.4618480000000  0.5143440000000  0.4694660000000 1.0
C      1  0.4842090000000  0.4303640000000  0.5313060000000 1.0
C      1  0.4830430000000  0.5659410000000  0.4709620000000 1.0
C      1  0.4843350000000  0.5619890000000  0.5282770000000 1.0
C      1  0.4841360000000  0.4276040000000  0.4668440000000 1.0
C      1  0.5474430000000  0.4424220000000  0.4841590000000 1.0
C      1  0.5480070000000  0.5624590000000  0.5224630000000 1.0
C      1  0.5486380000000  0.5636480000000  0.4760750000000 1.0
C      1  0.5491890000000  0.4427510000000  0.5155300000000 1.0
C      1  0.4758120000000  0.5882870000000  0.4856480000000 1.0
C      1  0.4766900000000  0.4112460000000  0.5127470000000 1.0
C      1  0.4762930000000  0.4091990000000  0.4859950000000 1.0
C      1  0.4770480000000  0.5827080000000  0.5117180000000 1.0
C      1  0.4893170000000  0.5183870000000  0.4825000000000 1.0
C      1  0.4807260000000  0.4783170000000  0.5119620000000 1.0
C      1  0.4785080000000  0.4718300000000  0.4840080000000 1.0
C      1  0.4992970000000  0.5035240000000  0.5070050000000 1.0
C      1  0.4621920000000  0.5305800000000  0.4438200000000 1.0
C      1  0.4619050000000  0.4658470000000  0.5581950000000 1.0
C      1  0.4588840000000  0.4653450000000  0.4433420000000 1.0
C      1  0.4617420000000  0.5297710000000  0.5584330000000 1.0
C      1  0.5289990000000  0.4636800000000  0.5236570000000 1.0
C      1  0.5288490000000  0.5453540000000  0.4692720000000 1.0
C      1  0.5295440000000  0.5432860000000  0.5300490000000 1.0
C      1  0.5263020000000  0.4628730000000  0.4772290000000 1.0
C      1  0.5172750000000  0.5011530000000  0.5541610000000 1.0
C      1  0.5143400000000  0.5008490000000  0.4458370000000 1.0
C      1  0.4939010000000  0.4985390000000  0.4251800000000 1.0
C      1  0.4971290000000  0.4988650000000  0.5749570000000 1.0
C      1  0.5540610000000  0.5005100000000  0.4650330000000 1.0
C      1  0.5595950000000  0.4973130000000  0.5413410000000 1.0
C      1  0.5433990000000  0.4192910000000  0.5003570000000 1.0
C      1  0.5574370000000  0.5726790000000  0.4996460000000 1.0
C      1  0.5695800000000  0.4982980000000  0.5150880000000 1.0
C      1  0.5266280000000  0.4845830000000  0.5002350000000 1.0
C      1  0.4193960000000  0.5038340000000  0.4916210000000 1.0
C      1  0.5504730000000  0.5008840000000  0.4949640000000 1.0
END
