TITL C-9263-351-82 -7.77776502547245e-07 125000 -363.683933726236 0 0 60 (C1) n - 1
REM
REM in /home/bkarasulu/CARBON/AIRSS/Generating-Clusters/EDIP-Nigel-Params/Higher-Symm/Box-15A/Only-C60/SD-CG/HFTN-CG
REM
REM
REM
REM
REM
REM ./C.cell (414f73aa93bd7a1190c7fd0f31ff2f98)
REM
REM compiler GCC version 9.2.1 20190827 (Red Hat 9.2.1-1)
REM options -cpp -mtune=generic -march=x86-64 -g -O0 -fpre-include=/usr/include/finclude/math-vector-fortran.h
REM seed 153259344 -1859346464 1774404491 1303745564 494086844 -817911351 2013162418 320351555 -1268491587 92602344 -1990832191 -873577396 -48995830 -1713564735 768835158 -1187574164 1757626252 -768608572 -1579265103 -130209073 -754332949 1190280815 -505774271 1456092855 1326392988 1596898449 1592774563 1089392527 -2145025669 608589662 2007863171 -930172400 1958560443
REM
CELL 1.54180   50.00000   50.00000   50.00000   90.00000   90.00000   90.00000
LATT -1
SFAC C  
C      1  0.5043900000000  0.4386850000000  0.5310890000000 1.0
C      1  0.5452710000000  0.4479730000000  0.5022330000000 1.0
C      1  0.4791520000000  0.4905760000000  0.4284790000000 1.0
C      1  0.4946850000000  0.5168040000000  0.4325730000000 1.0
C      1  0.4335130000000  0.5190120000000  0.4767980000000 1.0
C      1  0.5676030000000  0.5176480000000  0.4824790000000 1.0
C      1  0.5428890000000  0.5239110000000  0.5213160000000 1.0
C      1  0.4896660000000  0.4179440000000  0.5419000000000 1.0
C      1  0.4983310000000  0.5145230000000  0.5612350000000 1.0
C      1  0.5318220000000  0.4691330000000  0.4824890000000 1.0
C      1  0.4563400000000  0.4912180000000  0.4463720000000 1.0
C      1  0.5004000000000  0.5321130000000  0.4979110000000 1.0
C      1  0.4526680000000  0.5133570000000  0.5448990000000 1.0
C      1  0.4905050000000  0.4866470000000  0.5174290000000 1.0
C      1  0.5700640000000  0.5596930000000  0.5028680000000 1.0
C      1  0.5109040000000  0.4885410000000  0.4947590000000 1.0
C      1  0.5470200000000  0.5301880000000  0.4645520000000 1.0
C      1  0.5120700000000  0.4336680000000  0.4530370000000 1.0
C      1  0.4933690000000  0.4667430000000  0.4434230000000 1.0
C      1  0.5420800000000  0.5161720000000  0.4409590000000 1.0
C      1  0.5333380000000  0.4406420000000  0.5288440000000 1.0
C      1  0.4714720000000  0.5055750000000  0.5677180000000 1.0
C      1  0.4975730000000  0.4794550000000  0.5452530000000 1.0
C      1  0.5002520000000  0.5611390000000  0.4969230000000 1.0
C      1  0.4816240000000  0.5216290000000  0.4788780000000 1.0
C      1  0.4185690000000  0.4963750000000  0.4843690000000 1.0
C      1  0.4571740000000  0.4708060000000  0.4684720000000 1.0
C      1  0.5018340000000  0.5389420000000  0.5455040000000 1.0
C      1  0.4681350000000  0.4445600000000  0.4770940000000 1.0
C      1  0.5176130000000  0.5034210000000  0.4454460000000 1.0
C      1  0.4432130000000  0.4611230000000  0.5143560000000 1.0
C      1  0.4511900000000  0.5493700000000  0.5100990000000 1.0
C      1  0.5348680000000  0.5578280000000  0.4674450000000 1.0
C      1  0.4722750000000  0.4194490000000  0.5205470000000 1.0
C      1  0.5462260000000  0.4579950000000  0.5496030000000 1.0
C      1  0.5683550000000  0.4679750000000  0.5060010000000 1.0
C      1  0.4380840000000  0.4767940000000  0.4895000000000 1.0
C      1  0.5277590000000  0.4821730000000  0.5554100000000 1.0
C      1  0.5460160000000  0.5708500000000  0.4927650000000 1.0
C      1  0.5243520000000  0.5696690000000  0.5129660000000 1.0
C      1  0.4518380000000  0.5437370000000  0.5403110000000 1.0
C      1  0.5028470000000  0.5609460000000  0.4644840000000 1.0
C      1  0.4792050000000  0.5580840000000  0.5428130000000 1.0
C      1  0.4622760000000  0.5000990000000  0.5173670000000 1.0
C      1  0.5282560000000  0.5478180000000  0.5341300000000 1.0
C      1  0.4561040000000  0.5227450000000  0.4957410000000 1.0
C      1  0.4874150000000  0.4291290000000  0.4643350000000 1.0
C      1  0.5230330000000  0.4604030000000  0.4544930000000 1.0
C      1  0.4809380000000  0.5368300000000  0.4521000000000 1.0
C      1  0.5667650000000  0.4772680000000  0.5350700000000 1.0
C      1  0.5238810000000  0.5154100000000  0.4993540000000 1.0
C      1  0.4934470000000  0.4943150000000  0.4704320000000 1.0
C      1  0.4751270000000  0.5690090000000  0.5125780000000 1.0
C      1  0.5477730000000  0.5013920000000  0.5413800000000 1.0
C      1  0.4470550000000  0.5184700000000  0.4509780000000 1.0
C      1  0.4443840000000  0.4751890000000  0.5415680000000 1.0
C      1  0.5647000000000  0.4884680000000  0.4846170000000 1.0
C      1  0.4640540000000  0.4423990000000  0.5056580000000 1.0
C      1  0.5689720000000  0.5321200000000  0.5081620000000 1.0
C      1  0.4692640000000  0.4758480000000  0.5604350000000 1.0
END
