TITL C-9265-7156-322 -2.35858248279058e-06 125000 -364.659555644606 0 0 60 (C1) n - 1
REM
REM in /home/bkarasulu/CARBON/AIRSS/Generating-Clusters/EDIP-Nigel-Params/Higher-Symm/Box-15A/Only-C60/SD-CG/HFTN-CG
REM
REM
REM
REM
REM
REM ./C.cell (414f73aa93bd7a1190c7fd0f31ff2f98)
REM
REM compiler GCC version 9.2.1 20190827 (Red Hat 9.2.1-1)
REM options -cpp -mtune=generic -march=x86-64 -g -O0 -fpre-include=/usr/include/finclude/math-vector-fortran.h
REM seed 1790688368 -1162618693 -581148804 -1234141858 1368504798 -1817964685 -1998652258 1073162765 -56955442 1395456482 -362788172 -1937356494 823041724 972385086 -418082121 722913627 -1232261817 1066265328 1148638148 962833570 -1166811687 -982756085 -1327949423 -1876912400 -1529908237 -652132244 -1127720750 -2134944482 -2113125839 -506038598 -2090601215 -1136831038 -592166976
REM
CELL 1.54180   50.00000   50.00000   50.00000   90.00000   90.00000   90.00000
LATT -1
SFAC C  
C      1  0.4743260000000  0.4585380000000  0.5496710000000 1.0
C      1  0.4844390000000  0.4767340000000  0.4445980000000 1.0
C      1  0.4808790000000  0.5505400000000  0.5008100000000 1.0
C      1  0.4746760000000  0.5251740000000  0.4431840000000 1.0
C      1  0.4736250000000  0.5397810000000  0.5501590000000 1.0
C      1  0.4643190000000  0.4314990000000  0.5085140000000 1.0
C      1  0.4557880000000  0.4794810000000  0.5428370000000 1.0
C      1  0.4576610000000  0.4722590000000  0.4553920000000 1.0
C      1  0.4522760000000  0.5448250000000  0.4970000000000 1.0
C      1  0.5510100000000  0.4772170000000  0.4802670000000 1.0
C      1  0.5428650000000  0.5360000000000  0.4897190000000 1.0
C      1  0.5512980000000  0.4995710000000  0.5432040000000 1.0
C      1  0.5190550000000  0.4818430000000  0.4813020000000 1.0
C      1  0.5146370000000  0.5230600000000  0.4958670000000 1.0
C      1  0.5218110000000  0.4969380000000  0.5486760000000 1.0
C      1  0.5249330000000  0.5426580000000  0.5644600000000 1.0
C      1  0.5212920000000  0.4346480000000  0.4916770000000 1.0
C      1  0.5178820000000  0.5393310000000  0.4343100000000 1.0
C      1  0.5051400000000  0.4727890000000  0.5076900000000 1.0
C      1  0.5018760000000  0.5066080000000  0.4727740000000 1.0
C      1  0.5060940000000  0.5009470000000  0.5211600000000 1.0
C      1  0.4421230000000  0.4953600000000  0.4623790000000 1.0
C      1  0.4391980000000  0.5290520000000  0.5175360000000 1.0
C      1  0.4437450000000  0.4758330000000  0.5172860000000 1.0
C      1  0.5348630000000  0.4915900000000  0.4316500000000 1.0
C      1  0.5353120000000  0.5685650000000  0.5230080000000 1.0
C      1  0.5255720000000  0.4490110000000  0.5380930000000 1.0
C      1  0.4843920000000  0.4455200000000  0.5254500000000 1.0
C      1  0.4918450000000  0.5032280000000  0.4355020000000 1.0
C      1  0.4897230000000  0.5419120000000  0.5263280000000 1.0
C      1  0.5327120000000  0.4677110000000  0.4473110000000 1.0
C      1  0.5337330000000  0.5647310000000  0.4952530000000 1.0
C      1  0.5170270000000  0.4684210000000  0.5568780000000 1.0
C      1  0.4999190000000  0.4425730000000  0.4753440000000 1.0
C      1  0.5059990000000  0.5605390000000  0.4517400000000 1.0
C      1  0.5123530000000  0.5178120000000  0.5687750000000 1.0
C      1  0.4513260000000  0.4476210000000  0.4690390000000 1.0
C      1  0.4410620000000  0.5428350000000  0.4713330000000 1.0
C      1  0.4513020000000  0.5027380000000  0.5592910000000 1.0
C      1  0.4814880000000  0.5524580000000  0.4389650000000 1.0
C      1  0.4836400000000  0.5209680000000  0.5697290000000 1.0
C      1  0.4729260000000  0.4314430000000  0.4800400000000 1.0
C      1  0.4733030000000  0.5014030000000  0.4842430000000 1.0
C      1  0.4719450000000  0.5097340000000  0.5153990000000 1.0
C      1  0.4749990000000  0.4724220000000  0.4961080000000 1.0
C      1  0.4464870000000  0.5289390000000  0.5459970000000 1.0
C      1  0.4406950000000  0.4492510000000  0.5055780000000 1.0
C      1  0.4485430000000  0.5218050000000  0.4543680000000 1.0
C      1  0.5576820000000  0.5261020000000  0.5335200000000 1.0
C      1  0.5573740000000  0.4630760000000  0.5060130000000 1.0
C      1  0.5531030000000  0.5240560000000  0.4636420000000 1.0
C      1  0.5332430000000  0.5170690000000  0.4439490000000 1.0
C      1  0.5395620000000  0.5475080000000  0.5411590000000 1.0
C      1  0.5373390000000  0.4432470000000  0.5130270000000 1.0
C      1  0.5054990000000  0.5589810000000  0.4827550000000 1.0
C      1  0.4929500000000  0.4630900000000  0.5699800000000 1.0
C      1  0.5049490000000  0.4562400000000  0.4495770000000 1.0
C      1  0.5654320000000  0.5257680000000  0.5061640000000 1.0
C      1  0.5633740000000  0.4794720000000  0.5278950000000 1.0
C      1  0.5673780000000  0.5014760000000  0.4764240000000 1.0
END
