TITL C-9267-1554-201 2.64798552246116e-06 125000 -363.88198996975 0 0 60 (C1) n - 1
REM
REM in /home/bkarasulu/CARBON/AIRSS/Generating-Clusters/EDIP-Nigel-Params/Higher-Symm/Box-15A/Only-C60/SD-CG/HFTN-CG
REM
REM
REM
REM
REM
REM ./C.cell (414f73aa93bd7a1190c7fd0f31ff2f98)
REM
REM compiler GCC version 9.2.1 20190827 (Red Hat 9.2.1-1)
REM options -cpp -mtune=generic -march=x86-64 -g -O0 -fpre-include=/usr/include/finclude/math-vector-fortran.h
REM seed 529357089 -112541938 1620877627 1726462948 191175680 -845842626 -406766072 816538420 -1685694666 669916408 662476051 732220066 673872901 416089315 -956968707 -200702934 -36981216 1290909981 381948922 -1411669199 1299120575 383275196 -1603146391 -1382524504 523448772 1616506804 640429774 1456010429 -880452407 -1751052195 -2141373889 1662887991 -474042586
REM
CELL 1.54180   50.00000   50.00000   50.00000   90.00000   90.00000   90.00000
LATT -1
SFAC C  
C      1  0.4659140000000  0.5013270000000  0.5473520000000 1.0
C      1  0.5075830000000  0.4472640000000  0.5588080000000 1.0
C      1  0.4455540000000  0.5301780000000  0.5030430000000 1.0
C      1  0.4655880000000  0.5483630000000  0.5134800000000 1.0
C      1  0.5008990000000  0.4989150000000  0.5789100000000 1.0
C      1  0.4813010000000  0.4578960000000  0.5574960000000 1.0
C      1  0.5496230000000  0.5196110000000  0.4588430000000 1.0
C      1  0.5133470000000  0.5637740000000  0.4595960000000 1.0
C      1  0.4291480000000  0.5086300000000  0.5150290000000 1.0
C      1  0.5252690000000  0.5094660000000  0.5692820000000 1.0
C      1  0.5185710000000  0.4338530000000  0.4856440000000 1.0
C      1  0.5301820000000  0.4834300000000  0.4800220000000 1.0
C      1  0.4834090000000  0.4883950000000  0.4173500000000 1.0
C      1  0.5206220000000  0.5603390000000  0.5094050000000 1.0
C      1  0.4856830000000  0.4921800000000  0.5227330000000 1.0
C      1  0.5089940000000  0.5284090000000  0.4899180000000 1.0
C      1  0.4940920000000  0.5644380000000  0.5500430000000 1.0
C      1  0.5428570000000  0.4879310000000  0.5613010000000 1.0
C      1  0.4756420000000  0.4611890000000  0.5276860000000 1.0
C      1  0.5675970000000  0.5103140000000  0.4821830000000 1.0
C      1  0.5061650000000  0.4776400000000  0.4064250000000 1.0
C      1  0.5322110000000  0.5417620000000  0.4706340000000 1.0
C      1  0.4647080000000  0.5288250000000  0.5552150000000 1.0
C      1  0.5486130000000  0.5174630000000  0.5282300000000 1.0
C      1  0.5366060000000  0.4830130000000  0.4285810000000 1.0
C      1  0.4729890000000  0.5050390000000  0.4367090000000 1.0
C      1  0.5449100000000  0.4475650000000  0.5240790000000 1.0
C      1  0.4621510000000  0.4369460000000  0.5150430000000 1.0
C      1  0.5175130000000  0.5014010000000  0.5017410000000 1.0
C      1  0.5597110000000  0.4932260000000  0.5384990000000 1.0
C      1  0.4602830000000  0.5553340000000  0.4672530000000 1.0
C      1  0.5316420000000  0.4973650000000  0.4530920000000 1.0
C      1  0.4714550000000  0.4949670000000  0.4647390000000 1.0
C      1  0.4801700000000  0.5241240000000  0.4766540000000 1.0
C      1  0.5597390000000  0.4806640000000  0.4887630000000 1.0
C      1  0.4851310000000  0.4674610000000  0.4678520000000 1.0
C      1  0.4379490000000  0.4659940000000  0.5206480000000 1.0
C      1  0.5227470000000  0.4603680000000  0.4203540000000 1.0
C      1  0.5466180000000  0.5527770000000  0.4949020000000 1.0
C      1  0.4441790000000  0.4900500000000  0.4735650000000 1.0
C      1  0.4778850000000  0.4853010000000  0.5696190000000 1.0
C      1  0.5191990000000  0.4576930000000  0.5348900000000 1.0
C      1  0.5019570000000  0.5721860000000  0.4872660000000 1.0
C      1  0.5163200000000  0.4879380000000  0.5328120000000 1.0
C      1  0.5414190000000  0.4307540000000  0.5016050000000 1.0
C      1  0.4734610000000  0.5655650000000  0.4910310000000 1.0
C      1  0.4968040000000  0.4167180000000  0.4893610000000 1.0
C      1  0.4799350000000  0.5321510000000  0.4347830000000 1.0
C      1  0.5617570000000  0.5296500000000  0.5052150000000 1.0
C      1  0.4704510000000  0.4267920000000  0.4893330000000 1.0
C      1  0.4709660000000  0.5516440000000  0.5414830000000 1.0
C      1  0.4427370000000  0.5344300000000  0.4750570000000 1.0
C      1  0.4286290000000  0.4844600000000  0.4965850000000 1.0
C      1  0.4670640000000  0.4462920000000  0.4693990000000 1.0
C      1  0.5173260000000  0.5542560000000  0.5386500000000 1.0
C      1  0.4951320000000  0.5538780000000  0.4407530000000 1.0
C      1  0.4386720000000  0.4919800000000  0.5390560000000 1.0
C      1  0.5115350000000  0.4608350000000  0.4779270000000 1.0
C      1  0.5629660000000  0.4712560000000  0.5179130000000 1.0
C      1  0.5284200000000  0.5283350000000  0.5461600000000 1.0
END
