TITL C-9263-351-306 3.84136841997245e-05 125000 -357.543229481991 0 0 60 (C1) n - 1
REM
REM in /home/bkarasulu/CARBON/AIRSS/Generating-Clusters/EDIP-Nigel-Params/Higher-Symm/Box-15A/Only-C60/SD-CG/HFTN-CG
REM
REM
REM
REM
REM
REM ./C.cell (414f73aa93bd7a1190c7fd0f31ff2f98)
REM
REM compiler GCC version 9.2.1 20190827 (Red Hat 9.2.1-1)
REM options -cpp -mtune=generic -march=x86-64 -g -O0 -fpre-include=/usr/include/finclude/math-vector-fortran.h
REM seed -701532202 1766547540 -794151547 -2018601532 575441656 -1355679519 1683019031 -504664178 -1032024524 -1430468878 -1210961066 916761385 -2136221852 -1708144415 -1216257744 -803503955 237483689 -1039935857 586009828 -903373868 1468200614 1589627861 1687239018 1386748756 469139889 1809710501 -1915342763 -2118376157 442745522 1468652550 1397463113 -721225163 -1760044065
REM
CELL 1.54180   50.00000   50.00000   50.00000   90.00000   90.00000   90.00000
LATT -1
SFAC C  
C      1  0.4994980000000  0.5037650000000  0.5195330000000 1.0
C      1  0.5014000000000  0.5169550000000  0.4940950000000 1.0
C      1  0.4918240000000  0.4956080000000  0.4769900000000 1.0
C      1  0.4855480000000  0.4705620000000  0.4869280000000 1.0
C      1  0.4982030000000  0.4768680000000  0.5107540000000 1.0
C      1  0.4346430000000  0.4901500000000  0.4485070000000 1.0
C      1  0.4355230000000  0.4481400000000  0.4925140000000 1.0
C      1  0.4362560000000  0.4775370000000  0.5464840000000 1.0
C      1  0.4393010000000  0.5372550000000  0.5348840000000 1.0
C      1  0.4364940000000  0.5450910000000  0.4744880000000 1.0
C      1  0.4965210000000  0.5841160000000  0.4669860000000 1.0
C      1  0.4970000000000  0.4981850000000  0.4118430000000 1.0
C      1  0.4983360000000  0.4123800000000  0.4756260000000 1.0
C      1  0.4958780000000  0.4521570000000  0.5781890000000 1.0
C      1  0.5002140000000  0.5585420000000  0.5683270000000 1.0
C      1  0.5305500000000  0.5506540000000  0.4481980000000 1.0
C      1  0.5304750000000  0.4657000000000  0.4389000000000 1.0
C      1  0.5289290000000  0.4263250000000  0.5186440000000 1.0
C      1  0.5307390000000  0.4927690000000  0.5739580000000 1.0
C      1  0.5317490000000  0.5699620000000  0.5261430000000 1.0
C      1  0.4493990000000  0.5655750000000  0.4636030000000 1.0
C      1  0.4489040000000  0.4884170000000  0.4261660000000 1.0
C      1  0.4500700000000  0.4264780000000  0.4871640000000 1.0
C      1  0.4486370000000  0.4675530000000  0.5677350000000 1.0
C      1  0.4525730000000  0.5534630000000  0.5511710000000 1.0
C      1  0.4711620000000  0.5802670000000  0.4596900000000 1.0
C      1  0.4714220000000  0.4907730000000  0.4123110000000 1.0
C      1  0.4722670000000  0.4130570000000  0.4812900000000 1.0
C      1  0.4700920000000  0.4585120000000  0.5804950000000 1.0
C      1  0.4742400000000  0.5622820000000  0.5637020000000 1.0
C      1  0.5160030000000  0.5094780000000  0.4284050000000 1.0
C      1  0.5201790000000  0.4290820000000  0.4720060000000 1.0
C      1  0.5143070000000  0.4516900000000  0.5575730000000 1.0
C      1  0.5196360000000  0.5403250000000  0.5609600000000 1.0
C      1  0.5137000000000  0.5726960000000  0.4855390000000 1.0
C      1  0.4348830000000  0.4891850000000  0.5216080000000 1.0
C      1  0.4354450000000  0.5174070000000  0.5162520000000 1.0
C      1  0.4346750000000  0.5210900000000  0.4877890000000 1.0
C      1  0.4327250000000  0.4951950000000  0.4755120000000 1.0
C      1  0.4326080000000  0.4753490000000  0.4964330000000 1.0
C      1  0.5243920000000  0.4415860000000  0.4479270000000 1.0
C      1  0.5182280000000  0.4289270000000  0.5427340000000 1.0
C      1  0.5247590000000  0.5183980000000  0.5765650000000 1.0
C      1  0.5203440000000  0.5865210000000  0.5086500000000 1.0
C      1  0.5207330000000  0.5365230000000  0.4279960000000 1.0
C      1  0.5701890000000  0.4892680000000  0.5223640000000 1.0
C      1  0.5732500000000  0.5184720000000  0.5158350000000 1.0
C      1  0.5840100000000  0.5206940000000  0.4898670000000 1.0
C      1  0.5729850000000  0.4986720000000  0.4761100000000 1.0
C      1  0.5707900000000  0.4757020000000  0.4952940000000 1.0
C      1  0.5428220000000  0.5225710000000  0.5179970000000 1.0
C      1  0.5298110000000  0.5242050000000  0.4891940000000 1.0
C      1  0.5424150000000  0.4997150000000  0.4724960000000 1.0
C      1  0.5398570000000  0.4699960000000  0.4966390000000 1.0
C      1  0.5388700000000  0.4853020000000  0.5264340000000 1.0
C      1  0.5311800000000  0.5515660000000  0.4757690000000 1.0
C      1  0.5327450000000  0.4924850000000  0.4445560000000 1.0
C      1  0.5334570000000  0.4400510000000  0.4952130000000 1.0
C      1  0.5323390000000  0.4739170000000  0.5540220000000 1.0
C      1  0.5348100000000  0.5448390000000  0.5369400000000 1.0
END
