TITL C-9264-7143-134 -3.87092994629206e-05 125000 -360.679782723841 0 0 60 (C1) n - 1
REM
REM in /home/bkarasulu/CARBON/AIRSS/Generating-Clusters/EDIP-Nigel-Params/Higher-Symm/Box-15A/Only-C60/SD-CG/HFTN-CG
REM
REM
REM
REM
REM
REM ./C.cell (414f73aa93bd7a1190c7fd0f31ff2f98)
REM
REM compiler GCC version 9.2.1 20190827 (Red Hat 9.2.1-1)
REM options -cpp -mtune=generic -march=x86-64 -g -O0 -fpre-include=/usr/include/finclude/math-vector-fortran.h
REM seed -1981227868 -763498275 -41465276 -1016111677 1719388933 -1218024312 5174792 1733185630 1082709596 -882684985 281071834 -333767004 1409335022 1818766191 1628600018 -930480958 2009768127 1537744352 472836144 -2123703212 2001473711 1787532949 288083920 -2092063666 -391057759 1839868493 1288945210 -1507757061 622546096 900035120 687397402 1962624756 -9429519
REM
CELL 1.54180   50.00000   50.00000   50.00000   90.00000   90.00000   90.00000
LATT -1
SFAC C  
C      1  0.5713900000000  0.4836600000000  0.4833990000000 1.0
C      1  0.4498940000000  0.4636620000000  0.4231450000000 1.0
C      1  0.5339050000000  0.5538650000000  0.5432980000000 1.0
C      1  0.4689730000000  0.4586490000000  0.5510500000000 1.0
C      1  0.4532140000000  0.5631780000000  0.4678750000000 1.0
C      1  0.4825870000000  0.4331810000000  0.4436540000000 1.0
C      1  0.4424790000000  0.4754170000000  0.5031300000000 1.0
C      1  0.4967370000000  0.4698010000000  0.5437400000000 1.0
C      1  0.4934950000000  0.5238300000000  0.5652500000000 1.0
C      1  0.4648050000000  0.5424380000000  0.5103970000000 1.0
C      1  0.5096030000000  0.5230260000000  0.4643860000000 1.0
C      1  0.5036590000000  0.4341220000000  0.4613280000000 1.0
C      1  0.4388040000000  0.5191380000000  0.4745980000000 1.0
C      1  0.4558910000000  0.4989100000000  0.4635010000000 1.0
C      1  0.5012940000000  0.5037690000000  0.5836230000000 1.0
C      1  0.4883490000000  0.4755880000000  0.4926920000000 1.0
C      1  0.4668540000000  0.5181120000000  0.5551460000000 1.0
C      1  0.5195770000000  0.4579820000000  0.5741070000000 1.0
C      1  0.5271870000000  0.4433020000000  0.5257280000000 1.0
C      1  0.5116380000000  0.4836140000000  0.5670280000000 1.0
C      1  0.4520000000000  0.4996540000000  0.5707400000000 1.0
C      1  0.5376730000000  0.5735070000000  0.4885650000000 1.0
C      1  0.4662800000000  0.5112970000000  0.5258740000000 1.0
C      1  0.5120930000000  0.5112970000000  0.5173370000000 1.0
C      1  0.4476870000000  0.5429530000000  0.4857480000000 1.0
C      1  0.4535210000000  0.5595950000000  0.5282670000000 1.0
C      1  0.5270900000000  0.4421380000000  0.5533780000000 1.0
C      1  0.5053140000000  0.4501900000000  0.4878920000000 1.0
C      1  0.5671110000000  0.4771070000000  0.5119150000000 1.0
C      1  0.5285860000000  0.4518310000000  0.4564490000000 1.0
C      1  0.4427030000000  0.4924520000000  0.5250380000000 1.0
C      1  0.5468880000000  0.4544150000000  0.4797690000000 1.0
C      1  0.4968070000000  0.5552000000000  0.5041770000000 1.0
C      1  0.5073030000000  0.5290130000000  0.4946840000000 1.0
C      1  0.5137590000000  0.5278070000000  0.5429310000000 1.0
C      1  0.5149890000000  0.5476980000000  0.4503130000000 1.0
C      1  0.5056260000000  0.4314330000000  0.5114710000000 1.0
C      1  0.4609620000000  0.4759040000000  0.4822960000000 1.0
C      1  0.5434110000000  0.4599360000000  0.5082960000000 1.0
C      1  0.4743750000000  0.5727860000000  0.4547540000000 1.0
C      1  0.5309990000000  0.5021580000000  0.4600320000000 1.0
C      1  0.5019930000000  0.5715430000000  0.4576540000000 1.0
C      1  0.4465510000000  0.4789200000000  0.5518050000000 1.0
C      1  0.5708000000000  0.4978800000000  0.5300280000000 1.0
C      1  0.5238880000000  0.4784940000000  0.4440480000000 1.0
C      1  0.5575300000000  0.5066930000000  0.4720540000000 1.0
C      1  0.5709240000000  0.5243610000000  0.5334000000000 1.0
C      1  0.4825220000000  0.4248520000000  0.5252910000000 1.0
C      1  0.4827560000000  0.5132530000000  0.4542450000000 1.0
C      1  0.5553230000000  0.5535670000000  0.4975120000000 1.0
C      1  0.4817640000000  0.5002400000000  0.4276390000000 1.0
C      1  0.4623290000000  0.4336350000000  0.5404450000000 1.0
C      1  0.4911370000000  0.4909820000000  0.5194680000000 1.0
C      1  0.5638530000000  0.5325570000000  0.4811910000000 1.0
C      1  0.5575140000000  0.5478570000000  0.5261810000000 1.0
C      1  0.4531880000000  0.4900960000000  0.4307750000000 1.0
C      1  0.4618490000000  0.4406520000000  0.4289290000000 1.0
C      1  0.5097440000000  0.5760820000000  0.4853450000000 1.0
C      1  0.5085630000000  0.5633690000000  0.5305200000000 1.0
C      1  0.5022650000000  0.4813510000000  0.4264680000000 1.0
END
