TITL C-9266-5713-315 1.89354036754328e-05 125000 -362.33702967695 0 0 60 (Cs) n - 1
REM
REM in /home/bkarasulu/CARBON/AIRSS/Generating-Clusters/EDIP-Nigel-Params/Higher-Symm/Box-15A/Only-C60/SD-CG/HFTN-CG
REM
REM
REM
REM
REM
REM ./C.cell (414f73aa93bd7a1190c7fd0f31ff2f98)
REM
REM compiler GCC version 9.2.1 20190827 (Red Hat 9.2.1-1)
REM options -cpp -mtune=generic -march=x86-64 -g -O0 -fpre-include=/usr/include/finclude/math-vector-fortran.h
REM seed -1866994739 933156107 1445211582 -141419085 -1792125791 -1731838493 2057705689 -469166702 1710602650 -1505696195 445816257 -1592023061 2049783948 630384625 1086247641 644961606 1616498649 988380485 -1506264185 -403426352 -557498150 1681329249 -976211968 566926489 -2024640558 775373426 -1297706631 -1111878372 2097188439 -827894273 -1904644008 -949097545 -438220036
REM
CELL 1.54180   50.00000   50.00000   50.00000   90.00000   90.00000   90.00000
LATT -1
SFAC C  
C      1  0.5579950000000  0.4748530000000  0.4758180000000 1.0
C      1  0.4439100000000  0.4629960000000  0.5280560000000 1.0
C      1  0.4419360000000  0.4745410000000  0.4763150000000 1.0
C      1  0.5565260000000  0.4632980000000  0.5275750000000 1.0
C      1  0.5359020000000  0.4699710000000  0.5802190000000 1.0
C      1  0.4633780000000  0.4709780000000  0.4216320000000 1.0
C      1  0.4649470000000  0.4697800000000  0.5805220000000 1.0
C      1  0.5361070000000  0.4711740000000  0.4213210000000 1.0
C      1  0.5142260000000  0.5362840000000  0.4433750000000 1.0
C      1  0.4855510000000  0.5363900000000  0.5594860000000 1.0
C      1  0.4850960000000  0.5362060000000  0.4435000000000 1.0
C      1  0.5147610000000  0.5364690000000  0.5593610000000 1.0
C      1  0.5620580000000  0.5087340000000  0.4439260000000 1.0
C      1  0.4398350000000  0.5045040000000  0.5535140000000 1.0
C      1  0.4374190000000  0.5083990000000  0.4444590000000 1.0
C      1  0.5605950000000  0.5048280000000  0.5529980000000 1.0
C      1  0.4396530000000  0.5089990000000  0.5097360000000 1.0
C      1  0.5749070000000  0.5172590000000  0.4852730000000 1.0
C      1  0.5603780000000  0.5093240000000  0.5092200000000 1.0
C      1  0.4248780000000  0.5168550000000  0.4859150000000 1.0
C      1  0.5310970000000  0.4768740000000  0.4861760000000 1.0
C      1  0.4697280000000  0.4695910000000  0.5174170000000 1.0
C      1  0.4689100000000  0.4767070000000  0.4864420000000 1.0
C      1  0.5305830000000  0.4697550000000  0.5171570000000 1.0
C      1  0.5367000000000  0.4945140000000  0.5672010000000 1.0
C      1  0.4620560000000  0.4958030000000  0.4340790000000 1.0
C      1  0.4639060000000  0.4943180000000  0.5675120000000 1.0
C      1  0.5374010000000  0.4960060000000  0.4337570000000 1.0
C      1  0.4807740000000  0.5147530000000  0.4243010000000 1.0
C      1  0.5191510000000  0.5143300000000  0.5777330000000 1.0
C      1  0.5184980000000  0.5148550000000  0.4241390000000 1.0
C      1  0.4814380000000  0.5142290000000  0.5778940000000 1.0
C      1  0.4230730000000  0.4927560000000  0.4665520000000 1.0
C      1  0.5697310000000  0.4877350000000  0.5285730000000 1.0
C      1  0.5766760000000  0.4931690000000  0.4658950000000 1.0
C      1  0.4305820000000  0.4873610000000  0.5291680000000 1.0
C      1  0.4455190000000  0.5285240000000  0.5322930000000 1.0
C      1  0.5572630000000  0.5325700000000  0.4646520000000 1.0
C      1  0.5546010000000  0.5288170000000  0.5318270000000 1.0
C      1  0.4422620000000  0.5322610000000  0.4651440000000 1.0
C      1  0.4842720000000  0.5571510000000  0.5161940000000 1.0
C      1  0.5157930000000  0.5570310000000  0.4854490000000 1.0
C      1  0.5155590000000  0.5572350000000  0.5160600000000 1.0
C      1  0.4837770000000  0.5569450000000  0.4855860000000 1.0
C      1  0.4871320000000  0.4564970000000  0.5876430000000 1.0
C      1  0.5131260000000  0.4586550000000  0.4152170000000 1.0
C      1  0.5138500000000  0.4565690000000  0.5875290000000 1.0
C      1  0.4863720000000  0.4585830000000  0.4153310000000 1.0
C      1  0.4726990000000  0.5327350000000  0.4707440000000 1.0
C      1  0.5251500000000  0.5327330000000  0.5312220000000 1.0
C      1  0.5268730000000  0.5328810000000  0.4705120000000 1.0
C      1  0.4749420000000  0.5325980000000  0.5314360000000 1.0
C      1  0.5152570000000  0.4437120000000  0.5111830000000 1.0
C      1  0.4849330000000  0.4511460000000  0.4799080000000 1.0
C      1  0.4851420000000  0.4436310000000  0.5113120000000 1.0
C      1  0.5151570000000  0.4512280000000  0.4797790000000 1.0
C      1  0.4850210000000  0.5062570000000  0.5174480000000 1.0
C      1  0.5160850000000  0.5056970000000  0.4849300000000 1.0
C      1  0.5150940000000  0.5063380000000  0.5173200000000 1.0
C      1  0.4837570000000  0.5056100000000  0.4850680000000 1.0
END
