TITL C-9261-551-132 -6.2739998466854e-05 125000 -369.037924173214 0 0 60 (C1) n - 1
REM
REM in /home/bkarasulu/CARBON/AIRSS/Generating-Clusters/EDIP-Nigel-Params/Higher-Symm/Box-15A/Only-C60/SD-CG/HFTN-CG
REM
REM
REM
REM
REM
REM ./C.cell (414f73aa93bd7a1190c7fd0f31ff2f98)
REM
REM compiler GCC version 9.2.1 20190827 (Red Hat 9.2.1-1)
REM options -cpp -mtune=generic -march=x86-64 -g -O0 -fpre-include=/usr/include/finclude/math-vector-fortran.h
REM seed -475546862 -1071368943 336396808 -311578344 -1452278455 -2057623968 105399430 -1485876473 270763444 -1289777412 1879684191 -1802921979 89259103 -2001250512 31846924 246938162 604731716 1267232345 -419725089 -1044367903 -1883048092 -1748037287 72375352 514956031 -1923714214 -1201416045 83901279 640081410 -1382119080 -1481562412 386847221 1061660139 -298243519
REM
CELL 1.54180   50.00000   50.00000   50.00000   90.00000   90.00000   90.00000
LATT -1
SFAC C  
C      1  0.4622090000000  0.5388680000000  0.5492350000000 1.0
C      1  0.5040380000000  0.4450170000000  0.5102820000000 1.0
C      1  0.4559110000000  0.4873550000000  0.4726320000000 1.0
C      1  0.4894040000000  0.5474410000000  0.5570810000000 1.0
C      1  0.4615080000000  0.4734850000000  0.4444090000000 1.0
C      1  0.5271740000000  0.4288520000000  0.4985330000000 1.0
C      1  0.5292960000000  0.5151390000000  0.4958190000000 1.0
C      1  0.4436830000000  0.5021890000000  0.5186780000000 1.0
C      1  0.4688770000000  0.5225900000000  0.4401810000000 1.0
C      1  0.4846590000000  0.5257230000000  0.4945930000000 1.0
C      1  0.4884380000000  0.4380010000000  0.4697100000000 1.0
C      1  0.4990120000000  0.4431280000000  0.5405460000000 1.0
C      1  0.4994650000000  0.5115050000000  0.4734800000000 1.0
C      1  0.5526600000000  0.5308340000000  0.5065120000000 1.0
C      1  0.5524420000000  0.5264700000000  0.4600750000000 1.0
C      1  0.4687070000000  0.5498880000000  0.4858730000000 1.0
C      1  0.5479730000000  0.4963700000000  0.5406790000000 1.0
C      1  0.4995440000000  0.5292890000000  0.4494290000000 1.0
C      1  0.5013240000000  0.4895320000000  0.4228240000000 1.0
C      1  0.4917040000000  0.5754870000000  0.5059020000000 1.0
C      1  0.5180840000000  0.5117820000000  0.4328660000000 1.0
C      1  0.5453280000000  0.4475220000000  0.5503200000000 1.0
C      1  0.4882890000000  0.4821220000000  0.4720980000000 1.0
C      1  0.5178860000000  0.4324690000000  0.4705620000000 1.0
C      1  0.5431480000000  0.5033440000000  0.4475650000000 1.0
C      1  0.5144890000000  0.5556760000000  0.4616280000000 1.0
C      1  0.4343270000000  0.5292950000000  0.5093070000000 1.0
C      1  0.5089350000000  0.5465280000000  0.5347180000000 1.0
C      1  0.5293870000000  0.4547940000000  0.4527710000000 1.0
C      1  0.5426720000000  0.5510570000000  0.4685960000000 1.0
C      1  0.5119630000000  0.5045830000000  0.5721370000000 1.0
C      1  0.4808810000000  0.4505360000000  0.4442960000000 1.0
C      1  0.5058130000000  0.5314060000000  0.5761440000000 1.0
C      1  0.5427820000000  0.4786170000000  0.4655710000000 1.0
C      1  0.4417400000000  0.5373850000000  0.4806980000000 1.0
C      1  0.4473780000000  0.4973390000000  0.5474310000000 1.0
C      1  0.4613740000000  0.4559260000000  0.5110290000000 1.0
C      1  0.5056030000000  0.4749130000000  0.5020910000000 1.0
C      1  0.4482540000000  0.5152250000000  0.4617690000000 1.0
C      1  0.4472200000000  0.5201680000000  0.5643440000000 1.0
C      1  0.4988470000000  0.4928000000000  0.5280130000000 1.0
C      1  0.4721340000000  0.4959640000000  0.4261690000000 1.0
C      1  0.5586540000000  0.4519150000000  0.5257950000000 1.0
C      1  0.5058390000000  0.4632650000000  0.4360350000000 1.0
C      1  0.5198300000000  0.4581000000000  0.5561970000000 1.0
C      1  0.5515120000000  0.5571450000000  0.4952180000000 1.0
C      1  0.4714240000000  0.4345550000000  0.4934400000000 1.0
C      1  0.4720600000000  0.4562270000000  0.5388150000000 1.0
C      1  0.5350420000000  0.4848950000000  0.4951680000000 1.0
C      1  0.5329110000000  0.5418330000000  0.5503710000000 1.0
C      1  0.4631750000000  0.5701460000000  0.5086500000000 1.0
C      1  0.5558600000000  0.4798880000000  0.5172610000000 1.0
C      1  0.4475800000000  0.5510730000000  0.5265560000000 1.0
C      1  0.5033860000000  0.5736840000000  0.4805220000000 1.0
C      1  0.5538280000000  0.4341080000000  0.5048490000000 1.0
C      1  0.5043190000000  0.5216250000000  0.5165190000000 1.0
C      1  0.4706410000000  0.4815950000000  0.5513690000000 1.0
C      1  0.5527710000000  0.5258280000000  0.5361460000000 1.0
C      1  0.4468260000000  0.4794920000000  0.5004670000000 1.0
C      1  0.5197800000000  0.4880110000000  0.5500240000000 1.0
END
