TITL C-9270-2362-335 -9.99151285298084e-07 125000 -370.664649459456 0 0 60 (C1) n - 1
REM
REM in /home/bkarasulu/CARBON/AIRSS/Generating-Clusters/EDIP-Nigel-Params/Higher-Symm/Box-15A/Only-C60/SD-CG/HFTN-CG
REM
REM
REM
REM
REM
REM ./C.cell (414f73aa93bd7a1190c7fd0f31ff2f98)
REM
REM compiler GCC version 9.2.1 20190827 (Red Hat 9.2.1-1)
REM options -cpp -mtune=generic -march=x86-64 -g -O0 -fpre-include=/usr/include/finclude/math-vector-fortran.h
REM seed -767917526 1745235756 -1349693755 -116550725 1520657837 1061350975 36000558 1599030444 -360253785 -1541388260 -1154811896 -1495326483 -1060493234 -522531819 -2009870925 -166576425 -1181243467 2030333628 2054559190 1632433044 510374225 388423659 -1131421231 -1712684470 801108064 991755501 1057548204 -1843729967 625716314 592549882 2024134383 1367787321 2063764524
REM
CELL 1.54180   50.00000   50.00000   50.00000   90.00000   90.00000   90.00000
LATT -1
SFAC C  
C      1  0.5384920000000  0.5562960000000  0.5287970000000 1.0
C      1  0.5567110000000  0.4824970000000  0.5388750000000 1.0
C      1  0.4327070000000  0.5261690000000  0.5010740000000 1.0
C      1  0.5172070000000  0.5068650000000  0.5229410000000 1.0
C      1  0.4994470000000  0.4430120000000  0.5503790000000 1.0
C      1  0.4701370000000  0.5159300000000  0.5343110000000 1.0
C      1  0.5265180000000  0.4793920000000  0.5334010000000 1.0
C      1  0.4929600000000  0.5344170000000  0.4459100000000 1.0
C      1  0.4547480000000  0.4801040000000  0.4455490000000 1.0
C      1  0.5625610000000  0.5060650000000  0.4949750000000 1.0
C      1  0.4495780000000  0.4567540000000  0.4881640000000 1.0
C      1  0.5240360000000  0.4601930000000  0.5112860000000 1.0
C      1  0.4450500000000  0.4319180000000  0.5031420000000 1.0
C      1  0.5455990000000  0.4558490000000  0.4692630000000 1.0
C      1  0.4835580000000  0.4440960000000  0.4534430000000 1.0
C      1  0.5671620000000  0.4805300000000  0.5101700000000 1.0
C      1  0.5121800000000  0.4673190000000  0.5574120000000 1.0
C      1  0.4578830000000  0.4373550000000  0.5279560000000 1.0
C      1  0.5114200000000  0.5432410000000  0.4681620000000 1.0
C      1  0.4937430000000  0.4880410000000  0.5674050000000 1.0
C      1  0.4819770000000  0.5039860000000  0.4114670000000 1.0
C      1  0.4909440000000  0.5149020000000  0.5095540000000 1.0
C      1  0.5484210000000  0.5052040000000  0.4702160000000 1.0
C      1  0.4285760000000  0.4784060000000  0.4949530000000 1.0
C      1  0.5027370000000  0.5161760000000  0.5699820000000 1.0
C      1  0.5410460000000  0.5737110000000  0.5487360000000 1.0
C      1  0.5203210000000  0.5720720000000  0.4709860000000 1.0
C      1  0.5356790000000  0.4819730000000  0.4600030000000 1.0
C      1  0.4977690000000  0.4474920000000  0.5029210000000 1.0
C      1  0.4586880000000  0.4693730000000  0.5312570000000 1.0
C      1  0.4817960000000  0.5324300000000  0.5567880000000 1.0
C      1  0.4750420000000  0.4686950000000  0.5010650000000 1.0
C      1  0.5009330000000  0.5865470000000  0.4856750000000 1.0
C      1  0.5564410000000  0.5581520000000  0.5064310000000 1.0
C      1  0.4339650000000  0.5049700000000  0.4823290000000 1.0
C      1  0.4558280000000  0.4538540000000  0.4591700000000 1.0
C      1  0.5357650000000  0.5287550000000  0.4645940000000 1.0
C      1  0.4734750000000  0.4787370000000  0.4217490000000 1.0
C      1  0.5505420000000  0.4571210000000  0.4986220000000 1.0
C      1  0.4403800000000  0.5140320000000  0.5252440000000 1.0
C      1  0.4600420000000  0.5024200000000  0.4673730000000 1.0
C      1  0.5122770000000  0.4857730000000  0.4428210000000 1.0
C      1  0.5457100000000  0.5708570000000  0.4836100000000 1.0
C      1  0.4725150000000  0.4897900000000  0.5475730000000 1.0
C      1  0.4335730000000  0.4846410000000  0.5234820000000 1.0
C      1  0.5275880000000  0.4345440000000  0.4652150000000 1.0
C      1  0.4670990000000  0.5274280000000  0.4545960000000 1.0
C      1  0.5028170000000  0.5111770000000  0.4294380000000 1.0
C      1  0.5368250000000  0.5267130000000  0.5349590000000 1.0
C      1  0.4893920000000  0.5672650000000  0.5025260000000 1.0
C      1  0.4962600000000  0.4628690000000  0.4330160000000 1.0
C      1  0.4843520000000  0.5594610000000  0.5519710000000 1.0
C      1  0.5399640000000  0.5212930000000  0.5652050000000 1.0
C      1  0.4968740000000  0.5405320000000  0.4948040000000 1.0
C      1  0.4828930000000  0.5726770000000  0.5288110000000 1.0
C      1  0.4813790000000  0.4949180000000  0.4887940000000 1.0
C      1  0.4870710000000  0.4323330000000  0.5274110000000 1.0
C      1  0.5013220000000  0.4340230000000  0.4753100000000 1.0
C      1  0.5628390000000  0.5064990000000  0.5541890000000 1.0
C      1  0.5671830000000  0.5321550000000  0.5045380000000 1.0
END
