TITL C-9268-6400-78 -9.49202384852176e-06 125000 -377.317306949594 0 0 60 (Ci) n - 1
REM
REM in /home/bkarasulu/CARBON/AIRSS/Generating-Clusters/EDIP-Nigel-Params/Higher-Symm/Box-15A/Only-C60/SD-CG/HFTN-CG
REM
REM
REM
REM
REM
REM ./C.cell (414f73aa93bd7a1190c7fd0f31ff2f98)
REM
REM compiler GCC version 9.2.1 20190827 (Red Hat 9.2.1-1)
REM options -cpp -mtune=generic -march=x86-64 -g -O0 -fpre-include=/usr/include/finclude/math-vector-fortran.h
REM seed 2015667765 -1674693684 509246767 -1633041411 -127813799 1294419981 2096165408 -1344150198 593996430 1447556748 186741528 1835897608 1231531826 2144637590 -1672897725 195609488 -1001122612 750821788 42511213 -383595566 1541781022 1805463226 -1867269952 -474005456 1616629946 1013431485 410279560 -639513345 419300762 1992408610 608417097 1852678797 -202508297
REM
CELL 1.54180   50.00000   50.00000   50.00000   90.00000   90.00000   90.00000
LATT -1
SFAC C  
C      1  0.4840620000000  0.4438460000000  0.4504920000000 1.0
C      1  0.5158640000000  0.4288560000000  0.5238460000000 1.0
C      1  0.4842020000000  0.4850030000000  0.5734420000000 1.0
C      1  0.5158560000000  0.5559880000000  0.5494610000000 1.0
C      1  0.4842600000000  0.5712310000000  0.4761520000000 1.0
C      1  0.5157560000000  0.5149980000000  0.4263180000000 1.0
C      1  0.5553070000000  0.5368840000000  0.4983130000000 1.0
C      1  0.4445750000000  0.5175910000000  0.4670740000000 1.0
C      1  0.5555150000000  0.4803160000000  0.4684760000000 1.0
C      1  0.4445110000000  0.4631440000000  0.5015720000000 1.0
C      1  0.5555140000000  0.4828140000000  0.5327960000000 1.0
C      1  0.4445660000000  0.5199050000000  0.5310910000000 1.0
C      1  0.4644800000000  0.4759080000000  0.5517000000000 1.0
C      1  0.5355130000000  0.5326250000000  0.5466560000000 1.0
C      1  0.4638170000000  0.5582650000000  0.4950330000000 1.0
C      1  0.5361420000000  0.5247880000000  0.4471000000000 1.0
C      1  0.4645130000000  0.4673160000000  0.4533740000000 1.0
C      1  0.5355320000000  0.4431360000000  0.5050210000000 1.0
C      1  0.4985400000000  0.5276420000000  0.5006160000000 1.0
C      1  0.5013570000000  0.5138840000000  0.4761810000000 1.0
C      1  0.4981570000000  0.4858140000000  0.4756550000000 1.0
C      1  0.5018110000000  0.4715230000000  0.4999130000000 1.0
C      1  0.4982450000000  0.4853730000000  0.5245090000000 1.0
C      1  0.5018730000000  0.5135330000000  0.5248760000000 1.0
C      1  0.4986430000000  0.4305930000000  0.4728280000000 1.0
C      1  0.5013330000000  0.4415650000000  0.5465660000000 1.0
C      1  0.4986120000000  0.5110820000000  0.5738370000000 1.0
C      1  0.5014710000000  0.5692600000000  0.5270170000000 1.0
C      1  0.4985430000000  0.5579620000000  0.4535290000000 1.0
C      1  0.5014010000000  0.4888200000000  0.4264140000000 1.0
C      1  0.5573320000000  0.5089890000000  0.4613300000000 1.0
C      1  0.4424240000000  0.4709680000000  0.4731600000000 1.0
C      1  0.5575850000000  0.4621570000000  0.5117930000000 1.0
C      1  0.4424650000000  0.4913860000000  0.5385750000000 1.0
C      1  0.5574980000000  0.5290290000000  0.5267210000000 1.0
C      1  0.4427160000000  0.5379950000000  0.4884250000000 1.0
C      1  0.4639380000000  0.4433160000000  0.5121090000000 1.0
C      1  0.5360270000000  0.4820510000000  0.5551860000000 1.0
C      1  0.4641290000000  0.5388410000000  0.5428130000000 1.0
C      1  0.5355630000000  0.5564060000000  0.4878120000000 1.0
C      1  0.4643670000000  0.5179950000000  0.4449150000000 1.0
C      1  0.5359780000000  0.4612150000000  0.4569130000000 1.0
C      1  0.5720280000000  0.4697680000000  0.4887640000000 1.0
C      1  0.4277010000000  0.4752060000000  0.5207460000000 1.0
C      1  0.5722570000000  0.5055030000000  0.5318310000000 1.0
C      1  0.4277050000000  0.5305630000000  0.5111690000000 1.0
C      1  0.5722480000000  0.5250900000000  0.4791080000000 1.0
C      1  0.4280690000000  0.4947340000000  0.4680970000000 1.0
C      1  0.5292170000000  0.5529470000000  0.4581840000000 1.0
C      1  0.4707210000000  0.4904000000000  0.4336390000000 1.0
C      1  0.5293850000000  0.4376770000000  0.4751370000000 1.0
C      1  0.4705800000000  0.4472490000000  0.5415670000000 1.0
C      1  0.5293790000000  0.5095670000000  0.5664610000000 1.0
C      1  0.4707190000000  0.5627200000000  0.5249780000000 1.0
C      1  0.4918570000000  0.4432970000000  0.4999490000000 1.0
C      1  0.5081490000000  0.4713940000000  0.5490450000000 1.0
C      1  0.4918820000000  0.5279920000000  0.5491120000000 1.0
C      1  0.5076180000000  0.5560410000000  0.5000360000000 1.0
C      1  0.4923580000000  0.5279980000000  0.4514720000000 1.0
C      1  0.5081310000000  0.4718400000000  0.4510920000000 1.0
END
