TITL C-9260-5597-65 -1.37731976643997e-07 125000 -391.467711235592 0 0 60 (Ih) n - 1
REM
REM in /home/bkarasulu/CARBON/AIRSS/Generating-Clusters/EDIP-Nigel-Params/Higher-Symm/Box-15A/Only-C60/SD-CG/HFTN-CG
REM
REM
REM
REM
REM
REM ./C.cell (414f73aa93bd7a1190c7fd0f31ff2f98)
REM
REM compiler GCC version 9.2.1 20190827 (Red Hat 9.2.1-1)
REM options -cpp -mtune=generic -march=x86-64 -g -O0 -fpre-include=/usr/include/finclude/math-vector-fortran.h
REM seed -1986735448 -1918496270 -2065459704 -1545397545 -1634782843 177301506 -811176429 -1205898073 768253108 -962581413 -1075631059 -1295173787 1101749357 -88034705 -1490717433 769501402 -1210136022 -1615549068 73229674 -1995808286 -613857114 249018034 -497909634 770918301 1843984020 2108100315 786130152 1991348644 -72819757 -177337744 1788162685 34344901 816406710
REM
CELL 1.54180   50.00000   50.00000   50.00000   90.00000   90.00000   90.00000
LATT -1
SFAC C  
C      1  0.4362910000000  0.5266840000000  0.5259480000000 1.0
C      1  0.5259210000000  0.4360510000000  0.5261290000000 1.0
C      1  0.5287950000000  0.5283520000000  0.4382650000000 1.0
C      1  0.5621250000000  0.5327440000000  0.4773630000000 1.0
C      1  0.4376270000000  0.4699300000000  0.4745130000000 1.0
C      1  0.5639570000000  0.4706420000000  0.5221760000000 1.0
C      1  0.4774340000000  0.4380610000000  0.4668570000000 1.0
C      1  0.5222600000000  0.5652430000000  0.4736950000000 1.0
C      1  0.4743850000000  0.5606450000000  0.5333190000000 1.0
C      1  0.4699230000000  0.5197550000000  0.5644150000000 1.0
C      1  0.5307250000000  0.4732460000000  0.5615170000000 1.0
C      1  0.4705570000000  0.4786470000000  0.4358020000000 1.0
C      1  0.4378750000000  0.4672560000000  0.5226370000000 1.0
C      1  0.5225660000000  0.5619390000000  0.5331430000000 1.0
C      1  0.5300770000000  0.4802450000000  0.4355850000000 1.0
C      1  0.5637090000000  0.4733160000000  0.4740520000000 1.0
C      1  0.4360430000000  0.5293580000000  0.4778240000000 1.0
C      1  0.5623730000000  0.5300700000000  0.5254870000000 1.0
C      1  0.4740790000000  0.5639490000000  0.4738710000000 1.0
C      1  0.5256150000000  0.4393550000000  0.4666810000000 1.0
C      1  0.4777400000000  0.4347570000000  0.5263050000000 1.0
C      1  0.4712050000000  0.4716480000000  0.5617350000000 1.0
C      1  0.5294430000000  0.5213530000000  0.5641980000000 1.0
C      1  0.4692750000000  0.5267540000000  0.4384830000000 1.0
C      1  0.4503380000000  0.5533010000000  0.4883000000000 1.0
C      1  0.4866690000000  0.4485330000000  0.5511620000000 1.0
C      1  0.5539990000000  0.4892530000000  0.4508800000000 1.0
C      1  0.5467960000000  0.5542340000000  0.5176910000000 1.0
C      1  0.4533570000000  0.4441130000000  0.5120510000000 1.0
C      1  0.5495090000000  0.4483520000000  0.4819570000000 1.0
C      1  0.5158930000000  0.4553110000000  0.4434810000000 1.0
C      1  0.4835530000000  0.5506680000000  0.4489470000000 1.0
C      1  0.5138840000000  0.5454890000000  0.5564110000000 1.0
C      1  0.4467930000000  0.4810150000000  0.5474640000000 1.0
C      1  0.5537020000000  0.5136390000000  0.5487270000000 1.0
C      1  0.4455060000000  0.5160930000000  0.4529300000000 1.0
C      1  0.4532040000000  0.4457660000000  0.4823090000000 1.0
C      1  0.4841070000000  0.5446890000000  0.5565190000000 1.0
C      1  0.5532070000000  0.5189850000000  0.4525360000000 1.0
C      1  0.5496620000000  0.4466990000000  0.5117000000000 1.0
C      1  0.4504910000000  0.5516480000000  0.5180430000000 1.0
C      1  0.5466430000000  0.5558870000000  0.4879490000000 1.0
C      1  0.5133310000000  0.5514670000000  0.4488380000000 1.0
C      1  0.4861160000000  0.4545110000000  0.4435890000000 1.0
C      1  0.5164470000000  0.4493320000000  0.5510530000000 1.0
C      1  0.4460010000000  0.5107470000000  0.5491200000000 1.0
C      1  0.5544940000000  0.4839070000000  0.5470700000000 1.0
C      1  0.4462980000000  0.4863610000000  0.4512730000000 1.0
C      1  0.4273610000000  0.5129080000000  0.5010910000000 1.0
C      1  0.4855000000000  0.4955900000000  0.5722110000000 1.0
C      1  0.5726390000000  0.4870920000000  0.4989090000000 1.0
C      1  0.5145000000000  0.5044100000000  0.4277890000000 1.0
C      1  0.5019990000000  0.4270430000000  0.5108340000000 1.0
C      1  0.4980010000000  0.5729570000000  0.4891660000000 1.0
C      1  0.5152420000000  0.4963890000000  0.5721030000000 1.0
C      1  0.4847580000000  0.5036110000000  0.4278970000000 1.0
C      1  0.5718470000000  0.5167880000000  0.5005630000000 1.0
C      1  0.4281530000000  0.4832120000000  0.4994370000000 1.0
C      1  0.5018460000000  0.4286940000000  0.4811280000000 1.0
C      1  0.4981540000000  0.5713060000000  0.5188720000000 1.0
END
