TITL C-9263-351-225 -1.82288576565158e-05 125000 -353.422420968151 0 0 60 (C1) n - 1
REM
REM in /home/bkarasulu/CARBON/AIRSS/Generating-Clusters/EDIP-Nigel-Params/Higher-Symm/Box-15A/Only-C60/SD-CG/HFTN-CG
REM
REM
REM
REM
REM
REM ./C.cell (414f73aa93bd7a1190c7fd0f31ff2f98)
REM
REM compiler GCC version 9.2.1 20190827 (Red Hat 9.2.1-1)
REM options -cpp -mtune=generic -march=x86-64 -g -O0 -fpre-include=/usr/include/finclude/math-vector-fortran.h
REM seed -713839735 -1153641436 -1619632461 -1741669181 1970929683 -1815194970 -1762603595 -360632915 2127573668 -1169841366 -604146586 2036456865 1611252820 24011181 579547351 510293460 -42248824 -1752559326 -959310548 267781460 273990338 -1916004784 247526516 1205215492 -736776553 913709630 825589574 501389807 1907949365 2138141260 -1297526008 1928137756 -1159747587
REM
CELL 1.54180   50.00000   50.00000   50.00000   90.00000   90.00000   90.00000
LATT -1
SFAC C  
C      1  0.5544940000000  0.4840450000000  0.5183940000000 1.0
C      1  0.5432600000000  0.4740040000000  0.4947300000000 1.0
C      1  0.5458130000000  0.4930430000000  0.4729950000000 1.0
C      1  0.5391920000000  0.5207080000000  0.4786860000000 1.0
C      1  0.5512430000000  0.5288750000000  0.5026930000000 1.0
C      1  0.5433740000000  0.5095640000000  0.5214340000000 1.0
C      1  0.5192130000000  0.5705720000000  0.5340480000000 1.0
C      1  0.5344870000000  0.5076650000000  0.5747050000000 1.0
C      1  0.5239910000000  0.4421210000000  0.5479130000000 1.0
C      1  0.5246760000000  0.4253240000000  0.4727800000000 1.0
C      1  0.5337550000000  0.4807620000000  0.4295880000000 1.0
C      1  0.5219610000000  0.5644520000000  0.4498380000000 1.0
C      1  0.5443900000000  0.5602240000000  0.4329270000000 1.0
C      1  0.5453490000000  0.5797120000000  0.5277310000000 1.0
C      1  0.5599650000000  0.5195430000000  0.5788470000000 1.0
C      1  0.5484720000000  0.4468990000000  0.5614900000000 1.0
C      1  0.5495930000000  0.4144370000000  0.4809360000000 1.0
C      1  0.5527120000000  0.4595580000000  0.4283080000000 1.0
C      1  0.4649460000000  0.5207590000000  0.4772600000000 1.0
C      1  0.4697900000000  0.5273390000000  0.5064950000000 1.0
C      1  0.4613210000000  0.5070280000000  0.5263150000000 1.0
C      1  0.4725160000000  0.4811590000000  0.5165510000000 1.0
C      1  0.4702860000000  0.4751010000000  0.4868140000000 1.0
C      1  0.4572140000000  0.4935150000000  0.4678140000000 1.0
C      1  0.4734770000000  0.5702350000000  0.5186410000000 1.0
C      1  0.4886560000000  0.5187990000000  0.5700030000000 1.0
C      1  0.4764850000000  0.4499620000000  0.5499330000000 1.0
C      1  0.4794540000000  0.4320110000000  0.4868630000000 1.0
C      1  0.4867550000000  0.4873090000000  0.4262850000000 1.0
C      1  0.4755020000000  0.5549730000000  0.4524330000000 1.0
C      1  0.5136990000000  0.4689370000000  0.4955890000000 1.0
C      1  0.5072710000000  0.4908650000000  0.4713280000000 1.0
C      1  0.5092590000000  0.5247600000000  0.4779750000000 1.0
C      1  0.4997620000000  0.5317730000000  0.5080950000000 1.0
C      1  0.5143300000000  0.5100930000000  0.5287530000000 1.0
C      1  0.5021390000000  0.4800400000000  0.5229620000000 1.0
C      1  0.5021300000000  0.4605950000000  0.5459110000000 1.0
C      1  0.5063820000000  0.4395890000000  0.4897780000000 1.0
C      1  0.5080800000000  0.4809550000000  0.4427280000000 1.0
C      1  0.5015780000000  0.5450910000000  0.4559590000000 1.0
C      1  0.4997970000000  0.5610510000000  0.5152080000000 1.0
C      1  0.5134150000000  0.5178630000000  0.5578900000000 1.0
C      1  0.5308640000000  0.4297030000000  0.5724860000000 1.0
C      1  0.5294310000000  0.3974590000000  0.4752730000000 1.0
C      1  0.5380980000000  0.4650160000000  0.4063120000000 1.0
C      1  0.5244630000000  0.5760580000000  0.4240470000000 1.0
C      1  0.5268660000000  0.5978790000000  0.5351440000000 1.0
C      1  0.5419760000000  0.5205160000000  0.5988940000000 1.0
C      1  0.4240870000000  0.5279460000000  0.5084540000000 1.0
C      1  0.4319520000000  0.5057550000000  0.5264220000000 1.0
C      1  0.4264260000000  0.4774200000000  0.5195330000000 1.0
C      1  0.4266110000000  0.4700150000000  0.4917590000000 1.0
C      1  0.4274900000000  0.4919890000000  0.4718250000000 1.0
C      1  0.4255270000000  0.5222980000000  0.4796560000000 1.0
C      1  0.4644810000000  0.4892270000000  0.4406800000000 1.0
C      1  0.4523960000000  0.5426800000000  0.4620460000000 1.0
C      1  0.4537730000000  0.5513660000000  0.5128890000000 1.0
C      1  0.4696680000000  0.5133880000000  0.5523700000000 1.0
C      1  0.4579210000000  0.4606710000000  0.5321690000000 1.0
C      1  0.4577900000000  0.4493020000000  0.4844170000000 1.0
END
