TITL C-9258-7861-209 6.65987709222007e-07 125000 -359.996433119482 0 0 60 (C1) n - 1
REM
REM in /home/bkarasulu/CARBON/AIRSS/Generating-Clusters/EDIP-Nigel-Params/Higher-Symm/Box-15A/Only-C60/SD-CG/HFTN-CG
REM
REM
REM
REM
REM
REM ./C.cell (414f73aa93bd7a1190c7fd0f31ff2f98)
REM
REM compiler GCC version 9.2.1 20190827 (Red Hat 9.2.1-1)
REM options -cpp -mtune=generic -march=x86-64 -g -O0 -fpre-include=/usr/include/finclude/math-vector-fortran.h
REM seed -1056566950 1385498184 1086710049 -1757318300 -855210424 406920179 1263179070 -105975297 919438090 -1981899179 649982536 -1832333832 2010094553 -428052933 -823339293 -796560462 -2043955824 -2094919587 510238511 792208532 -514852723 188739446 -1546785707 -908586252 1938658359 864276787 1525242915 1004471040 -935933359 1116928009 1704391017 -811771042 968915844
REM
CELL 1.54180   50.00000   50.00000   50.00000   90.00000   90.00000   90.00000
LATT -1
SFAC C  
C      1  0.5157650000000  0.5279910000000  0.5153330000000 1.0
C      1  0.4795790000000  0.5292290000000  0.4811520000000 1.0
C      1  0.5177380000000  0.5288630000000  0.4850480000000 1.0
C      1  0.4822940000000  0.5287910000000  0.5117020000000 1.0
C      1  0.5309820000000  0.5551110000000  0.4837500000000 1.0
C      1  0.4705850000000  0.5558700000000  0.5152370000000 1.0
C      1  0.5363000000000  0.5613380000000  0.5120590000000 1.0
C      1  0.4646380000000  0.5647340000000  0.4875690000000 1.0
C      1  0.4726680000000  0.4549250000000  0.4220530000000 1.0
C      1  0.5294160000000  0.4571290000000  0.5783680000000 1.0
C      1  0.4724130000000  0.4656020000000  0.5776670000000 1.0
C      1  0.5182870000000  0.4732070000000  0.4291940000000 1.0
C      1  0.4856790000000  0.4424320000000  0.4469410000000 1.0
C      1  0.5155880000000  0.4471470000000  0.5539380000000 1.0
C      1  0.4852650000000  0.4537520000000  0.5538700000000 1.0
C      1  0.5162470000000  0.4501520000000  0.4469690000000 1.0
C      1  0.5305830000000  0.4535870000000  0.5284220000000 1.0
C      1  0.4711790000000  0.4507840000000  0.4725390000000 1.0
C      1  0.5307950000000  0.4526410000000  0.4731200000000 1.0
C      1  0.4696720000000  0.4544530000000  0.5285620000000 1.0
C      1  0.4889120000000  0.4540900000000  0.3987100000000 1.0
C      1  0.5129490000000  0.4546580000000  0.6009360000000 1.0
C      1  0.4868740000000  0.4615280000000  0.6011900000000 1.0
C      1  0.5095000000000  0.4716090000000  0.4037260000000 1.0
C      1  0.4627750000000  0.4806490000000  0.4274120000000 1.0
C      1  0.5376880000000  0.4831280000000  0.5727920000000 1.0
C      1  0.4614470000000  0.4908080000000  0.5727820000000 1.0
C      1  0.5374820000000  0.4918230000000  0.4257230000000 1.0
C      1  0.4822780000000  0.5262500000000  0.4311650000000 1.0
C      1  0.5184520000000  0.5279270000000  0.5681240000000 1.0
C      1  0.4820310000000  0.5345080000000  0.5634360000000 1.0
C      1  0.5186280000000  0.5356030000000  0.4362580000000 1.0
C      1  0.5373140000000  0.5141820000000  0.4431280000000 1.0
C      1  0.4645670000000  0.5125310000000  0.5555110000000 1.0
C      1  0.5309100000000  0.5046360000000  0.5565210000000 1.0
C      1  0.4660890000000  0.5045880000000  0.4410270000000 1.0
C      1  0.5293810000000  0.5520340000000  0.5597090000000 1.0
C      1  0.4751620000000  0.5503140000000  0.4429610000000 1.0
C      1  0.5239670000000  0.5621750000000  0.4463190000000 1.0
C      1  0.4767320000000  0.5609680000000  0.5529940000000 1.0
C      1  0.5222280000000  0.5659680000000  0.5366400000000 1.0
C      1  0.4793340000000  0.5692490000000  0.4630000000000 1.0
C      1  0.5068520000000  0.5772370000000  0.4638220000000 1.0
C      1  0.4953370000000  0.5755810000000  0.5367910000000 1.0
C      1  0.5574710000000  0.4898180000000  0.4854270000000 1.0
C      1  0.4425450000000  0.4890540000000  0.5139630000000 1.0
C      1  0.5572630000000  0.4903770000000  0.5155540000000 1.0
C      1  0.4430270000000  0.4870200000000  0.4838360000000 1.0
C      1  0.5152010000000  0.4761810000000  0.5166790000000 1.0
C      1  0.4850860000000  0.4741410000000  0.4839130000000 1.0
C      1  0.5158130000000  0.4753720000000  0.4838000000000 1.0
C      1  0.4844580000000  0.4756600000000  0.5150940000000 1.0
C      1  0.5577210000000  0.4638800000000  0.5278110000000 1.0
C      1  0.4439840000000  0.4601670000000  0.4728420000000 1.0
C      1  0.5574490000000  0.4632510000000  0.4740280000000 1.0
C      1  0.4426570000000  0.4637550000000  0.5278060000000 1.0
C      1  0.4651400000000  0.5046130000000  0.4702800000000 1.0
C      1  0.5298510000000  0.5022950000000  0.5265500000000 1.0
C      1  0.4650210000000  0.5075030000000  0.5261740000000 1.0
C      1  0.5347490000000  0.5071300000000  0.4720740000000 1.0
END
