TITL C-9264-7143-18 -5.38431139263166e-06 125000 -355.657780308591 0 0 60 (C1) n - 1
REM
REM in /home/bkarasulu/CARBON/AIRSS/Generating-Clusters/EDIP-Nigel-Params/Higher-Symm/Box-15A/Only-C60/SD-CG/HFTN-CG
REM
REM
REM
REM
REM
REM ./C.cell (414f73aa93bd7a1190c7fd0f31ff2f98)
REM
REM compiler GCC version 9.2.1 20190827 (Red Hat 9.2.1-1)
REM options -cpp -mtune=generic -march=x86-64 -g -O0 -fpre-include=/usr/include/finclude/math-vector-fortran.h
REM seed -532240009 -1074849066 1425001729 836652968 -1182421920 1686219483 1666072255 -1090947250 821746778 1266966804 -223163506 -408376862 488243295 1722887453 1137250373 1626470702 2044717730 -7055685 -428257140 613444742 1525855569 -1011616034 -1048952655 -1738008535 -473160401 1472888460 -1660924829 -1172768282 1515819892 -708089990 1993411504 736750429 618477057
REM
CELL 1.54180   50.00000   50.00000   50.00000   90.00000   90.00000   90.00000
LATT -1
SFAC C  
C      1  0.4739020000000  0.4270020000000  0.4682030000000 1.0
C      1  0.4582550000000  0.4138910000000  0.5331320000000 1.0
C      1  0.5211680000000  0.4320480000000  0.5356210000000 1.0
C      1  0.5303610000000  0.4405730000000  0.4806760000000 1.0
C      1  0.4797010000000  0.5639940000000  0.5385760000000 1.0
C      1  0.4610560000000  0.5801100000000  0.4789810000000 1.0
C      1  0.5313930000000  0.5728810000000  0.4679180000000 1.0
C      1  0.5443600000000  0.5649270000000  0.5315030000000 1.0
C      1  0.4770940000000  0.4690230000000  0.4721110000000 1.0
C      1  0.4563870000000  0.4841960000000  0.5240920000000 1.0
C      1  0.5265790000000  0.4793360000000  0.5350540000000 1.0
C      1  0.5532930000000  0.4843000000000  0.4635540000000 1.0
C      1  0.4716620000000  0.5285300000000  0.5149590000000 1.0
C      1  0.4491910000000  0.5093120000000  0.4694160000000 1.0
C      1  0.5445640000000  0.5305570000000  0.4659230000000 1.0
C      1  0.5314730000000  0.5265650000000  0.5183610000000 1.0
C      1  0.5132280000000  0.4758270000000  0.5603410000000 1.0
C      1  0.5752920000000  0.4689490000000  0.4709850000000 1.0
C      1  0.4615150000000  0.4732940000000  0.4351760000000 1.0
C      1  0.4324530000000  0.4706280000000  0.5219800000000 1.0
C      1  0.5300980000000  0.5326020000000  0.4409210000000 1.0
C      1  0.5677590000000  0.5098760000000  0.5193970000000 1.0
C      1  0.4677750000000  0.5147380000000  0.5602160000000 1.0
C      1  0.4251580000000  0.5216140000000  0.4756170000000 1.0
C      1  0.4829990000000  0.5804820000000  0.4639970000000 1.0
C      1  0.4563580000000  0.5630580000000  0.5240640000000 1.0
C      1  0.5248110000000  0.5580510000000  0.5483650000000 1.0
C      1  0.5518610000000  0.5695440000000  0.4851870000000 1.0
C      1  0.4787720000000  0.4167550000000  0.5498870000000 1.0
C      1  0.4603020000000  0.4327640000000  0.4903320000000 1.0
C      1  0.5170640000000  0.4379400000000  0.4574720000000 1.0
C      1  0.5385020000000  0.4524350000000  0.5275980000000 1.0
C      1  0.5739880000000  0.5350140000000  0.5104500000000 1.0
C      1  0.5031540000000  0.5375040000000  0.4505080000000 1.0
C      1  0.4299250000000  0.5450330000000  0.4877250000000 1.0
C      1  0.4945350000000  0.5222680000000  0.5546410000000 1.0
C      1  0.5752060000000  0.4550250000000  0.4940890000000 1.0
C      1  0.4995870000000  0.4546690000000  0.5701640000000 1.0
C      1  0.4258250000000  0.4448950000000  0.5190380000000 1.0
C      1  0.4800550000000  0.4534910000000  0.4308810000000 1.0
C      1  0.5278670000000  0.4839990000000  0.4812130000000 1.0
C      1  0.5023990000000  0.4853880000000  0.4630840000000 1.0
C      1  0.4766150000000  0.4843880000000  0.5014950000000 1.0
C      1  0.5056930000000  0.4887870000000  0.5135140000000 1.0
C      1  0.5273880000000  0.5171610000000  0.4870570000000 1.0
C      1  0.5010320000000  0.5188240000000  0.5249040000000 1.0
C      1  0.4722010000000  0.5126330000000  0.4882480000000 1.0
C      1  0.4983510000000  0.5154680000000  0.4714910000000 1.0
C      1  0.4987140000000  0.5516370000000  0.5549380000000 1.0
C      1  0.5601540000000  0.5591110000000  0.5095760000000 1.0
C      1  0.5053380000000  0.5642550000000  0.4623570000000 1.0
C      1  0.4497920000000  0.5621210000000  0.4964870000000 1.0
C      1  0.4911950000000  0.4346720000000  0.4481260000000 1.0
C      1  0.5481360000000  0.4497410000000  0.5002280000000 1.0
C      1  0.5014950000000  0.4314000000000  0.5550660000000 1.0
C      1  0.4450280000000  0.4261140000000  0.5122530000000 1.0
C      1  0.5593500000000  0.5099610000000  0.4528230000000 1.0
C      1  0.5450220000000  0.5036850000000  0.5350410000000 1.0
C      1  0.4563560000000  0.5113140000000  0.5347100000000 1.0
C      1  0.4512120000000  0.4816470000000  0.4602770000000 1.0
END
