TITL C-9265-7156-70 0.000183999536999998 125000 -358.663071217283 0 0 60 (C1) n - 1
REM
REM in /home/bkarasulu/CARBON/AIRSS/Generating-Clusters/EDIP-Nigel-Params/Higher-Symm/Box-15A/Only-C60/SD-CG/HFTN-CG
REM
REM
REM
REM
REM
REM ./C.cell (414f73aa93bd7a1190c7fd0f31ff2f98)
REM
REM compiler GCC version 9.2.1 20190827 (Red Hat 9.2.1-1)
REM options -cpp -mtune=generic -march=x86-64 -g -O0 -fpre-include=/usr/include/finclude/math-vector-fortran.h
REM seed 951338917 -1502158389 1769728282 -170060156 1773188191 -1993491874 -207704509 2024880682 1414064452 -459329327 400881366 -393428228 -1227411591 830396351 -2019182614 1483169330 422832573 -792580081 -170744096 342538309 1382247001 -1624296777 239884503 -1666157552 1074761657 -1545272390 -1327416395 -1604411629 148430491 -1785477047 -887100014 -174166541 882069812
REM
CELL 1.54180   50.00000   50.00000   50.00000   90.00000   90.00000   90.00000
LATT -1
SFAC C  
C      1  0.4940870000000  0.5270430000000  0.4462490000000 1.0
C      1  0.4839870000000  0.4660400000000  0.5233260000000 1.0
C      1  0.5754440000000  0.5271060000000  0.5257670000000 1.0
C      1  0.5166120000000  0.4637370000000  0.4304670000000 1.0
C      1  0.5011850000000  0.5520800000000  0.4823890000000 1.0
C      1  0.4433000000000  0.4475260000000  0.4723320000000 1.0
C      1  0.4733700000000  0.5148060000000  0.5214610000000 1.0
C      1  0.4673260000000  0.4989190000000  0.4907620000000 1.0
C      1  0.4353590000000  0.4659730000000  0.5416770000000 1.0
C      1  0.4584780000000  0.5408110000000  0.4808620000000 1.0
C      1  0.5136230000000  0.4983690000000  0.5013690000000 1.0
C      1  0.5072330000000  0.5020870000000  0.5845430000000 1.0
C      1  0.5580450000000  0.4784280000000  0.4226220000000 1.0
C      1  0.4839380000000  0.5105020000000  0.4242910000000 1.0
C      1  0.4953380000000  0.4943510000000  0.5246130000000 1.0
C      1  0.4941880000000  0.5146080000000  0.4831600000000 1.0
C      1  0.5434950000000  0.4749860000000  0.4698730000000 1.0
C      1  0.5185220000000  0.5625280000000  0.4617080000000 1.0
C      1  0.5693920000000  0.4867430000000  0.5088230000000 1.0
C      1  0.5582570000000  0.5205890000000  0.5490860000000 1.0
C      1  0.4620720000000  0.4574880000000  0.5436330000000 1.0
C      1  0.5318760000000  0.4813970000000  0.4122380000000 1.0
C      1  0.4633880000000  0.4307980000000  0.4806310000000 1.0
C      1  0.5629010000000  0.5201690000000  0.4749890000000 1.0
C      1  0.5083720000000  0.4490240000000  0.5320280000000 1.0
C      1  0.4960310000000  0.4724900000000  0.4489090000000 1.0
C      1  0.4256040000000  0.4855190000000  0.4960180000000 1.0
C      1  0.5424320000000  0.4937270000000  0.5472230000000 1.0
C      1  0.4938870000000  0.5524560000000  0.5309820000000 1.0
C      1  0.4966730000000  0.4596230000000  0.4759810000000 1.0
C      1  0.4740990000000  0.4882420000000  0.4384570000000 1.0
C      1  0.5230910000000  0.4838420000000  0.5685390000000 1.0
C      1  0.4553560000000  0.5081670000000  0.5443730000000 1.0
C      1  0.5066730000000  0.4597130000000  0.5620370000000 1.0
C      1  0.5648250000000  0.4915930000000  0.4808430000000 1.0
C      1  0.5372050000000  0.5408900000000  0.5447790000000 1.0
C      1  0.5220120000000  0.5399750000000  0.4454570000000 1.0
C      1  0.5528420000000  0.4732390000000  0.5281190000000 1.0
C      1  0.5456990000000  0.5271970000000  0.4535830000000 1.0
C      1  0.4548560000000  0.5600250000000  0.5014220000000 1.0
C      1  0.4727810000000  0.5455640000000  0.4564480000000 1.0
C      1  0.5220210000000  0.4703740000000  0.4901900000000 1.0
C      1  0.5382590000000  0.5499170000000  0.5167830000000 1.0
C      1  0.5322120000000  0.4556200000000  0.5149320000000 1.0
C      1  0.4971480000000  0.5260100000000  0.5740330000000 1.0
C      1  0.4308030000000  0.5342230000000  0.4855350000000 1.0
C      1  0.4734960000000  0.4675910000000  0.4941130000000 1.0
C      1  0.5699410000000  0.5371440000000  0.4985140000000 1.0
C      1  0.4360000000000  0.4745910000000  0.4716800000000 1.0
C      1  0.5395910000000  0.5118000000000  0.5110120000000 1.0
C      1  0.4217630000000  0.5127380000000  0.5020720000000 1.0
C      1  0.4322250000000  0.4929020000000  0.5334810000000 1.0
C      1  0.5449530000000  0.4615450000000  0.4429460000000 1.0
C      1  0.4771110000000  0.4671110000000  0.5673560000000 1.0
C      1  0.5087460000000  0.5369480000000  0.5503990000000 1.0
C      1  0.4658580000000  0.5521730000000  0.5260850000000 1.0
C      1  0.4721290000000  0.4975290000000  0.5686050000000 1.0
C      1  0.5112950000000  0.5591890000000  0.5090750000000 1.0
C      1  0.4907800000000  0.4310940000000  0.4750770000000 1.0
C      1  0.4518120000000  0.4931350000000  0.4560440000000 1.0
END
