TITL C-9256-7861-32 -7.6342421176104e-06 125000 -381.541924387583 0 0 60 (D2) n - 1
REM
REM in /home/bkarasulu/CARBON/AIRSS/Generating-Clusters/EDIP-Nigel-Params/Higher-Symm/Box-15A/Only-C60/SD-CG/HFTN-CG
REM
REM
REM
REM
REM
REM ./C.cell (414f73aa93bd7a1190c7fd0f31ff2f98)
REM
REM compiler GCC version 9.2.1 20190827 (Red Hat 9.2.1-1)
REM options -cpp -mtune=generic -march=x86-64 -g -O0 -fpre-include=/usr/include/finclude/math-vector-fortran.h
REM seed -964187344 442331366 1165203221 480216261 87367131 614555270 -1631994518 2127842523 -2146661321 1105817475 553208996 -1419757096 -1928689006 -1288509456 534801693 537405104 -484354744 -1167247679 980244568 -582556259 -260329439 -637105116 1440553192 1635170540 -328814031 -1852692026 -1332676125 -647854 -1787075227 1975805049 -940648963 -876511429 319869662
REM
CELL 1.54180   50.00000   50.00000   50.00000   90.00000   90.00000   90.00000
LATT -1
SFAC C  
C      1  0.5219520000000  0.5550920000000  0.4351250000000 1.0
C      1  0.5238520000000  0.5856570000000  0.5149590000000 1.0
C      1  0.5229320000000  0.5291310000000  0.5805710000000 1.0
C      1  0.5214760000000  0.4445280000000  0.5647100000000 1.0
C      1  0.5222360000000  0.4139400000000  0.4848660000000 1.0
C      1  0.5218070000000  0.4704780000000  0.4192590000000 1.0
C      1  0.4775630000000  0.4461340000000  0.4342670000000 1.0
C      1  0.4762540000000  0.4140760000000  0.5135240000000 1.0
C      1  0.4776640000000  0.4693600000000  0.5801780000000 1.0
C      1  0.4790080000000  0.5542460000000  0.5658980000000 1.0
C      1  0.4776590000000  0.5863280000000  0.4866500000000 1.0
C      1  0.4775970000000  0.5310320000000  0.4199920000000 1.0
C      1  0.5010340000000  0.5735210000000  0.5260810000000 1.0
C      1  0.4996950000000  0.5135820000000  0.5775880000000 1.0
C      1  0.4979980000000  0.4388740000000  0.5502870000000 1.0
C      1  0.4995500000000  0.4264740000000  0.4739170000000 1.0
C      1  0.4988690000000  0.4864300000000  0.4224180000000 1.0
C      1  0.4986870000000  0.5611550000000  0.4497260000000 1.0
C      1  0.4991540000000  0.4260020000000  0.5247030000000 1.0
C      1  0.5008790000000  0.4849630000000  0.5773150000000 1.0
C      1  0.5023790000000  0.5601710000000  0.5514100000000 1.0
C      1  0.5002620000000  0.5740030000000  0.4753000000000 1.0
C      1  0.5005560000000  0.5150240000000  0.4226800000000 1.0
C      1  0.5009360000000  0.4398000000000  0.4485780000000 1.0
C      1  0.4528540000000  0.5211230000000  0.4804020000000 1.0
C      1  0.4533800000000  0.5279490000000  0.5082230000000 1.0
C      1  0.4531010000000  0.5072140000000  0.5280160000000 1.0
C      1  0.4526410000000  0.4797040000000  0.5199560000000 1.0
C      1  0.4528370000000  0.4728720000000  0.4921320000000 1.0
C      1  0.4527710000000  0.4936090000000  0.4723410000000 1.0
C      1  0.5469980000000  0.4792520000000  0.4796600000000 1.0
C      1  0.5466780000000  0.4719050000000  0.5073510000000 1.0
C      1  0.5471050000000  0.4922640000000  0.5275270000000 1.0
C      1  0.5475070000000  0.5199210000000  0.5199820000000 1.0
C      1  0.5471060000000  0.5272750000000  0.4922930000000 1.0
C      1  0.5470230000000  0.5069120000000  0.4721160000000 1.0
C      1  0.4564800000000  0.5139390000000  0.5547920000000 1.0
C      1  0.4553430000000  0.4598400000000  0.5392200000000 1.0
C      1  0.4561590000000  0.4462560000000  0.4847260000000 1.0
C      1  0.4558280000000  0.4868280000000  0.4455400000000 1.0
C      1  0.4557560000000  0.5409370000000  0.4611170000000 1.0
C      1  0.4572230000000  0.5545020000000  0.5156020000000 1.0
C      1  0.5439250000000  0.4850370000000  0.5541970000000 1.0
C      1  0.5449500000000  0.5394190000000  0.5396340000000 1.0
C      1  0.5437300000000  0.5540250000000  0.4854130000000 1.0
C      1  0.5437670000000  0.5141950000000  0.4454710000000 1.0
C      1  0.5439520000000  0.4598030000000  0.4600290000000 1.0
C      1  0.5428870000000  0.4452170000000  0.5142580000000 1.0
C      1  0.5255930000000  0.5279750000000  0.4293940000000 1.0
C      1  0.5256940000000  0.5750450000000  0.4891300000000 1.0
C      1  0.5269800000000  0.5471380000000  0.5595360000000 1.0
C      1  0.5256340000000  0.4715770000000  0.5704120000000 1.0
C      1  0.5244590000000  0.4245170000000  0.5106800000000 1.0
C      1  0.5256990000000  0.4524010000000  0.4402640000000 1.0
C      1  0.4738820000000  0.4733540000000  0.4290730000000 1.0
C      1  0.4742200000000  0.4251710000000  0.4879130000000 1.0
C      1  0.4734590000000  0.4517510000000  0.5588390000000 1.0
C      1  0.4748910000000  0.5270940000000  0.5711210000000 1.0
C      1  0.4756260000000  0.5752680000000  0.5122770000000 1.0
C      1  0.4738620000000  0.5487100000000  0.4413600000000 1.0
END
