TITL C-9262-5533-161 2.5152214514246e-07 125000 -370.145679763238 0 0 60 (C1) n - 1
REM
REM in /home/bkarasulu/CARBON/AIRSS/Generating-Clusters/EDIP-Nigel-Params/Higher-Symm/Box-15A/Only-C60/SD-CG/HFTN-CG
REM
REM
REM
REM
REM
REM ./C.cell (414f73aa93bd7a1190c7fd0f31ff2f98)
REM
REM compiler GCC version 9.2.1 20190827 (Red Hat 9.2.1-1)
REM options -cpp -mtune=generic -march=x86-64 -g -O0 -fpre-include=/usr/include/finclude/math-vector-fortran.h
REM seed 1623925773 2061267223 2142799734 -96410918 -1195936834 -2035885627 2021993003 -1522230582 1698957825 729741014 2081382232 2066102525 1955924121 151178226 882443668 1236376493 -809114107 623075696 -700490358 -798924891 -1204296129 461559641 524666744 1406482058 330209651 -159521584 1136393610 -1077313531 -1598399091 1175255567 79031265 -2066599547 -1633948561
REM
CELL 1.54180   50.00000   50.00000   50.00000   90.00000   90.00000   90.00000
LATT -1
SFAC C  
C      1  0.5237050000000  0.4844930000000  0.4282920000000 1.0
C      1  0.5208960000000  0.5591820000000  0.4640150000000 1.0
C      1  0.5232180000000  0.5549780000000  0.5418820000000 1.0
C      1  0.5213370000000  0.4715580000000  0.5656610000000 1.0
C      1  0.5191650000000  0.4310390000000  0.5018000000000 1.0
C      1  0.5743500000000  0.5086540000000  0.5227030000000 1.0
C      1  0.5726950000000  0.4793690000000  0.5148920000000 1.0
C      1  0.5730420000000  0.4778960000000  0.4845740000000 1.0
C      1  0.5763970000000  0.5062900000000  0.4735550000000 1.0
C      1  0.5761290000000  0.5252450000000  0.4975460000000 1.0
C      1  0.5474790000000  0.4647720000000  0.4758220000000 1.0
C      1  0.5537850000000  0.5132940000000  0.4556910000000 1.0
C      1  0.5526760000000  0.5441340000000  0.4971650000000 1.0
C      1  0.5512060000000  0.5182550000000  0.5391770000000 1.0
C      1  0.5479330000000  0.4667110000000  0.5259340000000 1.0
C      1  0.4003100000000  0.4815020000000  0.4828100000000 1.0
C      1  0.4107200000000  0.5066480000000  0.4736270000000 1.0
C      1  0.4097450000000  0.5248120000000  0.4981820000000 1.0
C      1  0.3987430000000  0.5082420000000  0.5189180000000 1.0
C      1  0.4078260000000  0.4823330000000  0.5105020000000 1.0
C      1  0.4582590000000  0.5514650000000  0.5013900000000 1.0
C      1  0.4693510000000  0.5106190000000  0.5397010000000 1.0
C      1  0.4564620000000  0.4579010000000  0.5316700000000 1.0
C      1  0.4720690000000  0.4646370000000  0.4774800000000 1.0
C      1  0.4622830000000  0.5144790000000  0.4536340000000 1.0
C      1  0.4776500000000  0.4419900000000  0.5180510000000 1.0
C      1  0.4834100000000  0.4691070000000  0.4513550000000 1.0
C      1  0.4823620000000  0.5313290000000  0.4659440000000 1.0
C      1  0.4804640000000  0.5525610000000  0.5210360000000 1.0
C      1  0.4794360000000  0.4931780000000  0.5594610000000 1.0
C      1  0.5098950000000  0.5317500000000  0.4567680000000 1.0
C      1  0.5086700000000  0.5578950000000  0.5127630000000 1.0
C      1  0.5083830000000  0.4988820000000  0.5623250000000 1.0
C      1  0.5067760000000  0.4492720000000  0.5236600000000 1.0
C      1  0.5124590000000  0.4678370000000  0.4491850000000 1.0
C      1  0.4747290000000  0.5570180000000  0.4771780000000 1.0
C      1  0.4798760000000  0.5363670000000  0.5444490000000 1.0
C      1  0.4739940000000  0.4644760000000  0.5561550000000 1.0
C      1  0.4769330000000  0.4389020000000  0.4894570000000 1.0
C      1  0.4759290000000  0.4937070000000  0.4370730000000 1.0
C      1  0.4461490000000  0.5066910000000  0.5240290000000 1.0
C      1  0.4387870000000  0.4794010000000  0.5142090000000 1.0
C      1  0.4484720000000  0.4784950000000  0.4855920000000 1.0
C      1  0.4417940000000  0.5049310000000  0.4742530000000 1.0
C      1  0.4405630000000  0.5251590000000  0.5013520000000 1.0
C      1  0.5000070000000  0.4243740000000  0.4822660000000 1.0
C      1  0.5011780000000  0.5013820000000  0.4259620000000 1.0
C      1  0.5014300000000  0.5698190000000  0.4842200000000 1.0
C      1  0.5061370000000  0.5365420000000  0.5566180000000 1.0
C      1  0.5019240000000  0.4520350000000  0.5544060000000 1.0
C      1  0.5486070000000  0.4960970000000  0.4339310000000 1.0
C      1  0.5479090000000  0.5585730000000  0.4732570000000 1.0
C      1  0.5501340000000  0.5465770000000  0.5416320000000 1.0
C      1  0.5466100000000  0.4675430000000  0.5541280000000 1.0
C      1  0.5426280000000  0.4409200000000  0.4902450000000 1.0
C      1  0.5260460000000  0.5308440000000  0.5046890000000 1.0
C      1  0.5242240000000  0.5087890000000  0.5286350000000 1.0
C      1  0.5231690000000  0.4804350000000  0.5138060000000 1.0
C      1  0.5242380000000  0.4839940000000  0.4816700000000 1.0
C      1  0.5292490000000  0.5146170000000  0.4736180000000 1.0
END
