TITL C-9259-5960-235 -4.86652379104996e-08 125000 -354.022200095161 0 0 60 (C1) n - 1
REM
REM in /home/bkarasulu/CARBON/AIRSS/Generating-Clusters/EDIP-Nigel-Params/Higher-Symm/Box-15A/Only-C60/SD-CG/HFTN-CG
REM
REM
REM
REM
REM
REM ./C.cell (414f73aa93bd7a1190c7fd0f31ff2f98)
REM
REM compiler GCC version 9.2.1 20190827 (Red Hat 9.2.1-1)
REM options -cpp -mtune=generic -march=x86-64 -g -O0 -fpre-include=/usr/include/finclude/math-vector-fortran.h
REM seed 2124847187 -1132817125 274337543 1348385891 -657251617 371639903 644148443 1920372070 -1125631532 -271995129 926384632 883482755 819664196 1600463675 1419094399 -949032327 -1069386937 337975626 84419635 -1362806114 296488708 -1064757548 21069642 177046602 1255605214 -1317143523 1688385940 1664887117 455612982 -1418828657 -104660807 1340745130 1683028844
REM
CELL 1.54180   50.00000   50.00000   50.00000   90.00000   90.00000   90.00000
LATT -1
SFAC C  
C      1  0.4768290000000  0.4535300000000  0.4989290000000 1.0
C      1  0.4941990000000  0.4736120000000  0.4530200000000 1.0
C      1  0.4530980000000  0.4970600000000  0.4777310000000 1.0
C      1  0.5229620000000  0.5448890000000  0.4974270000000 1.0
C      1  0.5268830000000  0.4551380000000  0.5036350000000 1.0
C      1  0.4789720000000  0.5447700000000  0.5022820000000 1.0
C      1  0.5007150000000  0.5231220000000  0.4533630000000 1.0
C      1  0.5038670000000  0.4767830000000  0.5468750000000 1.0
C      1  0.4984880000000  0.5207490000000  0.5462370000000 1.0
C      1  0.5467500000000  0.5048500000000  0.4719540000000 1.0
C      1  0.5479740000000  0.4981410000000  0.5258580000000 1.0
C      1  0.4540460000000  0.5014840000000  0.5216900000000 1.0
C      1  0.4518200000000  0.4723690000000  0.4957770000000 1.0
C      1  0.4730080000000  0.4956970000000  0.4537400000000 1.0
C      1  0.4982230000000  0.4542560000000  0.4772090000000 1.0
C      1  0.5453060000000  0.5234240000000  0.4961870000000 1.0
C      1  0.4538060000000  0.5261670000000  0.5036450000000 1.0
C      1  0.5465720000000  0.4794690000000  0.5016030000000 1.0
C      1  0.5218600000000  0.5011870000000  0.4531140000000 1.0
C      1  0.4742170000000  0.5020180000000  0.5456610000000 1.0
C      1  0.5278850000000  0.4952470000000  0.5501080000000 1.0
C      1  0.5047410000000  0.5472340000000  0.4729940000000 1.0
C      1  0.4973210000000  0.5452710000000  0.5267180000000 1.0
C      1  0.5054730000000  0.4543120000000  0.5254940000000 1.0
C      1  0.5036350000000  0.4738220000000  0.4235720000000 1.0
C      1  0.4237550000000  0.5045180000000  0.4739640000000 1.0
C      1  0.4747220000000  0.4238650000000  0.5054460000000 1.0
C      1  0.4938390000000  0.5268530000000  0.4239830000000 1.0
C      1  0.4922650000000  0.4742770000000  0.5752290000000 1.0
C      1  0.5019850000000  0.5259810000000  0.5760870000000 1.0
C      1  0.5761280000000  0.4954380000000  0.4729010000000 1.0
C      1  0.5773660000000  0.5058470000000  0.5268660000000 1.0
C      1  0.4244360000000  0.4961630000000  0.5265140000000 1.0
C      1  0.5285530000000  0.5740460000000  0.5048650000000 1.0
C      1  0.5275630000000  0.4257350000000  0.4939260000000 1.0
C      1  0.4768690000000  0.5742680000000  0.4946270000000 1.0
C      1  0.4723700000000  0.5055230000000  0.4243460000000 1.0
C      1  0.5055590000000  0.4250320000000  0.4732050000000 1.0
C      1  0.4229680000000  0.4738870000000  0.5063580000000 1.0
C      1  0.5251270000000  0.4950560000000  0.4235010000000 1.0
C      1  0.4700040000000  0.4947520000000  0.5749440000000 1.0
C      1  0.5237990000000  0.5054220000000  0.5790610000000 1.0
C      1  0.4973220000000  0.5769040000000  0.4727010000000 1.0
C      1  0.5077010000000  0.5742730000000  0.5267200000000 1.0
C      1  0.4967820000000  0.4247910000000  0.5260940000000 1.0
C      1  0.5748040000000  0.5264650000000  0.5047940000000 1.0
C      1  0.4245880000000  0.5268200000000  0.4941620000000 1.0
C      1  0.5759410000000  0.4747400000000  0.4948220000000 1.0
C      1  0.5923930000000  0.4839020000000  0.5164040000000 1.0
C      1  0.5196320000000  0.5911360000000  0.4836150000000 1.0
C      1  0.5123110000000  0.4835320000000  0.5935990000000 1.0
C      1  0.5157540000000  0.5173740000000  0.4082670000000 1.0
C      1  0.4090290000000  0.5182470000000  0.5166580000000 1.0
C      1  0.4072180000000  0.4835540000000  0.4844320000000 1.0
C      1  0.5911890000000  0.5176910000000  0.4828980000000 1.0
C      1  0.4841700000000  0.4088020000000  0.4830460000000 1.0
C      1  0.4858850000000  0.5900290000000  0.5168910000000 1.0
C      1  0.5187530000000  0.4094650000000  0.5158400000000 1.0
C      1  0.4788000000000  0.5171040000000  0.5904170000000 1.0
C      1  0.4817670000000  0.4839050000000  0.4079950000000 1.0
END
