TITL C-9259-5960-233 -3.1281002601376e-05 125000 -364.470652278967 0 0 60 (C1) n - 1
REM
REM in /home/bkarasulu/CARBON/AIRSS/Generating-Clusters/EDIP-Nigel-Params/Higher-Symm/Box-15A/Only-C60/SD-CG/HFTN-CG
REM
REM
REM
REM
REM
REM ./C.cell (414f73aa93bd7a1190c7fd0f31ff2f98)
REM
REM compiler GCC version 9.2.1 20190827 (Red Hat 9.2.1-1)
REM options -cpp -mtune=generic -march=x86-64 -g -O0 -fpre-include=/usr/include/finclude/math-vector-fortran.h
REM seed 1508300697 1502041410 -288370360 -1918845126 -1538143023 -1026934812 1879114159 898643490 133011207 451557614 987776915 748378740 -1029175016 1168724675 -1750463832 396429649 -1335107051 -1878010390 1080808716 -1860832138 726317457 501151567 -1138551663 696738994 -221540130 1491950033 -937999422 2024768944 -6900507 1525235835 1195614733 763952635 -1207717114
REM
CELL 1.54180   50.00000   50.00000   50.00000   90.00000   90.00000   90.00000
LATT -1
SFAC C  
C      1  0.4319170000000  0.5048570000000  0.5219570000000 1.0
C      1  0.4609550000000  0.5572800000000  0.5207250000000 1.0
C      1  0.5230490000000  0.5613270000000  0.5256210000000 1.0
C      1  0.5651660000000  0.5194080000000  0.5242120000000 1.0
C      1  0.5611850000000  0.4598140000000  0.5177560000000 1.0
C      1  0.5057450000000  0.4296720000000  0.5273630000000 1.0
C      1  0.4525680000000  0.4565410000000  0.5312800000000 1.0
C      1  0.5462800000000  0.5417980000000  0.4824280000000 1.0
C      1  0.5568770000000  0.4915940000000  0.4817740000000 1.0
C      1  0.5261970000000  0.4510890000000  0.4831190000000 1.0
C      1  0.4772050000000  0.4392170000000  0.4883460000000 1.0
C      1  0.4463630000000  0.4777410000000  0.4826130000000 1.0
C      1  0.4501600000000  0.5339230000000  0.4770590000000 1.0
C      1  0.4927170000000  0.5626490000000  0.4814170000000 1.0
C      1  0.5149210000000  0.4673520000000  0.4300410000000 1.0
C      1  0.4895390000000  0.4730870000000  0.4180660000000 1.0
C      1  0.4666480000000  0.4856140000000  0.4299250000000 1.0
C      1  0.4684010000000  0.5143440000000  0.4291540000000 1.0
C      1  0.5058480000000  0.5508270000000  0.4333040000000 1.0
C      1  0.5301210000000  0.5387470000000  0.4325630000000 1.0
C      1  0.5329260000000  0.4896130000000  0.4305000000000 1.0
C      1  0.5347230000000  0.4935110000000  0.5049540000000 1.0
C      1  0.5186630000000  0.4683440000000  0.5082090000000 1.0
C      1  0.4907880000000  0.4717450000000  0.5154100000000 1.0
C      1  0.4794930000000  0.4963650000000  0.5267740000000 1.0
C      1  0.4710480000000  0.5167760000000  0.5063420000000 1.0
C      1  0.4953570000000  0.5330050000000  0.5069540000000 1.0
C      1  0.5239370000000  0.5214220000000  0.5070820000000 1.0
C      1  0.5612980000000  0.4888210000000  0.5328680000000 1.0
C      1  0.5316840000000  0.4493890000000  0.5315250000000 1.0
C      1  0.4847530000000  0.4511070000000  0.5370470000000 1.0
C      1  0.4521640000000  0.4869980000000  0.5373930000000 1.0
C      1  0.4455560000000  0.5321740000000  0.5319070000000 1.0
C      1  0.4903990000000  0.5535990000000  0.5324150000000 1.0
C      1  0.5377330000000  0.5321330000000  0.5324150000000 1.0
C      1  0.4563910000000  0.4968300000000  0.5661950000000 1.0
C      1  0.4563420000000  0.5271740000000  0.5598400000000 1.0
C      1  0.4848970000000  0.5364070000000  0.5570210000000 1.0
C      1  0.5263820000000  0.5138830000000  0.5536870000000 1.0
C      1  0.5417490000000  0.4891470000000  0.5558510000000 1.0
C      1  0.5261870000000  0.4638800000000  0.5574180000000 1.0
C      1  0.4962220000000  0.4636310000000  0.5635990000000 1.0
C      1  0.4624120000000  0.5579840000000  0.4915930000000 1.0
C      1  0.5242300000000  0.5635130000000  0.4949370000000 1.0
C      1  0.5672810000000  0.5217060000000  0.4951890000000 1.0
C      1  0.5573300000000  0.4599840000000  0.4874090000000 1.0
C      1  0.5016410000000  0.4264260000000  0.4991680000000 1.0
C      1  0.4529720000000  0.4541480000000  0.5007130000000 1.0
C      1  0.4347400000000  0.5030140000000  0.4925250000000 1.0
C      1  0.5451310000000  0.5002270000000  0.4549180000000 1.0
C      1  0.5092190000000  0.4634180000000  0.4595780000000 1.0
C      1  0.4814320000000  0.4502090000000  0.4615110000000 1.0
C      1  0.4672620000000  0.4777990000000  0.4595490000000 1.0
C      1  0.4661740000000  0.5323310000000  0.4520730000000 1.0
C      1  0.4878840000000  0.5509150000000  0.4543620000000 1.0
C      1  0.5425710000000  0.5286880000000  0.4556180000000 1.0
C      1  0.4857440000000  0.4903940000000  0.5731270000000 1.0
C      1  0.4961910000000  0.4917160000000  0.4667330000000 1.0
C      1  0.4969520000000  0.5097810000000  0.5526180000000 1.0
C      1  0.5040300000000  0.5115300000000  0.4432760000000 1.0
END
