TITL C-9265-7156-142 3.82833500128483e-07 125000 -366.068678163663 0 0 60 (C1) n - 1
REM
REM in /home/bkarasulu/CARBON/AIRSS/Generating-Clusters/EDIP-Nigel-Params/Higher-Symm/Box-15A/Only-C60/SD-CG/HFTN-CG
REM
REM
REM
REM
REM
REM ./C.cell (414f73aa93bd7a1190c7fd0f31ff2f98)
REM
REM compiler GCC version 9.2.1 20190827 (Red Hat 9.2.1-1)
REM options -cpp -mtune=generic -march=x86-64 -g -O0 -fpre-include=/usr/include/finclude/math-vector-fortran.h
REM seed -99905274 -986167694 1318523450 1576873799 -1512212617 -1813679345 -1570518858 1166564599 949382475 -570915696 -1834703008 440785709 34568143 -196293891 2042225776 -1774722016 1993138170 -1359554244 1551573508 -736547007 1645158180 1452841975 -1815537906 -323848986 -758237730 -846643662 -1898154815 231257248 -1490137670 -874748064 1192496411 714747655 1672255831
REM
CELL 1.54180   50.00000   50.00000   50.00000   90.00000   90.00000   90.00000
LATT -1
SFAC C  
C      1  0.4904690000000  0.5146110000000  0.4647310000000 1.0
C      1  0.4990460000000  0.4653660000000  0.5078950000000 1.0
C      1  0.4972050000000  0.5233610000000  0.5257020000000 1.0
C      1  0.5430350000000  0.5013730000000  0.5352850000000 1.0
C      1  0.5357930000000  0.5299230000000  0.4782180000000 1.0
C      1  0.5464620000000  0.4718830000000  0.4883290000000 1.0
C      1  0.5093730000000  0.4226240000000  0.5248630000000 1.0
C      1  0.5105810000000  0.5589550000000  0.5516550000000 1.0
C      1  0.5046510000000  0.5175360000000  0.4207900000000 1.0
C      1  0.5274310000000  0.5362270000000  0.4310370000000 1.0
C      1  0.5322010000000  0.4247320000000  0.5026900000000 1.0
C      1  0.5303190000000  0.5391390000000  0.5653740000000 1.0
C      1  0.5503690000000  0.5291630000000  0.5453460000000 1.0
C      1  0.5457260000000  0.5217510000000  0.4504340000000 1.0
C      1  0.5516730000000  0.4476810000000  0.5071220000000 1.0
C      1  0.4608020000000  0.5021720000000  0.4585430000000 1.0
C      1  0.4573140000000  0.4604990000000  0.5216260000000 1.0
C      1  0.4619050000000  0.5400750000000  0.5214140000000 1.0
C      1  0.4776120000000  0.5306070000000  0.4241810000000 1.0
C      1  0.4827750000000  0.4208150000000  0.5100840000000 1.0
C      1  0.4830380000000  0.5502980000000  0.5611900000000 1.0
C      1  0.5548800000000  0.4706020000000  0.4590530000000 1.0
C      1  0.5557650000000  0.4774420000000  0.5467090000000 1.0
C      1  0.5560520000000  0.5301520000000  0.4984910000000 1.0
C      1  0.4912680000000  0.4418130000000  0.4881220000000 1.0
C      1  0.4891070000000  0.5188820000000  0.5567960000000 1.0
C      1  0.4872500000000  0.5447810000000  0.4541450000000 1.0
C      1  0.4383630000000  0.5287990000000  0.5333290000000 1.0
C      1  0.4366750000000  0.5187800000000  0.4622980000000 1.0
C      1  0.4349610000000  0.4540050000000  0.5055810000000 1.0
C      1  0.5138390000000  0.4971840000000  0.5252370000000 1.0
C      1  0.5116500000000  0.5124050000000  0.4865470000000 1.0
C      1  0.5175810000000  0.4821850000000  0.4896580000000 1.0
C      1  0.4381430000000  0.5402920000000  0.4790290000000 1.0
C      1  0.4361060000000  0.4633300000000  0.4797970000000 1.0
C      1  0.4384660000000  0.5018740000000  0.5375690000000 1.0
C      1  0.5468170000000  0.4937370000000  0.4435660000000 1.0
C      1  0.5435690000000  0.4538250000000  0.5347280000000 1.0
C      1  0.5448850000000  0.5432500000000  0.5207020000000 1.0
C      1  0.5148970000000  0.5488800000000  0.5225480000000 1.0
C      1  0.5088770000000  0.4986190000000  0.4451240000000 1.0
C      1  0.5127640000000  0.4527610000000  0.5336440000000 1.0
C      1  0.4813720000000  0.5589340000000  0.4809360000000 1.0
C      1  0.4809010000000  0.4574740000000  0.4634090000000 1.0
C      1  0.4808760000000  0.4888570000000  0.5535540000000 1.0
C      1  0.4565710000000  0.4729780000000  0.4635810000000 1.0
C      1  0.4557290000000  0.4807750000000  0.5419530000000 1.0
C      1  0.4570830000000  0.5522740000000  0.4951430000000 1.0
C      1  0.4609930000000  0.4324540000000  0.5246600000000 1.0
C      1  0.4616180000000  0.5579950000000  0.5438240000000 1.0
C      1  0.4565640000000  0.5115570000000  0.4306530000000 1.0
C      1  0.5138290000000  0.5567940000000  0.4479040000000 1.0
C      1  0.5175080000000  0.4312300000000  0.4779150000000 1.0
C      1  0.5142200000000  0.5150470000000  0.5726590000000 1.0
C      1  0.5250970000000  0.4873510000000  0.5666700000000 1.0
C      1  0.5261670000000  0.5584090000000  0.4750120000000 1.0
C      1  0.5283340000000  0.4528670000000  0.4591880000000 1.0
C      1  0.5027790000000  0.4696610000000  0.5575850000000 1.0
C      1  0.5062530000000  0.5643900000000  0.4965000000000 1.0
C      1  0.5044060000000  0.4685630000000  0.4496740000000 1.0
END
