TITL C-9261-551-29 -5.39505029654909e-07 125000 -380.4001838915 0 0 60 (C1) n - 1
REM
REM in /home/bkarasulu/CARBON/AIRSS/Generating-Clusters/EDIP-Nigel-Params/Higher-Symm/Box-15A/Only-C60/SD-CG/HFTN-CG
REM
REM
REM
REM
REM
REM ./C.cell (414f73aa93bd7a1190c7fd0f31ff2f98)
REM
REM compiler GCC version 9.2.1 20190827 (Red Hat 9.2.1-1)
REM options -cpp -mtune=generic -march=x86-64 -g -O0 -fpre-include=/usr/include/finclude/math-vector-fortran.h
REM seed -1411696717 -679873645 143595191 -544649249 253047536 -1994453419 -1468887050 1661976342 590364832 2106516211 1095691389 1192126955 1188067005 780503722 1418967694 -146671770 -447217740 44253168 -925142282 188583982 1267355328 -1371269153 1606972101 427713173 67112332 1000619223 1908019619 -1954438403 -1829153152 1004181810 -1059730776 -437528757 108225302
REM
CELL 1.54180   50.00000   50.00000   50.00000   90.00000   90.00000   90.00000
LATT -1
SFAC C  
C      1  0.5625490000000  0.4797840000000  0.4836610000000 1.0
C      1  0.5615590000000  0.5074270000000  0.4750970000000 1.0
C      1  0.5598690000000  0.5243110000000  0.4985820000000 1.0
C      1  0.5590520000000  0.5072160000000  0.5217270000000 1.0
C      1  0.5606800000000  0.4799150000000  0.5125480000000 1.0
C      1  0.4788790000000  0.4285810000000  0.5082440000000 1.0
C      1  0.4769420000000  0.4718100000000  0.4372160000000 1.0
C      1  0.4771670000000  0.5515480000000  0.4534840000000 1.0
C      1  0.4764130000000  0.5622670000000  0.5353970000000 1.0
C      1  0.4669630000000  0.4908790000000  0.5681360000000 1.0
C      1  0.5080410000000  0.4784050000000  0.4877190000000 1.0
C      1  0.4973530000000  0.5041420000000  0.4757030000000 1.0
C      1  0.5031330000000  0.5248520000000  0.4975620000000 1.0
C      1  0.4908510000000  0.5117750000000  0.5219610000000 1.0
C      1  0.4942300000000  0.4791620000000  0.5143910000000 1.0
C      1  0.4762870000000  0.5169970000000  0.5689590000000 1.0
C      1  0.4820910000000  0.4369470000000  0.5365330000000 1.0
C      1  0.4808050000000  0.4499450000000  0.4563520000000 1.0
C      1  0.4800100000000  0.5275860000000  0.4363740000000 1.0
C      1  0.4803310000000  0.5693510000000  0.5071330000000 1.0
C      1  0.4650090000000  0.4753080000000  0.5023800000000 1.0
C      1  0.4669640000000  0.4979040000000  0.4771840000000 1.0
C      1  0.4542580000000  0.5223890000000  0.4895250000000 1.0
C      1  0.4600040000000  0.5179320000000  0.5197620000000 1.0
C      1  0.4483110000000  0.4890400000000  0.5241700000000 1.0
C      1  0.5029980000000  0.4845860000000  0.4303690000000 1.0
C      1  0.5034230000000  0.5611090000000  0.4640820000000 1.0
C      1  0.5019170000000  0.5530850000000  0.5474020000000 1.0
C      1  0.5088530000000  0.4675800000000  0.5616140000000 1.0
C      1  0.5049630000000  0.4293020000000  0.4932910000000 1.0
C      1  0.5250520000000  0.5114840000000  0.5607830000000 1.0
C      1  0.5299990000000  0.4428850000000  0.5273110000000 1.0
C      1  0.5305530000000  0.4513860000000  0.4550000000000 1.0
C      1  0.5290570000000  0.5263890000000  0.4417040000000 1.0
C      1  0.5294100000000  0.5643230000000  0.5073360000000 1.0
C      1  0.4522770000000  0.4755920000000  0.5499450000000 1.0
C      1  0.4589690000000  0.4462430000000  0.4949610000000 1.0
C      1  0.4575610000000  0.4914500000000  0.4486790000000 1.0
C      1  0.4565690000000  0.5490210000000  0.4757940000000 1.0
C      1  0.4547730000000  0.5417690000000  0.5392030000000 1.0
C      1  0.5063180000000  0.4519850000000  0.4729530000000 1.0
C      1  0.5036700000000  0.5108160000000  0.4452770000000 1.0
C      1  0.5041630000000  0.5551820000000  0.4938310000000 1.0
C      1  0.4995280000000  0.5231980000000  0.5504760000000 1.0
C      1  0.5046040000000  0.4565320000000  0.5356320000000 1.0
C      1  0.4569970000000  0.4404720000000  0.4677000000000 1.0
C      1  0.4556750000000  0.5140500000000  0.4319940000000 1.0
C      1  0.4561320000000  0.5715660000000  0.4928770000000 1.0
C      1  0.4548400000000  0.5348430000000  0.5665190000000 1.0
C      1  0.4589750000000  0.4484930000000  0.5473190000000 1.0
C      1  0.5544180000000  0.4585040000000  0.4675210000000 1.0
C      1  0.5530030000000  0.5152600000000  0.4499700000000 1.0
C      1  0.5525290000000  0.5511300000000  0.4993070000000 1.0
C      1  0.5483320000000  0.5146290000000  0.5461320000000 1.0
C      1  0.5533610000000  0.4577090000000  0.5273160000000 1.0
C      1  0.5250320000000  0.5529800000000  0.4482630000000 1.0
C      1  0.5243930000000  0.5642440000000  0.5347380000000 1.0
C      1  0.5218840000000  0.4874430000000  0.5739350000000 1.0
C      1  0.5275860000000  0.4226960000000  0.5084580000000 1.0
C      1  0.5244350000000  0.4665910000000  0.4325110000000 1.0
END
