TITL C-9262-5533-13 -8.56313610970369e-06 125000 -366.748465375933 0 0 60 (C1) n - 1
REM
REM in /home/bkarasulu/CARBON/AIRSS/Generating-Clusters/EDIP-Nigel-Params/Higher-Symm/Box-15A/Only-C60/SD-CG/HFTN-CG
REM
REM
REM
REM
REM
REM ./C.cell (414f73aa93bd7a1190c7fd0f31ff2f98)
REM
REM compiler GCC version 9.2.1 20190827 (Red Hat 9.2.1-1)
REM options -cpp -mtune=generic -march=x86-64 -g -O0 -fpre-include=/usr/include/finclude/math-vector-fortran.h
REM seed -188117438 -1249424436 1190143719 -1104929513 2082599085 -2020759941 1248644319 1137822765 -1326132299 12431679 -479887402 1807751588 -154184609 -245607945 -812597166 575535560 -444593942 -1878047729 1253234117 -732716009 364685897 -1096022377 477783470 -378969831 -1508278315 918613234 1570727025 1597823348 -58834520 -1233836337 -1388065113 1279345343 -1234918467
REM
CELL 1.54180   50.00000   50.00000   50.00000   90.00000   90.00000   90.00000
LATT -1
SFAC C  
C      1  0.4749370000000  0.4358070000000  0.4647170000000 1.0
C      1  0.5551750000000  0.5310940000000  0.5141780000000 1.0
C      1  0.5110650000000  0.5052910000000  0.5490140000000 1.0
C      1  0.5374290000000  0.5530470000000  0.5120340000000 1.0
C      1  0.4857980000000  0.4954990000000  0.5627920000000 1.0
C      1  0.4667580000000  0.4823370000000  0.4408430000000 1.0
C      1  0.4733540000000  0.5636840000000  0.4686720000000 1.0
C      1  0.4934390000000  0.4284770000000  0.5154930000000 1.0
C      1  0.5421880000000  0.4305010000000  0.4974450000000 1.0
C      1  0.5183520000000  0.5550200000000  0.4897630000000 1.0
C      1  0.4689030000000  0.5039200000000  0.4904760000000 1.0
C      1  0.5096380000000  0.5298800000000  0.4778580000000 1.0
C      1  0.5177900000000  0.5314870000000  0.5583120000000 1.0
C      1  0.5730430000000  0.4693150000000  0.4839910000000 1.0
C      1  0.5236970000000  0.4888900000000  0.5031970000000 1.0
C      1  0.4633920000000  0.5299070000000  0.5283860000000 1.0
C      1  0.5630450000000  0.5125840000000  0.4451490000000 1.0
C      1  0.4616830000000  0.5091450000000  0.5518410000000 1.0
C      1  0.4952590000000  0.5725210000000  0.4872520000000 1.0
C      1  0.5055070000000  0.4508410000000  0.5634790000000 1.0
C      1  0.5676080000000  0.4457560000000  0.4981750000000 1.0
C      1  0.5169720000000  0.4598110000000  0.4628960000000 1.0
C      1  0.4718220000000  0.5359300000000  0.4568870000000 1.0
C      1  0.4349280000000  0.5281820000000  0.5162380000000 1.0
C      1  0.4980710000000  0.4413340000000  0.4498840000000 1.0
C      1  0.5370630000000  0.5104190000000  0.4344640000000 1.0
C      1  0.5292860000000  0.4635370000000  0.5646130000000 1.0
C      1  0.4445320000000  0.4886480000000  0.4568170000000 1.0
C      1  0.5193640000000  0.4878150000000  0.4499020000000 1.0
C      1  0.4403650000000  0.4685970000000  0.4802890000000 1.0
C      1  0.4620330000000  0.4610950000000  0.5378910000000 1.0
C      1  0.5190140000000  0.5328280000000  0.4415140000000 1.0
C      1  0.5349000000000  0.4872990000000  0.5513200000000 1.0
C      1  0.5291330000000  0.5059610000000  0.4780270000000 1.0
C      1  0.5467930000000  0.4834490000000  0.5237980000000 1.0
C      1  0.5175720000000  0.4416590000000  0.5084700000000 1.0
C      1  0.5049110000000  0.5040610000000  0.5198860000000 1.0
C      1  0.4281520000000  0.4993050000000  0.5175940000000 1.0
C      1  0.5581420000000  0.5138760000000  0.4730620000000 1.0
C      1  0.4915830000000  0.5243860000000  0.4386510000000 1.0
C      1  0.5147890000000  0.5585820000000  0.5541140000000 1.0
C      1  0.4650500000000  0.5742830000000  0.5110130000000 1.0
C      1  0.4708310000000  0.4456690000000  0.5130390000000 1.0
C      1  0.4586440000000  0.4449280000000  0.4856950000000 1.0
C      1  0.4858700000000  0.5212060000000  0.5061760000000 1.0
C      1  0.5320890000000  0.5686390000000  0.5346490000000 1.0
C      1  0.4437070000000  0.4869730000000  0.5419630000000 1.0
C      1  0.4499970000000  0.5652900000000  0.4871290000000 1.0
C      1  0.4511870000000  0.4843840000000  0.5036330000000 1.0
C      1  0.4673910000000  0.5587030000000  0.5348740000000 1.0
C      1  0.5758690000000  0.4969780000000  0.4892960000000 1.0
C      1  0.5663440000000  0.5050690000000  0.5159240000000 1.0
C      1  0.4520250000000  0.5180290000000  0.4706160000000 1.0
C      1  0.4354020000000  0.5379990000000  0.4880730000000 1.0
C      1  0.5112600000000  0.4644690000000  0.4917610000000 1.0
C      1  0.4882060000000  0.5656420000000  0.5516840000000 1.0
C      1  0.5077510000000  0.4230470000000  0.4331760000000 1.0
C      1  0.5571460000000  0.4555250000000  0.5231270000000 1.0
C      1  0.4916660000000  0.4953610000000  0.4391800000000 1.0
C      1  0.4820810000000  0.4660230000000  0.5596030000000 1.0
END
