TITL C-9266-5713-307 1.44540221546212e-05 125000 -367.186187806199 0 0 60 (C1) n - 1
REM
REM in /home/bkarasulu/CARBON/AIRSS/Generating-Clusters/EDIP-Nigel-Params/Higher-Symm/Box-15A/Only-C60/SD-CG/HFTN-CG
REM
REM
REM
REM
REM
REM ./C.cell (414f73aa93bd7a1190c7fd0f31ff2f98)
REM
REM compiler GCC version 9.2.1 20190827 (Red Hat 9.2.1-1)
REM options -cpp -mtune=generic -march=x86-64 -g -O0 -fpre-include=/usr/include/finclude/math-vector-fortran.h
REM seed -313456668 279210350 -2111520954 -1363967355 1035706834 -2123863475 -1807823157 -1062558307 1648242525 2046653913 1202845510 1392811272 -579515074 2084809725 909014117 -934145592 -972368566 -918959556 -694061644 293996281 1964837006 -383001409 1224486351 -569557423 937883100 -1267458735 -847611606 -57900005 1624440876 1767605427 -2027999933 1682263566 173787735
REM
CELL 1.54180   50.00000   50.00000   50.00000   90.00000   90.00000   90.00000
LATT -1
SFAC C  
C      1  0.4154060000000  0.4825940000000  0.5195200000000 1.0
C      1  0.5439590000000  0.4320010000000  0.4821110000000 1.0
C      1  0.4947800000000  0.4405880000000  0.4516430000000 1.0
C      1  0.5151690000000  0.4792900000000  0.5046640000000 1.0
C      1  0.4258610000000  0.5041930000000  0.5310980000000 1.0
C      1  0.4505850000000  0.5165150000000  0.5335740000000 1.0
C      1  0.5181510000000  0.4677890000000  0.4383340000000 1.0
C      1  0.5177200000000  0.4306730000000  0.5192740000000 1.0
C      1  0.5254430000000  0.4943950000000  0.5555430000000 1.0
C      1  0.4975950000000  0.5541610000000  0.4860890000000 1.0
C      1  0.4778440000000  0.4444540000000  0.5260460000000 1.0
C      1  0.4845050000000  0.5076900000000  0.4438110000000 1.0
C      1  0.4347170000000  0.4871790000000  0.4491350000000 1.0
C      1  0.4724320000000  0.4449620000000  0.4982710000000 1.0
C      1  0.5208580000000  0.5719870000000  0.4824880000000 1.0
C      1  0.4861500000000  0.4600550000000  0.5482260000000 1.0
C      1  0.4554210000000  0.5454620000000  0.5353830000000 1.0
C      1  0.5263970000000  0.5303660000000  0.4424110000000 1.0
C      1  0.4948690000000  0.4371950000000  0.4803260000000 1.0
C      1  0.5412840000000  0.5139250000000  0.4595320000000 1.0
C      1  0.5569790000000  0.4589350000000  0.5205550000000 1.0
C      1  0.4200620000000  0.4994870000000  0.4724730000000 1.0
C      1  0.5150160000000  0.4670890000000  0.5498120000000 1.0
C      1  0.5666210000000  0.4753530000000  0.4738320000000 1.0
C      1  0.4758010000000  0.5028120000000  0.5419100000000 1.0
C      1  0.5081270000000  0.5286080000000  0.5020310000000 1.0
C      1  0.4270700000000  0.4790410000000  0.4943200000000 1.0
C      1  0.4377950000000  0.5260680000000  0.4702700000000 1.0
C      1  0.5387370000000  0.5364970000000  0.5070170000000 1.0
C      1  0.5411470000000  0.4838600000000  0.4590920000000 1.0
C      1  0.4725020000000  0.4941220000000  0.4896300000000 1.0
C      1  0.5557380000000  0.5231090000000  0.4835950000000 1.0
C      1  0.4940430000000  0.5013410000000  0.5106040000000 1.0
C      1  0.5266490000000  0.4580110000000  0.5240820000000 1.0
C      1  0.4681940000000  0.4790820000000  0.5566770000000 1.0
C      1  0.5492560000000  0.5310430000000  0.5363920000000 1.0
C      1  0.5144990000000  0.5188720000000  0.5680240000000 1.0
C      1  0.4561760000000  0.4687110000000  0.4874350000000 1.0
C      1  0.4857220000000  0.5223240000000  0.5630040000000 1.0
C      1  0.4795790000000  0.5711790000000  0.5025250000000 1.0
C      1  0.5285210000000  0.5423880000000  0.5550000000000 1.0
C      1  0.4515760000000  0.4648510000000  0.4574780000000 1.0
C      1  0.5188850000000  0.4742500000000  0.4764830000000 1.0
C      1  0.4807150000000  0.5492200000000  0.5515750000000 1.0
C      1  0.5378430000000  0.5669230000000  0.5047300000000 1.0
C      1  0.4393620000000  0.5454960000000  0.4904290000000 1.0
C      1  0.5886170000000  0.4966990000000  0.5128220000000 1.0
C      1  0.4987890000000  0.5323800000000  0.4412550000000 1.0
C      1  0.5505780000000  0.5024170000000  0.5433930000000 1.0
C      1  0.4622920000000  0.5069430000000  0.4639900000000 1.0
C      1  0.4537440000000  0.5601130000000  0.5098460000000 1.0
C      1  0.5632990000000  0.4508440000000  0.4918030000000 1.0
C      1  0.5750710000000  0.5004150000000  0.4881250000000 1.0
C      1  0.5686930000000  0.4847020000000  0.5289070000000 1.0
C      1  0.5185330000000  0.4249160000000  0.4921020000000 1.0
C      1  0.4873030000000  0.5494500000000  0.4597270000000 1.0
C      1  0.5072170000000  0.5578960000000  0.5415430000000 1.0
C      1  0.4921280000000  0.4824140000000  0.4303060000000 1.0
C      1  0.4750030000000  0.4585760000000  0.4394310000000 1.0
C      1  0.5129730000000  0.5780890000000  0.5203000000000 1.0
END
