TITL C-9261-551-182 -8.01171380558726e-06 125000 -371.144859708615 0 0 60 (C1) n - 1
REM
REM in /home/bkarasulu/CARBON/AIRSS/Generating-Clusters/EDIP-Nigel-Params/Higher-Symm/Box-15A/Only-C60/SD-CG/HFTN-CG
REM
REM
REM
REM
REM
REM ./C.cell (414f73aa93bd7a1190c7fd0f31ff2f98)
REM
REM compiler GCC version 9.2.1 20190827 (Red Hat 9.2.1-1)
REM options -cpp -mtune=generic -march=x86-64 -g -O0 -fpre-include=/usr/include/finclude/math-vector-fortran.h
REM seed 37129188 2062843689 1829454114 2113739302 898523024 1130804109 2109693005 -852992089 -1874788584 -60786966 -1620874404 -2066205990 -807456064 68620448 -1895240060 833932921 -742173423 -217510856 -780864530 383084974 -1220942757 -198693118 -615724981 -1917745902 784759549 -407871503 -987548496 -1889777332 1078088985 1853894671 -331793836 1952642380 -222914568
REM
CELL 1.54180   50.00000   50.00000   50.00000   90.00000   90.00000   90.00000
LATT -1
SFAC C  
C      1  0.5598520000000  0.5257770000000  0.5448970000000 1.0
C      1  0.5375130000000  0.5409960000000  0.5505990000000 1.0
C      1  0.5316070000000  0.5621500000000  0.5338190000000 1.0
C      1  0.4366870000000  0.5309720000000  0.4496350000000 1.0
C      1  0.4591820000000  0.4730160000000  0.5264490000000 1.0
C      1  0.5606450000000  0.4599290000000  0.4676740000000 1.0
C      1  0.4639680000000  0.5410340000000  0.4507010000000 1.0
C      1  0.4712730000000  0.4705000000000  0.5521690000000 1.0
C      1  0.5238290000000  0.4511190000000  0.4393170000000 1.0
C      1  0.4565960000000  0.5507390000000  0.4768610000000 1.0
C      1  0.4635480000000  0.4450520000000  0.5235970000000 1.0
C      1  0.5388190000000  0.4442110000000  0.4615200000000 1.0
C      1  0.5505820000000  0.4624280000000  0.5361820000000 1.0
C      1  0.5316720000000  0.4688420000000  0.5550840000000 1.0
C      1  0.5481600000000  0.4382410000000  0.5230760000000 1.0
C      1  0.4357540000000  0.4712450000000  0.4485770000000 1.0
C      1  0.4453260000000  0.5333050000000  0.5317690000000 1.0
C      1  0.5565560000000  0.5190320000000  0.4622860000000 1.0
C      1  0.4603750000000  0.4589900000000  0.4451530000000 1.0
C      1  0.4762430000000  0.5534000000000  0.5615550000000 1.0
C      1  0.5319710000000  0.5316490000000  0.4606960000000 1.0
C      1  0.4659280000000  0.4386760000000  0.4629080000000 1.0
C      1  0.4620470000000  0.5543900000000  0.5378920000000 1.0
C      1  0.5291200000000  0.5556650000000  0.4738980000000 1.0
C      1  0.4327450000000  0.5154740000000  0.5149660000000 1.0
C      1  0.5128870000000  0.5210460000000  0.4416280000000 1.0
C      1  0.5281620000000  0.4251210000000  0.5091180000000 1.0
C      1  0.5724190000000  0.5064740000000  0.4812460000000 1.0
C      1  0.5714660000000  0.4800940000000  0.5265500000000 1.0
C      1  0.4236160000000  0.4856150000000  0.4689570000000 1.0
C      1  0.4905760000000  0.5330790000000  0.5736940000000 1.0
C      1  0.4808400000000  0.4768870000000  0.4354760000000 1.0
C      1  0.5158930000000  0.4845710000000  0.5711100000000 1.0
C      1  0.4812080000000  0.4244890000000  0.4808910000000 1.0
C      1  0.4722190000000  0.5734880000000  0.5187950000000 1.0
C      1  0.5143060000000  0.5740460000000  0.4881190000000 1.0
C      1  0.4356470000000  0.4864130000000  0.5158480000000 1.0
C      1  0.5091760000000  0.4730930000000  0.4309620000000 1.0
C      1  0.5162220000000  0.5778540000000  0.5169990000000 1.0
C      1  0.5756260000000  0.4777740000000  0.4824290000000 1.0
C      1  0.5711430000000  0.5093620000000  0.5256380000000 1.0
C      1  0.4266810000000  0.5143680000000  0.4710030000000 1.0
C      1  0.4879160000000  0.4895540000000  0.5654350000000 1.0
C      1  0.4834640000000  0.5205390000000  0.4432570000000 1.0
C      1  0.5192370000000  0.5288280000000  0.5696330000000 1.0
C      1  0.4700350000000  0.5720850000000  0.4897440000000 1.0
C      1  0.4842520000000  0.4319570000000  0.5087940000000 1.0
C      1  0.5256110000000  0.4262300000000  0.4800810000000 1.0
C      1  0.4932790000000  0.5900930000000  0.5280900000000 1.0
C      1  0.5828710000000  0.5210010000000  0.5029310000000 1.0
C      1  0.4716370000000  0.5016460000000  0.4260820000000 1.0
C      1  0.4760970000000  0.5100060000000  0.5808490000000 1.0
C      1  0.5221780000000  0.4977560000000  0.4288430000000 1.0
C      1  0.4911920000000  0.5846610000000  0.4759090000000 1.0
C      1  0.5045690000000  0.4184060000000  0.5228880000000 1.0
C      1  0.5035760000000  0.4121100000000  0.4697730000000 1.0
C      1  0.4167300000000  0.5263010000000  0.4945830000000 1.0
C      1  0.4229450000000  0.4737250000000  0.4942230000000 1.0
C      1  0.5871370000000  0.4683950000000  0.5061460000000 1.0
C      1  0.5291840000000  0.5061000000000  0.5829960000000 1.0
END
