TITL C-9264-7143-129 2.29689790584629e-06 125000 -355.005317121298 0 0 60 (C1) n - 1
REM
REM in /home/bkarasulu/CARBON/AIRSS/Generating-Clusters/EDIP-Nigel-Params/Higher-Symm/Box-15A/Only-C60/SD-CG/HFTN-CG
REM
REM
REM
REM
REM
REM ./C.cell (414f73aa93bd7a1190c7fd0f31ff2f98)
REM
REM compiler GCC version 9.2.1 20190827 (Red Hat 9.2.1-1)
REM options -cpp -mtune=generic -march=x86-64 -g -O0 -fpre-include=/usr/include/finclude/math-vector-fortran.h
REM seed -1855672669 1792924698 -1051836590 -889620200 -970979735 1593241882 2059775525 1029394656 342433816 -940663844 1046727865 -1379570320 -99979731 -189068379 1523722833 172157083 -705714255 418582481 733676429 876498170 -170858939 1807348821 -965524502 -1471892628 2048542424 -829490590 -1112891437 -939311696 1901145779 -1758685295 -929334472 -1449832008 -1589561263
REM
CELL 1.54180   50.00000   50.00000   50.00000   90.00000   90.00000   90.00000
LATT -1
SFAC C  
C      1  0.5313110000000  0.5023320000000  0.4700680000000 1.0
C      1  0.5395250000000  0.4776290000000  0.5162250000000 1.0
C      1  0.5309230000000  0.5268180000000  0.5152220000000 1.0
C      1  0.4536230000000  0.5410500000000  0.5457790000000 1.0
C      1  0.4511470000000  0.5174490000000  0.4403280000000 1.0
C      1  0.4561940000000  0.4354250000000  0.5085860000000 1.0
C      1  0.4379440000000  0.4528750000000  0.5176840000000 1.0
C      1  0.4352910000000  0.5472990000000  0.5276450000000 1.0
C      1  0.4358400000000  0.5007350000000  0.4547770000000 1.0
C      1  0.4640450000000  0.4553260000000  0.4505190000000 1.0
C      1  0.4606600000000  0.4755810000000  0.5653460000000 1.0
C      1  0.4574510000000  0.5676370000000  0.4773030000000 1.0
C      1  0.5046890000000  0.4214740000000  0.5094160000000 1.0
C      1  0.5000150000000  0.5450670000000  0.5624340000000 1.0
C      1  0.4980390000000  0.5313460000000  0.4277260000000 1.0
C      1  0.5091500000000  0.5737500000000  0.5225630000000 1.0
C      1  0.5076640000000  0.4798540000000  0.4286270000000 1.0
C      1  0.5124190000000  0.4456040000000  0.5537300000000 1.0
C      1  0.4909110000000  0.5393730000000  0.4705520000000 1.0
C      1  0.4951050000000  0.4627530000000  0.4884260000000 1.0
C      1  0.4897500000000  0.5058490000000  0.5374100000000 1.0
C      1  0.5450080000000  0.5356740000000  0.5622330000000 1.0
C      1  0.5423330000000  0.5325400000000  0.4313240000000 1.0
C      1  0.5493450000000  0.4281430000000  0.5060510000000 1.0
C      1  0.5360630000000  0.5149550000000  0.4097370000000 1.0
C      1  0.5444200000000  0.4153460000000  0.5311430000000 1.0
C      1  0.5429040000000  0.5637830000000  0.5569700000000 1.0
C      1  0.4800550000000  0.5329660000000  0.5452050000000 1.0
C      1  0.4746540000000  0.5320010000000  0.4446960000000 1.0
C      1  0.4834080000000  0.4406040000000  0.5048030000000 1.0
C      1  0.5054070000000  0.5085850000000  0.5097000000000 1.0
C      1  0.5038480000000  0.5130470000000  0.4797390000000 1.0
C      1  0.5115250000000  0.4800350000000  0.5082870000000 1.0
C      1  0.5190820000000  0.5480530000000  0.4406220000000 1.0
C      1  0.5257200000000  0.4261880000000  0.4877380000000 1.0
C      1  0.5190120000000  0.5233140000000  0.5718960000000 1.0
C      1  0.5100650000000  0.5057970000000  0.4165520000000 1.0
C      1  0.5176770000000  0.4231770000000  0.5366360000000 1.0
C      1  0.5159030000000  0.5667330000000  0.5493480000000 1.0
C      1  0.5176800000000  0.4527460000000  0.4704670000000 1.0
C      1  0.5141320000000  0.4966720000000  0.5560650000000 1.0
C      1  0.5237410000000  0.5589210000000  0.4769740000000 1.0
C      1  0.5367670000000  0.4743890000000  0.4722070000000 1.0
C      1  0.5415880000000  0.4922230000000  0.5417020000000 1.0
C      1  0.5404680000000  0.5431620000000  0.4938890000000 1.0
C      1  0.4546820000000  0.5400680000000  0.4836300000000 1.0
C      1  0.4738310000000  0.4741830000000  0.4697140000000 1.0
C      1  0.4681090000000  0.4844530000000  0.5394970000000 1.0
C      1  0.5073650000000  0.4542720000000  0.4412920000000 1.0
C      1  0.5068660000000  0.4692260000000  0.5685630000000 1.0
C      1  0.5053790000000  0.5738250000000  0.4946220000000 1.0
C      1  0.4418410000000  0.4762900000000  0.5315170000000 1.0
C      1  0.4333080000000  0.5489570000000  0.5004580000000 1.0
C      1  0.4463850000000  0.4821670000000  0.4721150000000 1.0
C      1  0.4820830000000  0.4690660000000  0.5813540000000 1.0
C      1  0.4807870000000  0.5797370000000  0.4842840000000 1.0
C      1  0.4832960000000  0.4406260000000  0.4372090000000 1.0
C      1  0.5502220000000  0.5198980000000  0.5370380000000 1.0
C      1  0.5483520000000  0.5179010000000  0.4540460000000 1.0
C      1  0.5549960000000  0.4550510000000  0.5103150000000 1.0
END
