TITL C-9267-1554-58 1.09998908113008e-05 125000 -370.648753168846 0 0 60 (C1) n - 1
REM
REM in /home/bkarasulu/CARBON/AIRSS/Generating-Clusters/EDIP-Nigel-Params/Higher-Symm/Box-15A/Only-C60/SD-CG/HFTN-CG
REM
REM
REM
REM
REM
REM ./C.cell (414f73aa93bd7a1190c7fd0f31ff2f98)
REM
REM compiler GCC version 9.2.1 20190827 (Red Hat 9.2.1-1)
REM options -cpp -mtune=generic -march=x86-64 -g -O0 -fpre-include=/usr/include/finclude/math-vector-fortran.h
REM seed -324130908 1758890 665647752 1758668358 1628848283 -252276819 -1347926755 993074260 452101071 -1671569120 1551332612 -1253006500 1854874172 1167761780 125911203 -1815358140 1653622022 -2141647617 -1213509079 1699589557 -99911926 1679492636 1000873372 -1133037756 1623621936 797477264 -2010370772 -1999160248 1212585358 546684851 -1821129147 -359887842 -2089817254
REM
CELL 1.54180   50.00000   50.00000   50.00000   90.00000   90.00000   90.00000
LATT -1
SFAC C  
C      1  0.5732840000000  0.5166590000000  0.5158270000000 1.0
C      1  0.5095410000000  0.5208770000000  0.5728380000000 1.0
C      1  0.4524340000000  0.5223240000000  0.5343830000000 1.0
C      1  0.4303020000000  0.5185770000000  0.4835640000000 1.0
C      1  0.4851810000000  0.5212660000000  0.4120630000000 1.0
C      1  0.5503880000000  0.5188510000000  0.4659700000000 1.0
C      1  0.5710850000000  0.5149420000000  0.4862090000000 1.0
C      1  0.5091860000000  0.5222610000000  0.4261720000000 1.0
C      1  0.4501160000000  0.5227620000000  0.4619750000000 1.0
C      1  0.4346280000000  0.5145410000000  0.5127460000000 1.0
C      1  0.4868340000000  0.5198610000000  0.5891590000000 1.0
C      1  0.5522230000000  0.5207770000000  0.5359660000000 1.0
C      1  0.5327210000000  0.5415430000000  0.4653500000000 1.0
C      1  0.5327410000000  0.5591440000000  0.5132140000000 1.0
C      1  0.5114110000000  0.5419710000000  0.5536130000000 1.0
C      1  0.4641080000000  0.5488690000000  0.5341990000000 1.0
C      1  0.4569780000000  0.5638600000000  0.4852060000000 1.0
C      1  0.4871160000000  0.5552330000000  0.4508710000000 1.0
C      1  0.5329670000000  0.5419530000000  0.5346900000000 1.0
C      1  0.5326400000000  0.5590200000000  0.4866080000000 1.0
C      1  0.5111160000000  0.5421130000000  0.4463810000000 1.0
C      1  0.4625050000000  0.5492730000000  0.4624470000000 1.0
C      1  0.4586860000000  0.5639880000000  0.5118240000000 1.0
C      1  0.4874720000000  0.5548440000000  0.5480570000000 1.0
C      1  0.4796850000000  0.4742710000000  0.4189280000000 1.0
C      1  0.5581450000000  0.4715000000000  0.4492250000000 1.0
C      1  0.5753470000000  0.4711690000000  0.5332220000000 1.0
C      1  0.5232300000000  0.4733640000000  0.5793450000000 1.0
C      1  0.4467880000000  0.4737730000000  0.5515960000000 1.0
C      1  0.4246010000000  0.4711250000000  0.4700680000000 1.0
C      1  0.4802350000000  0.4719560000000  0.5809300000000 1.0
C      1  0.5701910000000  0.4808870000000  0.5591930000000 1.0
C      1  0.5763490000000  0.4666870000000  0.4734710000000 1.0
C      1  0.5178720000000  0.4730230000000  0.4185610000000 1.0
C      1  0.4376370000000  0.4757930000000  0.4442270000000 1.0
C      1  0.4262860000000  0.4677750000000  0.5290490000000 1.0
C      1  0.5156640000000  0.4554940000000  0.5586110000000 1.0
C      1  0.4694830000000  0.4600950000000  0.5353080000000 1.0
C      1  0.4491750000000  0.4625390000000  0.4845930000000 1.0
C      1  0.4842410000000  0.4643590000000  0.4459700000000 1.0
C      1  0.5334330000000  0.4611500000000  0.4639170000000 1.0
C      1  0.5512810000000  0.4614390000000  0.5191750000000 1.0
C      1  0.5124540000000  0.4569890000000  0.4433420000000 1.0
C      1  0.4634600000000  0.4519910000000  0.4612460000000 1.0
C      1  0.4486130000000  0.4534130000000  0.5124400000000 1.0
C      1  0.4868330000000  0.4557880000000  0.5587000000000 1.0
C      1  0.5310840000000  0.4511850000000  0.5355610000000 1.0
C      1  0.5519760000000  0.4561590000000  0.4901970000000 1.0
C      1  0.4525900000000  0.5029780000000  0.5569230000000 1.0
C      1  0.4122390000000  0.4957880000000  0.4792510000000 1.0
C      1  0.4671390000000  0.5004570000000  0.4173590000000 1.0
C      1  0.5515690000000  0.5003310000000  0.4431700000000 1.0
C      1  0.5901240000000  0.4925190000000  0.5196350000000 1.0
C      1  0.5300260000000  0.5005750000000  0.5752950000000 1.0
C      1  0.4480530000000  0.5027660000000  0.4397510000000 1.0
C      1  0.4165070000000  0.4925710000000  0.5171690000000 1.0
C      1  0.4715410000000  0.4988730000000  0.5788490000000 1.0
C      1  0.5536260000000  0.5036990000000  0.5593100000000 1.0
C      1  0.5887470000000  0.4919490000000  0.4821230000000 1.0
C      1  0.5281160000000  0.5000610000000  0.4249560000000 1.0
END
