TITL C-9270-2362-203 -5.94030516585602e-07 125000 -383.469870258903 0 0 60 (S10) n - 1
REM
REM in /home/bkarasulu/CARBON/AIRSS/Generating-Clusters/EDIP-Nigel-Params/Higher-Symm/Box-15A/Only-C60/SD-CG/HFTN-CG
REM
REM
REM
REM
REM
REM ./C.cell (414f73aa93bd7a1190c7fd0f31ff2f98)
REM
REM compiler GCC version 9.2.1 20190827 (Red Hat 9.2.1-1)
REM options -cpp -mtune=generic -march=x86-64 -g -O0 -fpre-include=/usr/include/finclude/math-vector-fortran.h
REM seed 1010442227 -426483699 -2063284661 1625525747 -1423666144 -19566269 1877229252 2051458571 733283150 1286815981 -855907792 1386200258 1155640559 -1088645520 345274329 941033028 620643499 -160675030 10984249 -868175694 669112459 -1663087799 -1461020219 2013100194 1779280826 -1674494633 1612571766 -1800939001 1848105057 -614505849 -1325001489 -2030324648 -782653809
REM
CELL 1.54180   50.00000   50.00000   50.00000   90.00000   90.00000   90.00000
LATT -1
SFAC C  
C      1  0.5224730000000  0.5415930000000  0.5542250000000 1.0
C      1  0.5421730000000  0.5249490000000  0.4473280000000 1.0
C      1  0.5492370000000  0.4909410000000  0.5516620000000 1.0
C      1  0.5340210000000  0.4682280000000  0.4451510000000 1.0
C      1  0.5092840000000  0.4498170000000  0.5507030000000 1.0
C      1  0.4775270000000  0.4584070000000  0.4457750000000 1.0
C      1  0.4578270000000  0.4750510000000  0.5526720000000 1.0
C      1  0.4507630000000  0.5090590000000  0.4483380000000 1.0
C      1  0.4659790000000  0.5317720000000  0.5548490000000 1.0
C      1  0.4907160000000  0.5501830000000  0.4492970000000 1.0
C      1  0.5355630000000  0.4352830000000  0.5102820000000 1.0
C      1  0.4905720000000  0.4278750000000  0.4836340000000 1.0
C      1  0.4500720000000  0.4460060000000  0.5122750000000 1.0
C      1  0.4277530000000  0.4867710000000  0.4871890000000 1.0
C      1  0.4339200000000  0.5305790000000  0.5160350000000 1.0
C      1  0.4644370000000  0.5647170000000  0.4897180000000 1.0
C      1  0.5094280000000  0.5721250000000  0.5163660000000 1.0
C      1  0.5499280000000  0.5539940000000  0.4877250000000 1.0
C      1  0.5722470000000  0.5132290000000  0.5128110000000 1.0
C      1  0.5660800000000  0.4694210000000  0.4839650000000 1.0
C      1  0.4445490000000  0.5545940000000  0.5064560000000 1.0
C      1  0.4872470000000  0.5770340000000  0.5001790000000 1.0
C      1  0.5350260000000  0.5695750000000  0.5054260000000 1.0
C      1  0.5692160000000  0.5360160000000  0.4970080000000 1.0
C      1  0.5771790000000  0.4882240000000  0.5013260000000 1.0
C      1  0.5554510000000  0.4454060000000  0.4935440000000 1.0
C      1  0.5127530000000  0.4229660000000  0.4998210000000 1.0
C      1  0.4649740000000  0.4304250000000  0.4945740000000 1.0
C      1  0.4307840000000  0.4639840000000  0.5029920000000 1.0
C      1  0.4228210000000  0.5117760000000  0.4986740000000 1.0
C      1  0.4411530000000  0.4853330000000  0.4618340000000 1.0
C      1  0.4441290000000  0.5194230000000  0.5404460000000 1.0
C      1  0.4659100000000  0.5518110000000  0.4641090000000 1.0
C      1  0.5032480000000  0.5586910000000  0.5409810000000 1.0
C      1  0.5368100000000  0.5488720000000  0.4627000000000 1.0
C      1  0.5588470000000  0.5146670000000  0.5381660000000 1.0
C      1  0.5558710000000  0.4805770000000  0.4595540000000 1.0
C      1  0.5340900000000  0.4481890000000  0.5358910000000 1.0
C      1  0.4967520000000  0.4413090000000  0.4590190000000 1.0
C      1  0.4631900000000  0.4511280000000  0.5373000000000 1.0
C      1  0.4448410000000  0.5352080000000  0.4562470000000 1.0
C      1  0.4765120000000  0.5569870000000  0.5489620000000 1.0
C      1  0.5141230000000  0.5638370000000  0.4561610000000 1.0
C      1  0.5493710000000  0.5394660000000  0.5469200000000 1.0
C      1  0.5627300000000  0.5068580000000  0.4529420000000 1.0
C      1  0.5551590000000  0.4647920000000  0.5437530000000 1.0
C      1  0.5234880000000  0.4430130000000  0.4510380000000 1.0
C      1  0.4858770000000  0.4361630000000  0.5438390000000 1.0
C      1  0.4506290000000  0.4605340000000  0.4530800000000 1.0
C      1  0.4372700000000  0.4931420000000  0.5470580000000 1.0
C      1  0.5059190000000  0.4723180000000  0.5691300000000 1.0
C      1  0.4878890000000  0.4800740000000  0.4290310000000 1.0
C      1  0.4791020000000  0.4850260000000  0.5701390000000 1.0
C      1  0.4736800000000  0.5061140000000  0.4303560000000 1.0
C      1  0.4829290000000  0.5144500000000  0.5712750000000 1.0
C      1  0.4940810000000  0.5276820000000  0.4308700000000 1.0
C      1  0.5121110000000  0.5199260000000  0.5709690000000 1.0
C      1  0.5208980000000  0.5149740000000  0.4298610000000 1.0
C      1  0.5263200000000  0.4938860000000  0.5696440000000 1.0
C      1  0.5170710000000  0.4855500000000  0.4287250000000 1.0
END
