TITL C-9257-5531-201 -3.08152398692825e-05 125000 -364.811467235645 0 0 60 (Cs) n - 1
REM
REM in /home/bkarasulu/CARBON/AIRSS/Generating-Clusters/EDIP-Nigel-Params/Higher-Symm/Box-15A/Only-C60/SD-CG/HFTN-CG
REM
REM
REM
REM
REM
REM ./C.cell (414f73aa93bd7a1190c7fd0f31ff2f98)
REM
REM compiler GCC version 9.2.1 20190827 (Red Hat 9.2.1-1)
REM options -cpp -mtune=generic -march=x86-64 -g -O0 -fpre-include=/usr/include/finclude/math-vector-fortran.h
REM seed -2075524538 -2094909350 516310803 133203187 -938962206 779421381 -480545672 -2115572227 -859780061 1482679437 591198781 1887351904 2069431585 1008293739 1737341653 -15969502 -590344460 -839089908 788114906 504533743 641240553 190140059 721291917 -1482105169 178082051 1534388747 -1822325188 -716376441 -1315381212 787135767 -458644041 -500871337 -2131741734
REM
CELL 1.54180   50.00000   50.00000   50.00000   90.00000   90.00000   90.00000
LATT -1
SFAC C  
C      1  0.5636230000000  0.4745300000000  0.5005470000000 1.0
C      1  0.4355340000000  0.4767390000000  0.5001280000000 1.0
C      1  0.4869930000000  0.5129520000000  0.4189750000000 1.0
C      1  0.5139760000000  0.5124860000000  0.4190630000000 1.0
C      1  0.5287830000000  0.4652190000000  0.4752390000000 1.0
C      1  0.4701980000000  0.4662300000000  0.4750480000000 1.0
C      1  0.5572080000000  0.4925270000000  0.4752670000000 1.0
C      1  0.4427310000000  0.4945020000000  0.4748910000000 1.0
C      1  0.4638760000000  0.5343400000000  0.4574320000000 1.0
C      1  0.5375650000000  0.5330690000000  0.4576730000000 1.0
C      1  0.4456390000000  0.4959090000000  0.5212010000000 1.0
C      1  0.5540470000000  0.4940390000000  0.5215560000000 1.0
C      1  0.5183930000000  0.5494270000000  0.5045400000000 1.0
C      1  0.4832930000000  0.5500320000000  0.5044250000000 1.0
C      1  0.5204100000000  0.5557110000000  0.4555440000000 1.0
C      1  0.4818150000000  0.5563760000000  0.4554170000000 1.0
C      1  0.4857380000000  0.5186900000000  0.5274680000000 1.0
C      1  0.5147180000000  0.5181900000000  0.5275630000000 1.0
C      1  0.5158960000000  0.5686820000000  0.4807840000000 1.0
C      1  0.4866090000000  0.5691870000000  0.4806880000000 1.0
C      1  0.5438580000000  0.5197170000000  0.4841310000000 1.0
C      1  0.4569530000000  0.5212160000000  0.4838460000000 1.0
C      1  0.4442840000000  0.5250890000000  0.5124750000000 1.0
C      1  0.5564660000000  0.5231540000000  0.5128430000000 1.0
C      1  0.4840970000000  0.4708220000000  0.5361970000000 1.0
C      1  0.5146500000000  0.4702950000000  0.5362970000000 1.0
C      1  0.4450380000000  0.4510070000000  0.5062380000000 1.0
C      1  0.5531970000000  0.4491420000000  0.5065930000000 1.0
C      1  0.5154410000000  0.4909960000000  0.4865120000000 1.0
C      1  0.4843460000000  0.4915320000000  0.4864100000000 1.0
C      1  0.4805360000000  0.5148390000000  0.5575710000000 1.0
C      1  0.5195870000000  0.5141650000000  0.5576990000000 1.0
C      1  0.4340550000000  0.5133940000000  0.5657240000000 1.0
C      1  0.5659360000000  0.5111190000000  0.5661560000000 1.0
C      1  0.5282900000000  0.4365320000000  0.5110940000000 1.0
C      1  0.4694660000000  0.4375470000000  0.5109010000000 1.0
C      1  0.4713940000000  0.4851610000000  0.5599800000000 1.0
C      1  0.5276830000000  0.4841900000000  0.5601640000000 1.0
C      1  0.5129310000000  0.4628220000000  0.4263690000000 1.0
C      1  0.4862770000000  0.4632820000000  0.4262810000000 1.0
C      1  0.4756880000000  0.4930520000000  0.5159670000000 1.0
C      1  0.5239530000000  0.4922190000000  0.5161250000000 1.0
C      1  0.5562340000000  0.4884740000000  0.5520780000000 1.0
C      1  0.4430620000000  0.4904260000000  0.5517070000000 1.0
C      1  0.5315110000000  0.5632430000000  0.5262800000000 1.0
C      1  0.4705170000000  0.5642950000000  0.5260800000000 1.0
C      1  0.5131050000000  0.4318900000000  0.5351290000000 1.0
C      1  0.4843240000000  0.4323860000000  0.5350350000000 1.0
C      1  0.5455670000000  0.5303590000000  0.5608320000000 1.0
C      1  0.4551090000000  0.5319190000000  0.5605350000000 1.0
C      1  0.5503250000000  0.4881160000000  0.4449520000000 1.0
C      1  0.4496560000000  0.4898520000000  0.4446220000000 1.0
C      1  0.5361480000000  0.5130180000000  0.4364080000000 1.0
C      1  0.4647400000000  0.5142500000000  0.4361740000000 1.0
C      1  0.5338380000000  0.4634620000000  0.4445660000000 1.0
C      1  0.4652860000000  0.4646450000000  0.4443410000000 1.0
C      1  0.5504210000000  0.5435740000000  0.5342350000000 1.0
C      1  0.4508880000000  0.5452910000000  0.5339090000000 1.0
C      1  0.5137370000000  0.4420830000000  0.4870950000000 1.0
C      1  0.4843580000000  0.4425900000000  0.4869990000000 1.0
END
