TITL C-9260-5597-263 -4.01167078471136e-05 125000 -362.382495438682 0 0 60 (C1) n - 1
REM
REM in /home/bkarasulu/CARBON/AIRSS/Generating-Clusters/EDIP-Nigel-Params/Higher-Symm/Box-15A/Only-C60/SD-CG/HFTN-CG
REM
REM
REM
REM
REM
REM ./C.cell (414f73aa93bd7a1190c7fd0f31ff2f98)
REM
REM compiler GCC version 9.2.1 20190827 (Red Hat 9.2.1-1)
REM options -cpp -mtune=generic -march=x86-64 -g -O0 -fpre-include=/usr/include/finclude/math-vector-fortran.h
REM seed 2062601719 -1026590912 1619046304 -318263643 -2115489201 -807785245 1713422842 -2088153814 415808313 67919977 -1037518071 -1999065699 -1090719004 1047624157 1035683882 1388375156 917182959 -1628748634 303692607 -1149024524 -502600494 902802581 -1346675658 125920770 167935191 -1044070456 -954835037 530184684 -1523755 1618901861 -1613536350 -1057397477 -113229882
REM
CELL 1.54180   50.00000   50.00000   50.00000   90.00000   90.00000   90.00000
LATT -1
SFAC C  
C      1  0.4638340000000  0.4746220000000  0.4347200000000 1.0
C      1  0.4880800000000  0.4882140000000  0.5275620000000 1.0
C      1  0.5589940000000  0.5048960000000  0.5037820000000 1.0
C      1  0.5607170000000  0.4778060000000  0.5170800000000 1.0
C      1  0.4773980000000  0.5459710000000  0.5231930000000 1.0
C      1  0.5693770000000  0.5433440000000  0.4837880000000 1.0
C      1  0.4988440000000  0.5351950000000  0.4521090000000 1.0
C      1  0.4468450000000  0.5338100000000  0.4742760000000 1.0
C      1  0.5571690000000  0.5022970000000  0.5478740000000 1.0
C      1  0.4981550000000  0.5666380000000  0.5271260000000 1.0
C      1  0.4555130000000  0.4400960000000  0.4630410000000 1.0
C      1  0.5245110000000  0.5365170000000  0.4660810000000 1.0
C      1  0.4418130000000  0.5273820000000  0.5421520000000 1.0
C      1  0.4266210000000  0.4823310000000  0.5240820000000 1.0
C      1  0.5257170000000  0.5559500000000  0.4884550000000 1.0
C      1  0.4426710000000  0.5531700000000  0.4967390000000 1.0
C      1  0.4706180000000  0.4986600000000  0.5054920000000 1.0
C      1  0.5185430000000  0.5541770000000  0.5454300000000 1.0
C      1  0.5164620000000  0.5139920000000  0.4971100000000 1.0
C      1  0.4774970000000  0.5378530000000  0.4740670000000 1.0
C      1  0.4643310000000  0.4511880000000  0.5231210000000 1.0
C      1  0.5280840000000  0.5146420000000  0.5479480000000 1.0
C      1  0.4749560000000  0.4956630000000  0.4511980000000 1.0
C      1  0.4682790000000  0.5370260000000  0.5491540000000 1.0
C      1  0.5661040000000  0.5215310000000  0.5267970000000 1.0
C      1  0.4862790000000  0.5248640000000  0.5004430000000 1.0
C      1  0.4939230000000  0.4906640000000  0.5739520000000 1.0
C      1  0.4843540000000  0.4819940000000  0.4769660000000 1.0
C      1  0.4933600000000  0.4468690000000  0.5123480000000 1.0
C      1  0.4299660000000  0.5440250000000  0.5207070000000 1.0
C      1  0.5511960000000  0.5466680000000  0.5281500000000 1.0
C      1  0.4777260000000  0.4808840000000  0.5533020000000 1.0
C      1  0.4989880000000  0.5086460000000  0.4400550000000 1.0
C      1  0.5227900000000  0.4932000000000  0.4524660000000 1.0
C      1  0.4629800000000  0.4569990000000  0.5514830000000 1.0
C      1  0.4834200000000  0.4502280000000  0.4666280000000 1.0
C      1  0.5518880000000  0.5578660000000  0.5010980000000 1.0
C      1  0.5261140000000  0.4296980000000  0.4802420000000 1.0
C      1  0.5487590000000  0.5100850000000  0.4541370000000 1.0
C      1  0.5407630000000  0.4348690000000  0.5054880000000 1.0
C      1  0.5641690000000  0.4582040000000  0.4695300000000 1.0
C      1  0.4403550000000  0.4797130000000  0.4789920000000 1.0
C      1  0.5343550000000  0.4736360000000  0.5322090000000 1.0
C      1  0.5025340000000  0.5721620000000  0.4978280000000 1.0
C      1  0.4972900000000  0.4339430000000  0.4863470000000 1.0
C      1  0.5116800000000  0.5124000000000  0.5736640000000 1.0
C      1  0.4354250000000  0.5077830000000  0.4757340000000 1.0
C      1  0.5211150000000  0.4468190000000  0.5249550000000 1.0
C      1  0.4952880000000  0.4537490000000  0.4392130000000 1.0
C      1  0.5015670000000  0.5401390000000  0.5674880000000 1.0
C      1  0.5130670000000  0.4899000000000  0.4799980000000 1.0
C      1  0.4408200000000  0.4645550000000  0.5064770000000 1.0
C      1  0.5400130000000  0.4470320000000  0.4594220000000 1.0
C      1  0.5659580000000  0.5158680000000  0.4775710000000 1.0
C      1  0.4417800000000  0.5067370000000  0.5184150000000 1.0
C      1  0.5618630000000  0.4544170000000  0.4975670000000 1.0
C      1  0.4767570000000  0.5659420000000  0.4837100000000 1.0
C      1  0.4434780000000  0.4641260000000  0.4538470000000 1.0
C      1  0.5229680000000  0.4641910000000  0.4413340000000 1.0
C      1  0.5158820000000  0.4981560000000  0.5258570000000 1.0
END
