TITL C-9258-7861-97 -3.0200759090175e-07 125000 -369.66879211464 0 0 60 (C1) n - 1
REM
REM in /home/bkarasulu/CARBON/AIRSS/Generating-Clusters/EDIP-Nigel-Params/Higher-Symm/Box-15A/Only-C60/SD-CG/HFTN-CG
REM
REM
REM
REM
REM
REM ./C.cell (414f73aa93bd7a1190c7fd0f31ff2f98)
REM
REM compiler GCC version 9.2.1 20190827 (Red Hat 9.2.1-1)
REM options -cpp -mtune=generic -march=x86-64 -g -O0 -fpre-include=/usr/include/finclude/math-vector-fortran.h
REM seed 286945577 -1702884729 574634722 -1320345259 -1083130468 -742696774 559132420 -268484086 -1478784388 1587961415 758755985 -1571784600 1948328047 -1030786396 548721676 -1945383209 1326370009 1605026117 1605050199 1146237821 -1692556223 1436995372 -1134208481 -991751784 184064388 762046185 700468629 -1696968198 874509323 456995796 -1968244097 1964725366 1253411310
REM
CELL 1.54180   50.00000   50.00000   50.00000   90.00000   90.00000   90.00000
LATT -1
SFAC C  
C      1  0.5248610000000  0.5064880000000  0.5751300000000 1.0
C      1  0.4796680000000  0.4954360000000  0.5765500000000 1.0
C      1  0.5247210000000  0.4936200000000  0.4247550000000 1.0
C      1  0.4782070000000  0.5058260000000  0.4243990000000 1.0
C      1  0.4431660000000  0.4885320000000  0.4499730000000 1.0
C      1  0.5584610000000  0.5129600000000  0.4521820000000 1.0
C      1  0.4438970000000  0.5101400000000  0.5496560000000 1.0
C      1  0.5590870000000  0.4876860000000  0.5472940000000 1.0
C      1  0.4837210000000  0.5047500000000  0.5196370000000 1.0
C      1  0.5103730000000  0.4946140000000  0.5212140000000 1.0
C      1  0.4852180000000  0.4946220000000  0.4818130000000 1.0
C      1  0.5113020000000  0.5049440000000  0.4781310000000 1.0
C      1  0.5578170000000  0.4858630000000  0.4962230000000 1.0
C      1  0.4394220000000  0.5144710000000  0.4956670000000 1.0
C      1  0.5571420000000  0.5143860000000  0.5033970000000 1.0
C      1  0.4393390000000  0.4858470000000  0.5000480000000 1.0
C      1  0.5337960000000  0.4719670000000  0.4407660000000 1.0
C      1  0.4685140000000  0.5286540000000  0.4380930000000 1.0
C      1  0.5337960000000  0.5279910000000  0.5589530000000 1.0
C      1  0.4710140000000  0.4714850000000  0.5636760000000 1.0
C      1  0.4415290000000  0.4703080000000  0.4748620000000 1.0
C      1  0.5575430000000  0.5306710000000  0.4774670000000 1.0
C      1  0.4420310000000  0.5280810000000  0.5234200000000 1.0
C      1  0.5584490000000  0.4697070000000  0.5221910000000 1.0
C      1  0.4670050000000  0.4544310000000  0.4773710000000 1.0
C      1  0.5317780000000  0.5458820000000  0.4769040000000 1.0
C      1  0.4664950000000  0.5452040000000  0.5227080000000 1.0
C      1  0.5329060000000  0.4539960000000  0.5228390000000 1.0
C      1  0.4950960000000  0.4176230000000  0.5124330000000 1.0
C      1  0.5037210000000  0.5842100000000  0.5135070000000 1.0
C      1  0.4946200000000  0.5828550000000  0.4879020000000 1.0
C      1  0.5035650000000  0.4160720000000  0.4866270000000 1.0
C      1  0.4892230000000  0.5442510000000  0.4526000000000 1.0
C      1  0.5118300000000  0.4547270000000  0.4530920000000 1.0
C      1  0.4909970000000  0.4556830000000  0.5480870000000 1.0
C      1  0.5118960000000  0.5454750000000  0.5469850000000 1.0
C      1  0.4803700000000  0.4578220000000  0.5048420000000 1.0
C      1  0.5153400000000  0.5419810000000  0.5027100000000 1.0
C      1  0.4815140000000  0.5422360000000  0.4964140000000 1.0
C      1  0.5159850000000  0.4577540000000  0.4972790000000 1.0
C      1  0.4817890000000  0.4319940000000  0.5324690000000 1.0
C      1  0.5196260000000  0.5631110000000  0.5231470000000 1.0
C      1  0.4808570000000  0.5680280000000  0.4685150000000 1.0
C      1  0.5197430000000  0.4367660000000  0.4766400000000 1.0
C      1  0.4685840000000  0.4818550000000  0.4359450000000 1.0
C      1  0.5332460000000  0.5180790000000  0.4365190000000 1.0
C      1  0.4684260000000  0.5188330000000  0.5650220000000 1.0
C      1  0.5339200000000  0.4825530000000  0.5627630000000 1.0
C      1  0.4665430000000  0.5188920000000  0.4813050000000 1.0
C      1  0.5293800000000  0.4817440000000  0.4832330000000 1.0
C      1  0.4628400000000  0.4811700000000  0.5181480000000 1.0
C      1  0.5284830000000  0.5179750000000  0.5167350000000 1.0
C      1  0.4841290000000  0.5299560000000  0.5415090000000 1.0
C      1  0.5161350000000  0.4716550000000  0.5404870000000 1.0
C      1  0.4845080000000  0.4707360000000  0.4593850000000 1.0
C      1  0.5152790000000  0.5284590000000  0.4589800000000 1.0
C      1  0.5572570000000  0.5176060000000  0.5420400000000 1.0
C      1  0.4498060000000  0.4801560000000  0.5451490000000 1.0
C      1  0.5573660000000  0.4828600000000  0.4574610000000 1.0
C      1  0.4466690000000  0.5183240000000  0.4567540000000 1.0
END
