TITL C-9263-351-212 -2.46621802158225e-05 125000 -364.23833928381 0 0 60 (C1) n - 1
REM
REM in /home/bkarasulu/CARBON/AIRSS/Generating-Clusters/EDIP-Nigel-Params/Higher-Symm/Box-15A/Only-C60/SD-CG/HFTN-CG
REM
REM
REM
REM
REM
REM ./C.cell (414f73aa93bd7a1190c7fd0f31ff2f98)
REM
REM compiler GCC version 9.2.1 20190827 (Red Hat 9.2.1-1)
REM options -cpp -mtune=generic -march=x86-64 -g -O0 -fpre-include=/usr/include/finclude/math-vector-fortran.h
REM seed 1857813248 1708918839 540309939 -1405768153 -127252679 1753126482 -373497242 44041220 -679380131 -1072530499 -1435007961 1314973751 -990565556 -412762316 -1683088353 -1097538041 -795445640 810604160 -1741607500 1488136949 1599573184 -2129506325 913907548 -1993998881 1388641827 163675171 -1859226558 2127317712 73840023 526306654 -287650659 -418940772 1228749785
REM
CELL 1.54180   50.00000   50.00000   50.00000   90.00000   90.00000   90.00000
LATT -1
SFAC C  
C      1  0.5274280000000  0.5487350000000  0.4722220000000 1.0
C      1  0.5310590000000  0.5488250000000  0.5259030000000 1.0
C      1  0.5388740000000  0.4695320000000  0.5508040000000 1.0
C      1  0.5404120000000  0.4690890000000  0.4500550000000 1.0
C      1  0.5170270000000  0.5146900000000  0.5531330000000 1.0
C      1  0.5159660000000  0.5124190000000  0.4477330000000 1.0
C      1  0.4444230000000  0.4690180000000  0.5269210000000 1.0
C      1  0.4470420000000  0.4708810000000  0.4739870000000 1.0
C      1  0.5690220000000  0.5159320000000  0.5242450000000 1.0
C      1  0.5683990000000  0.5178320000000  0.4758180000000 1.0
C      1  0.4733750000000  0.4945260000000  0.4345010000000 1.0
C      1  0.4712200000000  0.4964220000000  0.5662710000000 1.0
C      1  0.5144340000000  0.4680760000000  0.4334600000000 1.0
C      1  0.5126860000000  0.4706140000000  0.5667030000000 1.0
C      1  0.4288680000000  0.4950360000000  0.5264610000000 1.0
C      1  0.4365880000000  0.4983480000000  0.4767310000000 1.0
C      1  0.4714560000000  0.4751680000000  0.5437000000000 1.0
C      1  0.4734340000000  0.4735650000000  0.4568810000000 1.0
C      1  0.4820080000000  0.5444580000000  0.5354330000000 1.0
C      1  0.4807050000000  0.5379810000000  0.4745500000000 1.0
C      1  0.4903230000000  0.4538050000000  0.5566350000000 1.0
C      1  0.4922650000000  0.4514530000000  0.4442370000000 1.0
C      1  0.5530990000000  0.5367330000000  0.4590980000000 1.0
C      1  0.5558740000000  0.5360220000000  0.5413010000000 1.0
C      1  0.5575680000000  0.4919720000000  0.5518880000000 1.0
C      1  0.5579750000000  0.4927940000000  0.4487030000000 1.0
C      1  0.4611020000000  0.5216420000000  0.5561590000000 1.0
C      1  0.4657010000000  0.5206360000000  0.4432010000000 1.0
C      1  0.5456760000000  0.5164930000000  0.5614860000000 1.0
C      1  0.5442990000000  0.5165920000000  0.4391700000000 1.0
C      1  0.4472630000000  0.5220560000000  0.4641260000000 1.0
C      1  0.4462080000000  0.5187710000000  0.5313080000000 1.0
C      1  0.5224900000000  0.4302340000000  0.4764300000000 1.0
C      1  0.5210010000000  0.4306310000000  0.5253540000000 1.0
C      1  0.5008060000000  0.4978820000000  0.5731810000000 1.0
C      1  0.5021750000000  0.4949140000000  0.4270870000000 1.0
C      1  0.4868960000000  0.4891250000000  0.5226870000000 1.0
C      1  0.4879800000000  0.4874100000000  0.4785520000000 1.0
C      1  0.5450510000000  0.4471930000000  0.5320760000000 1.0
C      1  0.5471070000000  0.4472570000000  0.4701250000000 1.0
C      1  0.5094990000000  0.5433050000000  0.5453560000000 1.0
C      1  0.5040810000000  0.5396330000000  0.4558890000000 1.0
C      1  0.5032050000000  0.4288030000000  0.4562360000000 1.0
C      1  0.5007490000000  0.4309550000000  0.5445970000000 1.0
C      1  0.5154620000000  0.4968520000000  0.5259960000000 1.0
C      1  0.5160990000000  0.4953230000000  0.4750880000000 1.0
C      1  0.4686590000000  0.5620090000000  0.5136910000000 1.0
C      1  0.4214340000000  0.5346030000000  0.4976960000000 1.0
C      1  0.4928920000000  0.5708430000000  0.5011830000000 1.0
C      1  0.4188040000000  0.5052930000000  0.4990510000000 1.0
C      1  0.4500880000000  0.5357420000000  0.5062290000000 1.0
C      1  0.5205220000000  0.5623680000000  0.4994300000000 1.0
C      1  0.5227910000000  0.5138670000000  0.4996970000000 1.0
C      1  0.5260160000000  0.4696560000000  0.5012970000000 1.0
C      1  0.4464630000000  0.4592320000000  0.5000040000000 1.0
C      1  0.4736080000000  0.5043000000000  0.4997880000000 1.0
C      1  0.4932710000000  0.5277030000000  0.5017490000000 1.0
C      1  0.5548840000000  0.4591570000000  0.4980500000000 1.0
C      1  0.5536210000000  0.5201700000000  0.5002000000000 1.0
C      1  0.5112050000000  0.4428460000000  0.5005900000000 1.0
END
