TITL C-9264-7143-102 -8.72511392680789e-08 125000 -375.948271640154 0 0 60 (D4) n - 1
REM
REM in /home/bkarasulu/CARBON/AIRSS/Generating-Clusters/EDIP-Nigel-Params/Higher-Symm/Box-15A/Only-C60/SD-CG/HFTN-CG
REM
REM
REM
REM
REM
REM ./C.cell (414f73aa93bd7a1190c7fd0f31ff2f98)
REM
REM compiler GCC version 9.2.1 20190827 (Red Hat 9.2.1-1)
REM options -cpp -mtune=generic -march=x86-64 -g -O0 -fpre-include=/usr/include/finclude/math-vector-fortran.h
REM seed 664502331 -972073568 325718973 356487795 2037983288 183087537 -419973175 1421792056 142018702 -1233967919 1214923678 -1385142955 -1274405819 -992491419 -1260225960 -1055105015 -1931189041 942862049 668513803 -1259501695 -177001450 1064833644 -1923543465 -658446663 2054716656 -1630810232 -1994898468 -2018245551 953948405 248749951 -2110489888 -738750727 -385869714
REM
CELL 1.54180   50.00000   50.00000   50.00000   90.00000   90.00000   90.00000
LATT -1
SFAC C  
C      1  0.5217220000000  0.4929940000000  0.4269920000000 1.0
C      1  0.5217180000000  0.5730090000000  0.4929940000000 1.0
C      1  0.5217180000000  0.5070070000000  0.5730090000000 1.0
C      1  0.5217220000000  0.4269920000000  0.5070070000000 1.0
C      1  0.4769350000000  0.5151340000000  0.4282340000000 1.0
C      1  0.4769360000000  0.4282340000000  0.4848650000000 1.0
C      1  0.4769320000000  0.4848650000000  0.5717650000000 1.0
C      1  0.4769320000000  0.5717650000000  0.5151340000000 1.0
C      1  0.5306740000000  0.4818720000000  0.4875740000000 1.0
C      1  0.5306740000000  0.5124280000000  0.4818720000000 1.0
C      1  0.5306730000000  0.5181300000000  0.5124270000000 1.0
C      1  0.5306730000000  0.4875740000000  0.5181300000000 1.0
C      1  0.4679800000000  0.5194050000000  0.4896800000000 1.0
C      1  0.4679810000000  0.4896800000000  0.4805930000000 1.0
C      1  0.4679800000000  0.4805930000000  0.5103190000000 1.0
C      1  0.4679790000000  0.5103190000000  0.5194050000000 1.0
C      1  0.5107440000000  0.4635980000000  0.4750160000000 1.0
C      1  0.5107430000000  0.5249850000000  0.4635980000000 1.0
C      1  0.5107420000000  0.5364020000000  0.5249850000000 1.0
C      1  0.5107430000000  0.4750160000000  0.5364020000000 1.0
C      1  0.4879100000000  0.5389700000000  0.4792470000000 1.0
C      1  0.4879120000000  0.4792470000000  0.4610300000000 1.0
C      1  0.4879110000000  0.4610300000000  0.5207520000000 1.0
C      1  0.4879090000000  0.5207520000000  0.5389700000000 1.0
C      1  0.5308180000000  0.4323840000000  0.5327810000000 1.0
C      1  0.5308190000000  0.4672210000000  0.4323840000000 1.0
C      1  0.5308160000000  0.5676180000000  0.4672200000000 1.0
C      1  0.5308150000000  0.5327810000000  0.5676170000000 1.0
C      1  0.4678340000000  0.5635220000000  0.5401420000000 1.0
C      1  0.4678370000000  0.5401420000000  0.4364770000000 1.0
C      1  0.4678390000000  0.4364770000000  0.4598560000000 1.0
C      1  0.4678360000000  0.4598560000000  0.5635220000000 1.0
C      1  0.4732080000000  0.5551990000000  0.4592370000000 1.0
C      1  0.4732070000000  0.5407620000000  0.5551990000000 1.0
C      1  0.4732090000000  0.4448000000000  0.5407620000000 1.0
C      1  0.4732110000000  0.4592370000000  0.4448000000000 1.0
C      1  0.5254470000000  0.4497110000000  0.4533160000000 1.0
C      1  0.5254450000000  0.4533160000000  0.5502900000000 1.0
C      1  0.5254420000000  0.5502900000000  0.5466850000000 1.0
C      1  0.5254450000000  0.5466850000000  0.4497110000000 1.0
C      1  0.5398760000000  0.5130000000000  0.4211480000000 1.0
C      1  0.5398730000000  0.5788530000000  0.5130000000000 1.0
C      1  0.5398740000000  0.4870020000000  0.5788530000000 1.0
C      1  0.5398770000000  0.4211490000000  0.4870010000000 1.0
C      1  0.4587800000000  0.4959080000000  0.4201870000000 1.0
C      1  0.4587800000000  0.4201870000000  0.5040900000000 1.0
C      1  0.4587770000000  0.5040900000000  0.5798110000000 1.0
C      1  0.4587770000000  0.5798110000000  0.4959080000000 1.0
C      1  0.4558030000000  0.5301750000000  0.5740640000000 1.0
C      1  0.4558070000000  0.4259340000000  0.5301760000000 1.0
C      1  0.4558080000000  0.4698230000000  0.4259340000000 1.0
C      1  0.4558040000000  0.5740640000000  0.4698230000000 1.0
C      1  0.5428480000000  0.4617240000000  0.5702230000000 1.0
C      1  0.5428460000000  0.5702230000000  0.5382780000000 1.0
C      1  0.5428490000000  0.5382780000000  0.4297790000000 1.0
C      1  0.5428510000000  0.4297790000000  0.4617240000000 1.0
C      1  0.4993260000000  0.4968610000000  0.5559090000000 1.0
C      1  0.4993280000000  0.4440910000000  0.4968610000000 1.0
C      1  0.4993280000000  0.5031390000000  0.4440910000000 1.0
C      1  0.4993250000000  0.5559090000000  0.5031390000000 1.0
END
