TITL C-9268-6400-246 -1.11767537230573e-06 125000 -366.780297763204 0 0 60 (D3) n - 1
REM
REM in /home/bkarasulu/CARBON/AIRSS/Generating-Clusters/EDIP-Nigel-Params/Higher-Symm/Box-15A/Only-C60/SD-CG/HFTN-CG
REM
REM
REM
REM
REM
REM ./C.cell (414f73aa93bd7a1190c7fd0f31ff2f98)
REM
REM compiler GCC version 9.2.1 20190827 (Red Hat 9.2.1-1)
REM options -cpp -mtune=generic -march=x86-64 -g -O0 -fpre-include=/usr/include/finclude/math-vector-fortran.h
REM seed -1452326910 409585337 602191835 1836041886 524879824 -114978362 -1806238235 -1177666478 -767887522 254174153 -351343266 -80642870 -35527183 -2045445484 1351084455 192616597 -610880828 1949758290 242558162 -663394842 626296943 -516089618 1078676240 1040121648 711545267 1683328925 820894950 -76602969 480498168 175936729 676884306 1902662050 -1478493894
REM
CELL 1.54180   50.00000   50.00000   50.00000   90.00000   90.00000   90.00000
LATT -1
SFAC C  
C      1  0.5094810000000  0.5624000000000  0.4419430000000 1.0
C      1  0.5455500000000  0.5623960000000  0.5372330000000 1.0
C      1  0.4449920000000  0.5624080000000  0.5208240000000 1.0
C      1  0.4905170000000  0.4376000000000  0.4419430000000 1.0
C      1  0.4544510000000  0.4376040000000  0.5372340000000 1.0
C      1  0.5550080000000  0.4375920000000  0.5208230000000 1.0
C      1  0.4860840000000  0.4643840000000  0.4891210000000 1.0
C      1  0.5163730000000  0.4643800000000  0.4933920000000 1.0
C      1  0.4975300000000  0.4643830000000  0.5174880000000 1.0
C      1  0.5139160000000  0.5356160000000  0.4891200000000 1.0
C      1  0.4836270000000  0.5356200000000  0.4933920000000 1.0
C      1  0.5024710000000  0.5356170000000  0.5174870000000 1.0
C      1  0.5578510000000  0.5192430000000  0.5536260000000 1.0
C      1  0.4246370000000  0.5192590000000  0.5232850000000 1.0
C      1  0.5175200000000  0.5192480000000  0.4230890000000 1.0
C      1  0.4421510000000  0.4807570000000  0.5536270000000 1.0
C      1  0.5753640000000  0.4807410000000  0.5232830000000 1.0
C      1  0.4824790000000  0.4807520000000  0.4230890000000 1.0
C      1  0.4622830000000  0.5347880000000  0.4715130000000 1.0
C      1  0.5435350000000  0.5347770000000  0.4815750000000 1.0
C      1  0.4941950000000  0.5347840000000  0.5469110000000 1.0
C      1  0.5377170000000  0.4652120000000  0.4715120000000 1.0
C      1  0.4564640000000  0.4652220000000  0.4815770000000 1.0
C      1  0.5058060000000  0.4652160000000  0.5469110000000 1.0
C      1  0.5512310000000  0.5601420000000  0.4700050000000 1.0
C      1  0.5003720000000  0.5601490000000  0.5593590000000 1.0
C      1  0.4484190000000  0.5601550000000  0.4706360000000 1.0
C      1  0.4487680000000  0.4398570000000  0.4700060000000 1.0
C      1  0.4996290000000  0.4398510000000  0.5593590000000 1.0
C      1  0.5515810000000  0.4398450000000  0.4706350000000 1.0
C      1  0.5568570000000  0.4883630000000  0.4773830000000 1.0
C      1  0.4911560000000  0.4883710000000  0.5605500000000 1.0
C      1  0.4519830000000  0.4883760000000  0.4620670000000 1.0
C      1  0.4431420000000  0.5116370000000  0.4773850000000 1.0
C      1  0.5088460000000  0.5116290000000  0.5605490000000 1.0
C      1  0.5480160000000  0.5116240000000  0.4620660000000 1.0
C      1  0.4645700000000  0.4977940000000  0.5537570000000 1.0
C      1  0.4711600000000  0.4977930000000  0.4424380000000 1.0
C      1  0.5642690000000  0.4977810000000  0.5038050000000 1.0
C      1  0.5354320000000  0.5022060000000  0.5537560000000 1.0
C      1  0.5288380000000  0.5022070000000  0.4424380000000 1.0
C      1  0.4357310000000  0.5022190000000  0.5038070000000 1.0
C      1  0.4419750000000  0.4620510000000  0.5326720000000 1.0
C      1  0.5007110000000  0.4620430000000  0.4334170000000 1.0
C      1  0.5573000000000  0.4620370000000  0.5339110000000 1.0
C      1  0.5580260000000  0.5379490000000  0.5326710000000 1.0
C      1  0.4992880000000  0.5379560000000  0.4334170000000 1.0
C      1  0.4427000000000  0.5379640000000  0.5339130000000 1.0
C      1  0.4650670000000  0.5263680000000  0.5486040000000 1.0
C      1  0.4753790000000  0.5263660000000  0.4454420000000 1.0
C      1  0.5595640000000  0.5263560000000  0.5059530000000 1.0
C      1  0.5349340000000  0.4736320000000  0.5486030000000 1.0
C      1  0.5246200000000  0.4736330000000  0.4454420000000 1.0
C      1  0.4404370000000  0.4736440000000  0.5059550000000 1.0
C      1  0.4762170000000  0.4297470000000  0.5507540000000 1.0
C      1  0.4679240000000  0.4297480000000  0.4540340000000 1.0
C      1  0.5558330000000  0.4297370000000  0.4952120000000 1.0
C      1  0.5237840000000  0.5702530000000  0.5507530000000 1.0
C      1  0.5320750000000  0.5702520000000  0.4540330000000 1.0
C      1  0.4441670000000  0.5702630000000  0.4952130000000 1.0
END
