TITL C-9266-5713-190 8.48879710657498e-05 125000 -364.252271248565 0 0 60 (C1) n - 1
REM
REM in /home/bkarasulu/CARBON/AIRSS/Generating-Clusters/EDIP-Nigel-Params/Higher-Symm/Box-15A/Only-C60/SD-CG/HFTN-CG
REM
REM
REM
REM
REM
REM ./C.cell (414f73aa93bd7a1190c7fd0f31ff2f98)
REM
REM compiler GCC version 9.2.1 20190827 (Red Hat 9.2.1-1)
REM options -cpp -mtune=generic -march=x86-64 -g -O0 -fpre-include=/usr/include/finclude/math-vector-fortran.h
REM seed -578181200 -720911759 -1387880079 1857148703 -898942697 1785952585 -1082192006 790309431 651045240 1087275844 -160817641 1155732054 861785403 1351151314 2117864592 842465617 2095478969 884725397 -1236678347 325479746 555722430 1442779475 1736112811 -1686742044 -221422997 1041264797 1843699651 2074743776 258687706 452830804 -817874991 198927593 1711183581
REM
CELL 1.54180   50.00000   50.00000   50.00000   90.00000   90.00000   90.00000
LATT -1
SFAC C  
C      1  0.5066040000000  0.4420340000000  0.4630150000000 1.0
C      1  0.4679640000000  0.4476690000000  0.5115270000000 1.0
C      1  0.5221970000000  0.4454230000000  0.5193190000000 1.0
C      1  0.5107940000000  0.4665890000000  0.4773900000000 1.0
C      1  0.4784480000000  0.4764790000000  0.5138380000000 1.0
C      1  0.5073410000000  0.4671300000000  0.5060010000000 1.0
C      1  0.5219770000000  0.5037700000000  0.4324870000000 1.0
C      1  0.4239070000000  0.5073040000000  0.5175630000000 1.0
C      1  0.5535260000000  0.5005970000000  0.5540290000000 1.0
C      1  0.5002890000000  0.5376220000000  0.5295130000000 1.0
C      1  0.5232780000000  0.5357640000000  0.4858770000000 1.0
C      1  0.4725140000000  0.5323290000000  0.4864950000000 1.0
C      1  0.5129810000000  0.5085090000000  0.4912720000000 1.0
C      1  0.4823070000000  0.5022160000000  0.4901080000000 1.0
C      1  0.5059180000000  0.5088280000000  0.5203850000000 1.0
C      1  0.4838070000000  0.5342470000000  0.4342770000000 1.0
C      1  0.4506540000000  0.5328630000000  0.5488520000000 1.0
C      1  0.5638840000000  0.5308540000000  0.5172420000000 1.0
C      1  0.5551780000000  0.4527140000000  0.4847690000000 1.0
C      1  0.4574220000000  0.4522890000000  0.4645130000000 1.0
C      1  0.4867870000000  0.4493600000000  0.5519240000000 1.0
C      1  0.5016600000000  0.5532530000000  0.4435320000000 1.0
C      1  0.4484850000000  0.5524260000000  0.5296420000000 1.0
C      1  0.5496860000000  0.5516330000000  0.5287620000000 1.0
C      1  0.5595130000000  0.5022260000000  0.4661120000000 1.0
C      1  0.4420280000000  0.5009300000000  0.4717540000000 1.0
C      1  0.5042850000000  0.4982820000000  0.5580740000000 1.0
C      1  0.4674180000000  0.4344350000000  0.5365770000000 1.0
C      1  0.5476690000000  0.4394470000000  0.5086250000000 1.0
C      1  0.4796770000000  0.4366440000000  0.4569580000000 1.0
C      1  0.4944220000000  0.5078000000000  0.4321510000000 1.0
C      1  0.4415950000000  0.5077270000000  0.5391480000000 1.0
C      1  0.5677030000000  0.5061000000000  0.5308070000000 1.0
C      1  0.4597020000000  0.4810210000000  0.4589200000000 1.0
C      1  0.4814920000000  0.4781310000000  0.5574370000000 1.0
C      1  0.5637590000000  0.4804170000000  0.4878050000000 1.0
C      1  0.4731360000000  0.5496490000000  0.5142650000000 1.0
C      1  0.5247220000000  0.5518570000000  0.5142240000000 1.0
C      1  0.4993600000000  0.5506770000000  0.4724600000000 1.0
C      1  0.5745840000000  0.4863710000000  0.5127650000000 1.0
C      1  0.4759350000000  0.4878960000000  0.4374120000000 1.0
C      1  0.4566970000000  0.4846160000000  0.5449510000000 1.0
C      1  0.5711950000000  0.5314900000000  0.4895920000000 1.0
C      1  0.4572760000000  0.5362770000000  0.4428600000000 1.0
C      1  0.4717270000000  0.5335950000000  0.5670540000000 1.0
C      1  0.4986590000000  0.5779080000000  0.4849420000000 1.0
C      1  0.4792670000000  0.5773530000000  0.5062150000000 1.0
C      1  0.5175760000000  0.5795630000000  0.5070550000000 1.0
C      1  0.5160470000000  0.4432980000000  0.5483640000000 1.0
C      1  0.5388590000000  0.4467540000000  0.4599270000000 1.0
C      1  0.4458650000000  0.4457510000000  0.4913950000000 1.0
C      1  0.4256520000000  0.4920680000000  0.4943440000000 1.0
C      1  0.5314330000000  0.4880220000000  0.5651010000000 1.0
C      1  0.5453530000000  0.4916660000000  0.4414650000000 1.0
C      1  0.5495690000000  0.5326040000000  0.4711690000000 1.0
C      1  0.4483620000000  0.5300190000000  0.4687040000000 1.0
C      1  0.4977760000000  0.5286470000000  0.5589490000000 1.0
C      1  0.5465680000000  0.4641060000000  0.4385800000000 1.0
C      1  0.4255820000000  0.4644490000000  0.4971800000000 1.0
C      1  0.5319280000000  0.4603020000000  0.5643340000000 1.0
END
