TITL C-9258-7861-118 -6.26079027586947e-06 125000 -357.131935286191 0 0 60 (Cs) n - 1
REM
REM in /home/bkarasulu/CARBON/AIRSS/Generating-Clusters/EDIP-Nigel-Params/Higher-Symm/Box-15A/Only-C60/SD-CG/HFTN-CG
REM
REM
REM
REM
REM
REM ./C.cell (414f73aa93bd7a1190c7fd0f31ff2f98)
REM
REM compiler GCC version 9.2.1 20190827 (Red Hat 9.2.1-1)
REM options -cpp -mtune=generic -march=x86-64 -g -O0 -fpre-include=/usr/include/finclude/math-vector-fortran.h
REM seed -1274249803 628185439 4567245 -233941186 132371447 89801662 314409198 -1007608156 -628861870 -1989560930 240882547 -246013692 1985730067 -1329898889 148712159 2079355133 -598650038 1306976768 1432732479 -1783612299 1750331616 -1232103024 -515963377 1788998357 1247599586 881804550 1868836464 633842938 800988794 1273188270 -401703275 -1967139379 -991965963
REM
CELL 1.54180   50.00000   50.00000   50.00000   90.00000   90.00000   90.00000
LATT -1
SFAC C  
C      1  0.5157120000000  0.4703130000000  0.4938490000000 1.0
C      1  0.4843030000000  0.4703030000000  0.4938550000000 1.0
C      1  0.4424050000000  0.4915050000000  0.4805550000000 1.0
C      1  0.5575920000000  0.4915390000000  0.4805330000000 1.0
C      1  0.5218310000000  0.5173830000000  0.4789620000000 1.0
C      1  0.4781510000000  0.5173700000000  0.4789700000000 1.0
C      1  0.4850010000000  0.5583300000000  0.4931650000000 1.0
C      1  0.5149620000000  0.5583390000000  0.4931590000000 1.0
C      1  0.5428810000000  0.4714350000000  0.5498040000000 1.0
C      1  0.4571540000000  0.4714100000000  0.5498200000000 1.0
C      1  0.5516710000000  0.4648010000000  0.4721420000000 1.0
C      1  0.4483400000000  0.4647710000000  0.4721610000000 1.0
C      1  0.4706330000000  0.4776150000000  0.5741870000000 1.0
C      1  0.5294080000000  0.4776330000000  0.5741760000000 1.0
C      1  0.5216160000000  0.4889890000000  0.5158050000000 1.0
C      1  0.4783960000000  0.4889760000000  0.5158130000000 1.0
C      1  0.5155170000000  0.5144470000000  0.4305610000000 1.0
C      1  0.4844490000000  0.5144380000000  0.4305670000000 1.0
C      1  0.5737360000000  0.5283720000000  0.5016790000000 1.0
C      1  0.4262480000000  0.5283290000000  0.5017060000000 1.0
C      1  0.4399370000000  0.5165250000000  0.5561630000000 1.0
C      1  0.5600740000000  0.5165600000000  0.5561400000000 1.0
C      1  0.5145000000000  0.4501650000000  0.4450120000000 1.0
C      1  0.4855090000000  0.4501560000000  0.4450170000000 1.0
C      1  0.4781230000000  0.5411890000000  0.5388390000000 1.0
C      1  0.5218670000000  0.5412020000000  0.5388310000000 1.0
C      1  0.5149550000000  0.5011050000000  0.5677060000000 1.0
C      1  0.4850690000000  0.5010970000000  0.5677120000000 1.0
C      1  0.4751440000000  0.4293160000000  0.4883980000000 1.0
C      1  0.5248940000000  0.4293310000000  0.4883890000000 1.0
C      1  0.4721350000000  0.4538030000000  0.5308830000000 1.0
C      1  0.5279040000000  0.4538200000000  0.5308730000000 1.0
C      1  0.5269580000000  0.5541380000000  0.4668100000000 1.0
C      1  0.4729970000000  0.5541220000000  0.4668200000000 1.0
C      1  0.4850570000000  0.4321000000000  0.5149940000000 1.0
C      1  0.5149890000000  0.4321090000000  0.5149880000000 1.0
C      1  0.5150310000000  0.4898650000000  0.4676700000000 1.0
C      1  0.4849630000000  0.4898560000000  0.4676750000000 1.0
C      1  0.5599600000000  0.5501240000000  0.5124240000000 1.0
C      1  0.4400150000000  0.5500880000000  0.5124460000000 1.0
C      1  0.4201400000000  0.5314300000000  0.4743720000000 1.0
C      1  0.5798310000000  0.5314770000000  0.4743430000000 1.0
C      1  0.4851450000000  0.5169530000000  0.5096170000000 1.0
C      1  0.5148480000000  0.5169620000000  0.5096120000000 1.0
C      1  0.4669810000000  0.5559410000000  0.5169130000000 1.0
C      1  0.5329920000000  0.5559610000000  0.5169010000000 1.0
C      1  0.5324280000000  0.5233130000000  0.5587540000000 1.0
C      1  0.4675800000000  0.5232940000000  0.5587660000000 1.0
C      1  0.5634760000000  0.5013770000000  0.5083320000000 1.0
C      1  0.4365260000000  0.5013400000000  0.5083560000000 1.0
C      1  0.4763300000000  0.4867280000000  0.4381360000000 1.0
C      1  0.5236550000000  0.4867420000000  0.4381270000000 1.0
C      1  0.5367610000000  0.5308020000000  0.4494780000000 1.0
C      1  0.4632020000000  0.5307800000000  0.4494920000000 1.0
C      1  0.4381540000000  0.5142190000000  0.4613100000000 1.0
C      1  0.5618230000000  0.5142560000000  0.4612870000000 1.0
C      1  0.4410380000000  0.4945690000000  0.5380640000000 1.0
C      1  0.5589790000000  0.4946030000000  0.5380420000000 1.0
C      1  0.5343880000000  0.4431510000000  0.4654150000000 1.0
C      1  0.4656330000000  0.4431310000000  0.4654280000000 1.0
END
