TITL C-9260-5597-63 5.81941735234582e-06 125000 -363.06649460124 0 0 60 (C1) n - 1
REM
REM in /home/bkarasulu/CARBON/AIRSS/Generating-Clusters/EDIP-Nigel-Params/Higher-Symm/Box-15A/Only-C60/SD-CG/HFTN-CG
REM
REM
REM
REM
REM
REM ./C.cell (414f73aa93bd7a1190c7fd0f31ff2f98)
REM
REM compiler GCC version 9.2.1 20190827 (Red Hat 9.2.1-1)
REM options -cpp -mtune=generic -march=x86-64 -g -O0 -fpre-include=/usr/include/finclude/math-vector-fortran.h
REM seed 124995719 1786137853 394038325 1418863229 -1232366107 -1171595217 -464911122 1507412548 -350338302 1507695521 -1391523249 1208054935 -518155075 1472214920 -1891363099 -1900308357 1102392233 -1562159686 -518935741 -602362338 -2041885463 951730956 -759301983 -1128344439 -1075166630 66479432 76926422 -1115810565 626777913 674906389 -1568012420 -1314189348 -1968213955
REM
CELL 1.54180   50.00000   50.00000   50.00000   90.00000   90.00000   90.00000
LATT -1
SFAC C  
C      1  0.4700990000000  0.5525120000000  0.5453010000000 1.0
C      1  0.4665030000000  0.4328920000000  0.5230960000000 1.0
C      1  0.4631930000000  0.5040020000000  0.4351340000000 1.0
C      1  0.5110260000000  0.4191440000000  0.5154060000000 1.0
C      1  0.5048980000000  0.5279910000000  0.4221280000000 1.0
C      1  0.5129880000000  0.5570850000000  0.5645410000000 1.0
C      1  0.5055540000000  0.4416790000000  0.4976540000000 1.0
C      1  0.5110570000000  0.5362510000000  0.4491090000000 1.0
C      1  0.5094420000000  0.5294640000000  0.5555470000000 1.0
C      1  0.4788150000000  0.5597690000000  0.4849030000000 1.0
C      1  0.4744900000000  0.4875260000000  0.5580000000000 1.0
C      1  0.4699960000000  0.4459640000000  0.4614950000000 1.0
C      1  0.5629740000000  0.4919320000000  0.4641910000000 1.0
C      1  0.5643900000000  0.5339190000000  0.5126150000000 1.0
C      1  0.5631450000000  0.4727370000000  0.5250190000000 1.0
C      1  0.4947860000000  0.4878660000000  0.4999170000000 1.0
C      1  0.4953290000000  0.4990270000000  0.4737670000000 1.0
C      1  0.4934130000000  0.5109340000000  0.5164570000000 1.0
C      1  0.4525940000000  0.5244990000000  0.4926000000000 1.0
C      1  0.4505400000000  0.4898800000000  0.5204280000000 1.0
C      1  0.4514520000000  0.4835450000000  0.4764580000000 1.0
C      1  0.4899910000000  0.5033570000000  0.4221130000000 1.0
C      1  0.4942200000000  0.5704430000000  0.5476670000000 1.0
C      1  0.4920540000000  0.4242140000000  0.5361910000000 1.0
C      1  0.4524230000000  0.5583010000000  0.5240700000000 1.0
C      1  0.4511610000000  0.4493020000000  0.5399060000000 1.0
C      1  0.4495960000000  0.4791260000000  0.4315060000000 1.0
C      1  0.5440520000000  0.5137810000000  0.5193540000000 1.0
C      1  0.5448540000000  0.4726100000000  0.5033030000000 1.0
C      1  0.5455130000000  0.5099570000000  0.4800730000000 1.0
C      1  0.4744990000000  0.4444610000000  0.4947380000000 1.0
C      1  0.4873190000000  0.5473200000000  0.4611700000000 1.0
C      1  0.4785390000000  0.5229670000000  0.5561660000000 1.0
C      1  0.5543820000000  0.4947260000000  0.5400990000000 1.0
C      1  0.5558780000000  0.4671680000000  0.4765250000000 1.0
C      1  0.5584630000000  0.5368780000000  0.4851730000000 1.0
C      1  0.5116450000000  0.4710710000000  0.5427790000000 1.0
C      1  0.5301580000000  0.4843420000000  0.4440980000000 1.0
C      1  0.5170930000000  0.5541060000000  0.5052330000000 1.0
C      1  0.5031520000000  0.4441400000000  0.5564230000000 1.0
C      1  0.5040410000000  0.4778550000000  0.4301440000000 1.0
C      1  0.5075430000000  0.5795240000000  0.5219440000000 1.0
C      1  0.4892640000000  0.4561850000000  0.4424700000000 1.0
C      1  0.4908800000000  0.5822230000000  0.4980490000000 1.0
C      1  0.4851100000000  0.4632260000000  0.5703130000000 1.0
C      1  0.4507510000000  0.4767180000000  0.5455130000000 1.0
C      1  0.4473770000000  0.4638320000000  0.4554590000000 1.0
C      1  0.4539880000000  0.5525420000000  0.4966560000000 1.0
C      1  0.5324650000000  0.4875780000000  0.5576450000000 1.0
C      1  0.5357120000000  0.4571100000000  0.4587820000000 1.0
C      1  0.5378180000000  0.5567170000000  0.4814500000000 1.0
C      1  0.5235770000000  0.5101560000000  0.5714320000000 1.0
C      1  0.5178390000000  0.4395840000000  0.4717430000000 1.0
C      1  0.5310690000000  0.5565830000000  0.4537410000000 1.0
C      1  0.5157310000000  0.4676380000000  0.5105990000000 1.0
C      1  0.5200380000000  0.5094810000000  0.4624090000000 1.0
C      1  0.5168800000000  0.5275190000000  0.5247010000000 1.0
C      1  0.4670240000000  0.4743870000000  0.4999400000000 1.0
C      1  0.4670900000000  0.5075130000000  0.4660100000000 1.0
C      1  0.4641210000000  0.5167430000000  0.5206490000000 1.0
END
