TITL C-9265-7156-10 -2.46765650994032e-06 125000 -362.837552015807 0 0 60 (C1) n - 1
REM
REM in /home/bkarasulu/CARBON/AIRSS/Generating-Clusters/EDIP-Nigel-Params/Higher-Symm/Box-15A/Only-C60/SD-CG/HFTN-CG
REM
REM
REM
REM
REM
REM ./C.cell (414f73aa93bd7a1190c7fd0f31ff2f98)
REM
REM compiler GCC version 9.2.1 20190827 (Red Hat 9.2.1-1)
REM options -cpp -mtune=generic -march=x86-64 -g -O0 -fpre-include=/usr/include/finclude/math-vector-fortran.h
REM seed -72187803 1420781174 209040214 -109966528 -1855797210 -1183349766 918179352 -410218682 216612924 -1460077288 614822169 1482759970 157167326 -1959811715 1696954643 -843562381 -1778916203 -1489020773 224997220 -571961383 -149080556 -718615480 -74645061 179820715 790477142 1890191526 705766869 1818779135 -437850349 -1989849251 502202595 -1244609723 286175895
REM
CELL 1.54180   50.00000   50.00000   50.00000   90.00000   90.00000   90.00000
LATT -1
SFAC C  
C      1  0.4406820000000  0.5210490000000  0.4707830000000 1.0
C      1  0.5477080000000  0.5410880000000  0.4702870000000 1.0
C      1  0.5115350000000  0.4381700000000  0.4710830000000 1.0
C      1  0.4403380000000  0.5207990000000  0.5292970000000 1.0
C      1  0.5479270000000  0.5410660000000  0.5287750000000 1.0
C      1  0.5115700000000  0.4377830000000  0.5296430000000 1.0
C      1  0.4909830000000  0.5272260000000  0.5601520000000 1.0
C      1  0.5276530000000  0.4935470000000  0.5592610000000 1.0
C      1  0.4801870000000  0.4784960000000  0.5605080000000 1.0
C      1  0.4917230000000  0.5277150000000  0.4401580000000 1.0
C      1  0.5284050000000  0.4939100000000  0.4388950000000 1.0
C      1  0.4806900000000  0.4791220000000  0.4401760000000 1.0
C      1  0.4673300000000  0.5622880000000  0.5324530000000 1.0
C      1  0.5698480000000  0.4967130000000  0.5317070000000 1.0
C      1  0.4621650000000  0.4402460000000  0.5326520000000 1.0
C      1  0.4677510000000  0.5626590000000  0.4680590000000 1.0
C      1  0.5705080000000  0.4972300000000  0.4673550000000 1.0
C      1  0.4619990000000  0.4411880000000  0.4682710000000 1.0
C      1  0.4724630000000  0.5067360000000  0.4377770000000 1.0
C      1  0.5197800000000  0.5211580000000  0.4371170000000 1.0
C      1  0.5084550000000  0.4728950000000  0.4378870000000 1.0
C      1  0.4717650000000  0.5061800000000  0.5624890000000 1.0
C      1  0.5190970000000  0.5206420000000  0.5618720000000 1.0
C      1  0.5080920000000  0.4725000000000  0.5625630000000 1.0
C      1  0.5600210000000  0.5185230000000  0.4846870000000 1.0
C      1  0.4859440000000  0.4397140000000  0.4855100000000 1.0
C      1  0.4548100000000  0.5424410000000  0.4853090000000 1.0
C      1  0.5587870000000  0.5178600000000  0.5143610000000 1.0
C      1  0.4859090000000  0.4390550000000  0.5152340000000 1.0
C      1  0.4542610000000  0.5424940000000  0.5150380000000 1.0
C      1  0.5363190000000  0.4445400000000  0.5156100000000 1.0
C      1  0.4331770000000  0.4963120000000  0.5150060000000 1.0
C      1  0.5304210000000  0.5598120000000  0.5147150000000 1.0
C      1  0.5365340000000  0.4434800000000  0.4852940000000 1.0
C      1  0.4341570000000  0.4961360000000  0.4846760000000 1.0
C      1  0.5296560000000  0.5592610000000  0.4843930000000 1.0
C      1  0.4919670000000  0.5185650000000  0.4834460000000 1.0
C      1  0.5223240000000  0.4956200000000  0.4825590000000 1.0
C      1  0.4887940000000  0.4840410000000  0.4834620000000 1.0
C      1  0.4927080000000  0.5205620000000  0.5164370000000 1.0
C      1  0.5190330000000  0.4982120000000  0.5160330000000 1.0
C      1  0.4862150000000  0.4831340000000  0.5170220000000 1.0
C      1  0.4465870000000  0.5152000000000  0.4438560000000 1.0
C      1  0.5401790000000  0.5392790000000  0.4431440000000 1.0
C      1  0.5141230000000  0.4463400000000  0.4442210000000 1.0
C      1  0.4458780000000  0.5146010000000  0.5562750000000 1.0
C      1  0.5391740000000  0.5388720000000  0.5554580000000 1.0
C      1  0.5137280000000  0.4458110000000  0.5565900000000 1.0
C      1  0.4574430000000  0.4739920000000  0.4849560000000 1.0
C      1  0.4987770000000  0.5505520000000  0.4846610000000 1.0
C      1  0.5459320000000  0.4735130000000  0.4831290000000 1.0
C      1  0.4551470000000  0.4735790000000  0.5169300000000 1.0
C      1  0.4998040000000  0.5522180000000  0.5167990000000 1.0
C      1  0.5439000000000  0.4757910000000  0.5152090000000 1.0
C      1  0.5558930000000  0.4904620000000  0.4441510000000 1.0
C      1  0.4637970000000  0.4571340000000  0.4449740000000 1.0
C      1  0.4809420000000  0.5533460000000  0.4448070000000 1.0
C      1  0.5552670000000  0.4900950000000  0.5550230000000 1.0
C      1  0.4635280000000  0.4561580000000  0.5560110000000 1.0
C      1  0.4802060000000  0.5528910000000  0.5557900000000 1.0
END
