TITL C-9264-7143-9 -9.52402939385967e-07 125000 -362.732421898451 0 0 60 (C2) n - 1
REM
REM in /home/bkarasulu/CARBON/AIRSS/Generating-Clusters/EDIP-Nigel-Params/Higher-Symm/Box-15A/Only-C60/SD-CG/HFTN-CG
REM
REM
REM
REM
REM
REM ./C.cell (414f73aa93bd7a1190c7fd0f31ff2f98)
REM
REM compiler GCC version 9.2.1 20190827 (Red Hat 9.2.1-1)
REM options -cpp -mtune=generic -march=x86-64 -g -O0 -fpre-include=/usr/include/finclude/math-vector-fortran.h
REM seed -1813928300 -1355417103 -1832695531 1949575163 -1334740544 947734272 -1203609834 1043768991 -1622885202 131688357 -1165173894 -349117313 1361407416 2082114996 -1662021319 -1653747665 -968886650 -1939371040 1309207028 -9182681 1191313421 -576657250 -434164199 1356863513 762599573 -158231758 749929870 982669436 1393238753 -161525047 -6578084 801290942 -1802230555
REM
CELL 1.54180   50.00000   50.00000   50.00000   90.00000   90.00000   90.00000
LATT -1
SFAC C  
C      1  0.5257450000000  0.5424550000000  0.4669000000000 1.0
C      1  0.5241090000000  0.4656360000000  0.4635880000000 1.0
C      1  0.5259560000000  0.4576200000000  0.5330370000000 1.0
C      1  0.5240980000000  0.5344340000000  0.5363530000000 1.0
C      1  0.4726440000000  0.5410130000000  0.4660070000000 1.0
C      1  0.4718770000000  0.4652830000000  0.4590350000000 1.0
C      1  0.4728540000000  0.4589020000000  0.5340640000000 1.0
C      1  0.4718770000000  0.5346300000000  0.5410380000000 1.0
C      1  0.5347020000000  0.4370340000000  0.5015700000000 1.0
C      1  0.5324510000000  0.4943130000000  0.5587140000000 1.0
C      1  0.5345080000000  0.5630680000000  0.4983450000000 1.0
C      1  0.5322850000000  0.5057820000000  0.4412060000000 1.0
C      1  0.4705890000000  0.4470690000000  0.5061650000000 1.0
C      1  0.4699500000000  0.5066190000000  0.5537170000000 1.0
C      1  0.4704140000000  0.5528390000000  0.4939120000000 1.0
C      1  0.4698340000000  0.4932870000000  0.4463610000000 1.0
C      1  0.4291800000000  0.5142000000000  0.4684370000000 1.0
C      1  0.4287950000000  0.4681770000000  0.4857370000000 1.0
C      1  0.4293030000000  0.4855840000000  0.5317440000000 1.0
C      1  0.4287360000000  0.5316060000000  0.5144460000000 1.0
C      1  0.5703940000000  0.5190520000000  0.4664360000000 1.0
C      1  0.5687620000000  0.4678950000000  0.4833180000000 1.0
C      1  0.5705360000000  0.4811580000000  0.5333880000000 1.0
C      1  0.5687070000000  0.5323100000000  0.5165100000000 1.0
C      1  0.5765810000000  0.5331760000000  0.4897520000000 1.0
C      1  0.5725220000000  0.4910570000000  0.4679560000000 1.0
C      1  0.5767060000000  0.4670520000000  0.5100560000000 1.0
C      1  0.5725760000000  0.5091590000000  0.5318630000000 1.0
C      1  0.4194360000000  0.5312430000000  0.4882090000000 1.0
C      1  0.4193740000000  0.4881130000000  0.4686870000000 1.0
C      1  0.4195610000000  0.4685120000000  0.5119980000000 1.0
C      1  0.4194190000000  0.5116410000000  0.5315200000000 1.0
C      1  0.4874780000000  0.4251920000000  0.4996040000000 1.0
C      1  0.4868450000000  0.4999980000000  0.5755760000000 1.0
C      1  0.4872540000000  0.5747670000000  0.5004300000000 1.0
C      1  0.4866540000000  0.4999590000000  0.4244590000000 1.0
C      1  0.5133890000000  0.4195430000000  0.4965760000000 1.0
C      1  0.5115840000000  0.4899400000000  0.5765800000000 1.0
C      1  0.5131560000000  0.5804950000000  0.5033930000000 1.0
C      1  0.5113600000000  0.5100920000000  0.4233930000000 1.0
C      1  0.4572140000000  0.4833360000000  0.5391190000000 1.0
C      1  0.4566060000000  0.5385460000000  0.5165910000000 1.0
C      1  0.4570650000000  0.5165320000000  0.4609920000000 1.0
C      1  0.4566800000000  0.4613210000000  0.4835210000000 1.0
C      1  0.5473800000000  0.4713150000000  0.5494040000000 1.0
C      1  0.5452530000000  0.5490690000000  0.5222490000000 1.0
C      1  0.5471680000000  0.5288250000000  0.4504780000000 1.0
C      1  0.5453450000000  0.4510650000000  0.4776380000000 1.0
C      1  0.5248170000000  0.5048310000000  0.5310940000000 1.0
C      1  0.5235430000000  0.5256570000000  0.4930150000000 1.0
C      1  0.5247520000000  0.4952410000000  0.4688450000000 1.0
C      1  0.5236380000000  0.4744110000000  0.5069280000000 1.0
C      1  0.4943630000000  0.5010850000000  0.5235630000000 1.0
C      1  0.4935650000000  0.5217950000000  0.4996010000000 1.0
C      1  0.4943060000000  0.4988950000000  0.4764530000000 1.0
C      1  0.4936320000000  0.4781830000000  0.5004170000000 1.0
C      1  0.4991380000000  0.4567030000000  0.5441160000000 1.0
C      1  0.4980540000000  0.5447570000000  0.5394180000000 1.0
C      1  0.4988960000000  0.5432910000000  0.4558890000000 1.0
C      1  0.4980890000000  0.4552350000000  0.4605890000000 1.0
END
