TITL C-9263-351-281 -2.96207157971975e-07 125000 -381.086463635238 0 0 60 (C3i) n - 1
REM
REM in /home/bkarasulu/CARBON/AIRSS/Generating-Clusters/EDIP-Nigel-Params/Higher-Symm/Box-15A/Only-C60/SD-CG/HFTN-CG
REM
REM
REM
REM
REM
REM ./C.cell (414f73aa93bd7a1190c7fd0f31ff2f98)
REM
REM compiler GCC version 9.2.1 20190827 (Red Hat 9.2.1-1)
REM options -cpp -mtune=generic -march=x86-64 -g -O0 -fpre-include=/usr/include/finclude/math-vector-fortran.h
REM seed -441163173 -1805591655 -321879360 -952851474 1204758796 827116865 -50277413 -1910842887 -903691270 -2048216245 1368291181 1633666182 -741443158 -539704679 968116368 -260216958 -159379180 -19882822 -619454471 1962388106 -151425180 -1178646376 -1966942442 -2003282306 467165711 -1198396104 1187290022 -587786395 1229410224 436957073 610461571 567185265 -1867074997
REM
CELL 1.54180   50.00000   50.00000   50.00000   90.00000   90.00000   90.00000
LATT -1
SFAC C  
C      1  0.5758070000000  0.5145030000000  0.5063850000000 1.0
C      1  0.4495360000000  0.5584000000000  0.5063720000000 1.0
C      1  0.4746550000000  0.4270970000000  0.5063750000000 1.0
C      1  0.4241930000000  0.5145030000000  0.4936150000000 1.0
C      1  0.5504640000000  0.5584000000000  0.4936270000000 1.0
C      1  0.5253450000000  0.4270970000000  0.4936250000000 1.0
C      1  0.4241930000000  0.4854970000000  0.4936150000000 1.0
C      1  0.5504640000000  0.4416000000000  0.4936280000000 1.0
C      1  0.5253450000000  0.5729030000000  0.4936250000000 1.0
C      1  0.5758070000000  0.4854970000000  0.5063850000000 1.0
C      1  0.4495360000000  0.4416000000000  0.5063730000000 1.0
C      1  0.4746550000000  0.5729030000000  0.5063750000000 1.0
C      1  0.5845240000000  0.4733600000000  0.4825010000000 1.0
C      1  0.4808110000000  0.5865180000000  0.4824900000000 1.0
C      1  0.4346700000000  0.4401210000000  0.4824850000000 1.0
C      1  0.4154760000000  0.4733610000000  0.5175000000000 1.0
C      1  0.5191890000000  0.5865180000000  0.5175100000000 1.0
C      1  0.5653300000000  0.4401210000000  0.5175150000000 1.0
C      1  0.4154760000000  0.5266400000000  0.5174990000000 1.0
C      1  0.5191890000000  0.4134820000000  0.5175100000000 1.0
C      1  0.5653300000000  0.5598790000000  0.5175150000000 1.0
C      1  0.5845240000000  0.5266390000000  0.4825000000000 1.0
C      1  0.4808110000000  0.4134820000000  0.4824900000000 1.0
C      1  0.4346700000000  0.5598790000000  0.4824850000000 1.0
C      1  0.5044580000000  0.4257200000000  0.4734220000000 1.0
C      1  0.5621030000000  0.5409980000000  0.4734280000000 1.0
C      1  0.4334470000000  0.5332810000000  0.4734150000000 1.0
C      1  0.4955420000000  0.4257210000000  0.5265780000000 1.0
C      1  0.4378970000000  0.5409980000000  0.5265720000000 1.0
C      1  0.5665530000000  0.5332810000000  0.5265850000000 1.0
C      1  0.4955420000000  0.5742800000000  0.5265780000000 1.0
C      1  0.4378970000000  0.4590020000000  0.5265720000000 1.0
C      1  0.5665530000000  0.4667190000000  0.5265850000000 1.0
C      1  0.5044580000000  0.5742790000000  0.4734220000000 1.0
C      1  0.5621030000000  0.4590020000000  0.4734280000000 1.0
C      1  0.4334470000000  0.4667190000000  0.4734150000000 1.0
C      1  0.5492640000000  0.5261150000000  0.5470570000000 1.0
C      1  0.4527450000000  0.5296110000000  0.5470470000000 1.0
C      1  0.4979770000000  0.4442750000000  0.5470520000000 1.0
C      1  0.4507360000000  0.5261150000000  0.4529430000000 1.0
C      1  0.5472550000000  0.5296100000000  0.4529530000000 1.0
C      1  0.5020230000000  0.4442750000000  0.4529480000000 1.0
C      1  0.4507360000000  0.4738850000000  0.4529430000000 1.0
C      1  0.5472550000000  0.4703890000000  0.4529530000000 1.0
C      1  0.5020230000000  0.5557250000000  0.4529480000000 1.0
C      1  0.5492640000000  0.4738850000000  0.5470570000000 1.0
C      1  0.4527450000000  0.4703900000000  0.5470470000000 1.0
C      1  0.4979770000000  0.5557250000000  0.5470520000000 1.0
C      1  0.5246910000000  0.5141500000000  0.5509880000000 1.0
C      1  0.4753930000000  0.5143130000000  0.5509830000000 1.0
C      1  0.4999010000000  0.4715380000000  0.5509860000000 1.0
C      1  0.4753090000000  0.5141500000000  0.4490120000000 1.0
C      1  0.5246070000000  0.5143130000000  0.4490170000000 1.0
C      1  0.5000990000000  0.4715380000000  0.4490150000000 1.0
C      1  0.4753090000000  0.4858500000000  0.4490120000000 1.0
C      1  0.5246070000000  0.4856870000000  0.4490170000000 1.0
C      1  0.5000990000000  0.5284620000000  0.4490140000000 1.0
C      1  0.5246910000000  0.4858500000000  0.5509880000000 1.0
C      1  0.4753930000000  0.4856870000000  0.5509830000000 1.0
C      1  0.4999010000000  0.5284620000000  0.5509850000000 1.0
END
