TITL C-9263-351-198 -8.84241899941433e-07 125000 -365.980668558572 0 0 60 (C1) n - 1
REM
REM in /home/bkarasulu/CARBON/AIRSS/Generating-Clusters/EDIP-Nigel-Params/Higher-Symm/Box-15A/Only-C60/SD-CG/HFTN-CG
REM
REM
REM
REM
REM
REM ./C.cell (414f73aa93bd7a1190c7fd0f31ff2f98)
REM
REM compiler GCC version 9.2.1 20190827 (Red Hat 9.2.1-1)
REM options -cpp -mtune=generic -march=x86-64 -g -O0 -fpre-include=/usr/include/finclude/math-vector-fortran.h
REM seed 1201207915 1720353413 553264074 684863582 -723229615 1120781658 -1389664469 -1830545851 560204741 1271512183 1505461559 566461520 -1461006741 1057299145 1265272882 -1868186673 -1057430956 2095723524 1877880259 1220886714 -1247360788 1646679042 -1395353097 -1748334318 -1070065806 430024487 -355894058 1567624357 -966861953 90458301 1394761028 -462448948 643940097
REM
CELL 1.54180   50.00000   50.00000   50.00000   90.00000   90.00000   90.00000
LATT -1
SFAC C  
C      1  0.5127310000000  0.4738660000000  0.5057840000000 1.0
C      1  0.5047700000000  0.4876230000000  0.5379150000000 1.0
C      1  0.5024890000000  0.5186490000000  0.5371640000000 1.0
C      1  0.5062060000000  0.5338660000000  0.5089070000000 1.0
C      1  0.5176210000000  0.5162210000000  0.4865460000000 1.0
C      1  0.4982480000000  0.4987240000000  0.4665330000000 1.0
C      1  0.5010870000000  0.4698260000000  0.4770240000000 1.0
C      1  0.5239170000000  0.5711030000000  0.4721260000000 1.0
C      1  0.5216990000000  0.5433270000000  0.4218930000000 1.0
C      1  0.5069110000000  0.4572960000000  0.4247950000000 1.0
C      1  0.5169300000000  0.4161960000000  0.4891380000000 1.0
C      1  0.5242550000000  0.4420300000000  0.5618940000000 1.0
C      1  0.5149660000000  0.5075910000000  0.5887410000000 1.0
C      1  0.5062720000000  0.5720330000000  0.5422770000000 1.0
C      1  0.4871120000000  0.4219010000000  0.4829780000000 1.0
C      1  0.4956220000000  0.4336380000000  0.5546280000000 1.0
C      1  0.4876940000000  0.5017820000000  0.5815020000000 1.0
C      1  0.4781990000000  0.5591410000000  0.5456700000000 1.0
C      1  0.4956040000000  0.5719500000000  0.4763510000000 1.0
C      1  0.4940070000000  0.5363930000000  0.4213050000000 1.0
C      1  0.4784050000000  0.4631340000000  0.4285060000000 1.0
C      1  0.5406080000000  0.4504700000000  0.5377290000000 1.0
C      1  0.5366380000000  0.4956080000000  0.5746360000000 1.0
C      1  0.5311640000000  0.5546020000000  0.5478820000000 1.0
C      1  0.5413380000000  0.5647670000000  0.4932580000000 1.0
C      1  0.5319700000000  0.5253170000000  0.4411530000000 1.0
C      1  0.5274380000000  0.4750180000000  0.4356190000000 1.0
C      1  0.5360700000000  0.4385740000000  0.4820640000000 1.0
C      1  0.5286020000000  0.5522260000000  0.5166950000000 1.0
C      1  0.5351120000000  0.5347360000000  0.4695720000000 1.0
C      1  0.5136880000000  0.5012730000000  0.4399770000000 1.0
C      1  0.5220040000000  0.4561020000000  0.4607100000000 1.0
C      1  0.5254990000000  0.4471660000000  0.5115100000000 1.0
C      1  0.5310540000000  0.4788990000000  0.5506660000000 1.0
C      1  0.5236370000000  0.5272660000000  0.5566000000000 1.0
C      1  0.4580230000000  0.4631710000000  0.4942430000000 1.0
C      1  0.4652010000000  0.4603620000000  0.5226160000000 1.0
C      1  0.4607120000000  0.4822760000000  0.5422850000000 1.0
C      1  0.4564010000000  0.5101670000000  0.5321530000000 1.0
C      1  0.4608070000000  0.5371300000000  0.4884230000000 1.0
C      1  0.4621640000000  0.5302270000000  0.4599350000000 1.0
C      1  0.4680110000000  0.5013100000000  0.4590330000000 1.0
C      1  0.4845480000000  0.4808690000000  0.5604230000000 1.0
C      1  0.4753070000000  0.5286530000000  0.5482810000000 1.0
C      1  0.4838020000000  0.5538290000000  0.4979080000000 1.0
C      1  0.4783490000000  0.5476680000000  0.4436540000000 1.0
C      1  0.4707460000000  0.4917470000000  0.4297580000000 1.0
C      1  0.4771710000000  0.4499750000000  0.4755420000000 1.0
C      1  0.4853450000000  0.4392540000000  0.5278290000000 1.0
C      1  0.4810120000000  0.5742970000000  0.4525210000000 1.0
C      1  0.4880840000000  0.5086240000000  0.4135010000000 1.0
C      1  0.4662760000000  0.4488330000000  0.4490860000000 1.0
C      1  0.4846150000000  0.4166050000000  0.5109610000000 1.0
C      1  0.4889570000000  0.4547660000000  0.5724260000000 1.0
C      1  0.4715780000000  0.5236210000000  0.5766900000000 1.0
C      1  0.4744780000000  0.5704820000000  0.5198150000000 1.0
C      1  0.5575700000000  0.4889550000000  0.4917190000000 1.0
C      1  0.4523090000000  0.4902280000000  0.4842620000000 1.0
C      1  0.4573400000000  0.5121040000000  0.5030080000000 1.0
C      1  0.5332440000000  0.4950540000000  0.5000710000000 1.0
END
