TITL C-9257-5531-235 -0.00167281419201671 125000 -361.671343774026 0 0 60 (C1) n - 1
REM
REM in /home/bkarasulu/CARBON/AIRSS/Generating-Clusters/EDIP-Nigel-Params/Higher-Symm/Box-15A/Only-C60/SD-CG/HFTN-CG
REM
REM
REM
REM
REM
REM ./C.cell (414f73aa93bd7a1190c7fd0f31ff2f98)
REM
REM compiler GCC version 9.2.1 20190827 (Red Hat 9.2.1-1)
REM options -cpp -mtune=generic -march=x86-64 -g -O0 -fpre-include=/usr/include/finclude/math-vector-fortran.h
REM seed -1406516762 1495563475 -1705203172 -1316590092 -729215079 1606503750 972396690 -1433190956 -2079386783 247419600 -1674389913 1298345299 -2099042426 -850562397 -157759774 -631829587 1583845373 -479290622 1683653397 1659365574 -1159441396 1782263935 1445462380 -1057376148 -1862940060 166572002 -228271484 -2129383382 -925045819 -1092094294 -2078962835 1395281407 1108848711
REM
CELL 1.54180   50.00000   50.00000   50.00000   90.00000   90.00000   90.00000
LATT -1
SFAC C  
C      1  0.4414610000000  0.5147130000000  0.4905130000000 1.0
C      1  0.5028340000000  0.5270320000000  0.4274680000000 1.0
C      1  0.5569500000000  0.5686340000000  0.4694790000000 1.0
C      1  0.5466970000000  0.5738590000000  0.5446410000000 1.0
C      1  0.4719350000000  0.5596390000000  0.5555360000000 1.0
C      1  0.4888710000000  0.5210880000000  0.5063060000000 1.0
C      1  0.5051460000000  0.5217010000000  0.4800020000000 1.0
C      1  0.5334210000000  0.5330790000000  0.4897550000000 1.0
C      1  0.5339630000000  0.5340080000000  0.5199070000000 1.0
C      1  0.5056800000000  0.5291330000000  0.5299660000000 1.0
C      1  0.4576270000000  0.5497630000000  0.4953850000000 1.0
C      1  0.4910650000000  0.5418130000000  0.4598650000000 1.0
C      1  0.5276580000000  0.5690520000000  0.4764410000000 1.0
C      1  0.5239470000000  0.5907330000000  0.4969020000000 1.0
C      1  0.4852900000000  0.5626400000000  0.5200360000000 1.0
C      1  0.5186280000000  0.4551330000000  0.4723710000000 1.0
C      1  0.5506800000000  0.3924180000000  0.5052110000000 1.0
C      1  0.4930860000000  0.3498010000000  0.5350620000000 1.0
C      1  0.4261460000000  0.3862100000000  0.5205640000000 1.0
C      1  0.4418680000000  0.4513070000000  0.4817770000000 1.0
C      1  0.5053340000000  0.3942460000000  0.5084480000000 1.0
C      1  0.4789600000000  0.3878910000000  0.5145790000000 1.0
C      1  0.4627140000000  0.4081140000000  0.5044620000000 1.0
C      1  0.4789600000000  0.4271310000000  0.4921650000000 1.0
C      1  0.5052860000000  0.4183870000000  0.4945810000000 1.0
C      1  0.4925420000000  0.4655330000000  0.4691510000000 1.0
C      1  0.5506010000000  0.4162670000000  0.4915810000000 1.0
C      1  0.5191360000000  0.3560830000000  0.5290070000000 1.0
C      1  0.4422050000000  0.3662360000000  0.5304490000000 1.0
C      1  0.4257800000000  0.4327110000000  0.4940010000000 1.0
C      1  0.5874140000000  0.5711740000000  0.5055070000000 1.0
C      1  0.5096980000000  0.5781790000000  0.5700230000000 1.0
C      1  0.4400280000000  0.5296670000000  0.5410540000000 1.0
C      1  0.4632880000000  0.5009730000000  0.4518450000000 1.0
C      1  0.5469190000000  0.5414160000000  0.4315880000000 1.0
C      1  0.5699870000000  0.5862360000000  0.4893590000000 1.0
C      1  0.5223240000000  0.5875090000000  0.5465130000000 1.0
C      1  0.4468640000000  0.5569500000000  0.5415990000000 1.0
C      1  0.4476030000000  0.5212870000000  0.4629690000000 1.0
C      1  0.5205260000000  0.5508600000000  0.4285050000000 1.0
C      1  0.4699930000000  0.4502340000000  0.4794820000000 1.0
C      1  0.5277480000000  0.4315940000000  0.4849930000000 1.0
C      1  0.5277410000000  0.3790930000000  0.5149970000000 1.0
C      1  0.4703840000000  0.3652590000000  0.5283220000000 1.0
C      1  0.4349810000000  0.4091600000000  0.5066200000000 1.0
C      1  0.5599180000000  0.5392010000000  0.4736000000000 1.0
C      1  0.5550660000000  0.5494100000000  0.5338890000000 1.0
C      1  0.4933190000000  0.5396190000000  0.5564990000000 1.0
C      1  0.4623760000000  0.5083280000000  0.5093870000000 1.0
C      1  0.5096730000000  0.5052810000000  0.4452280000000 1.0
C      1  0.5495700000000  0.6019050000000  0.5017910000000 1.0
C      1  0.5067020000000  0.5856570000000  0.5207210000000 1.0
C      1  0.4483670000000  0.5696210000000  0.5152140000000 1.0
C      1  0.4620870000000  0.5472330000000  0.4657540000000 1.0
C      1  0.5089890000000  0.5657800000000  0.4531990000000 1.0
C      1  0.5621330000000  0.5265820000000  0.4486000000000 1.0
C      1  0.5802220000000  0.5507540000000  0.5216950000000 1.0
C      1  0.5110780000000  0.5509890000000  0.5754040000000 1.0
C      1  0.4522360000000  0.5060800000000  0.5354910000000 1.0
C      1  0.4882940000000  0.4896170000000  0.4545420000000 1.0
END
