TITL C-9256-7861-14 -9.39124614980394e-07 125000 -362.770342200561 0 0 60 (C1) n - 1
REM
REM in /home/bkarasulu/CARBON/AIRSS/Generating-Clusters/EDIP-Nigel-Params/Higher-Symm/Box-15A/Only-C60/SD-CG/HFTN-CG
REM
REM
REM
REM
REM
REM ./C.cell (414f73aa93bd7a1190c7fd0f31ff2f98)
REM
REM compiler GCC version 9.2.1 20190827 (Red Hat 9.2.1-1)
REM options -cpp -mtune=generic -march=x86-64 -g -O0 -fpre-include=/usr/include/finclude/math-vector-fortran.h
REM seed -1118575475 -641870614 998794644 -274865411 -1612204697 -1751509701 -205809245 1794193917 2116499467 -263200777 1424590560 1879366713 -993972214 751899769 -616461212 2100172260 629034418 -841202209 1356533175 -1939770979 1377891619 1536570391 -1866078015 -82851155 -1688912578 -1968241898 -1017620107 245263167 877050750 42602095 -1889948567 80289201 1076570285
REM
CELL 1.54180   50.00000   50.00000   50.00000   90.00000   90.00000   90.00000
LATT -1
SFAC C  
C      1  0.4931810000000  0.4622430000000  0.5677160000000 1.0
C      1  0.4306620000000  0.5355200000000  0.4906300000000 1.0
C      1  0.5078940000000  0.4636120000000  0.4321780000000 1.0
C      1  0.5679110000000  0.5370310000000  0.5065780000000 1.0
C      1  0.5651810000000  0.5261690000000  0.5350310000000 1.0
C      1  0.4640910000000  0.4711560000000  0.5621100000000 1.0
C      1  0.4337420000000  0.5251690000000  0.4619600000000 1.0
C      1  0.5360970000000  0.4751350000000  0.4346940000000 1.0
C      1  0.5303600000000  0.5402930000000  0.4755100000000 1.0
C      1  0.5258650000000  0.4606330000000  0.5314400000000 1.0
C      1  0.4660250000000  0.5374310000000  0.5229580000000 1.0
C      1  0.4747280000000  0.4608500000000  0.4653930000000 1.0
C      1  0.4408670000000  0.4913360000000  0.4911690000000 1.0
C      1  0.5057110000000  0.5084320000000  0.4419360000000 1.0
C      1  0.5573870000000  0.4926730000000  0.5052360000000 1.0
C      1  0.4923390000000  0.5066300000000  0.5558320000000 1.0
C      1  0.4911810000000  0.4219070000000  0.5341110000000 1.0
C      1  0.5166140000000  0.5902940000000  0.5161500000000 1.0
C      1  0.5010250000000  0.4136050000000  0.5077930000000 1.0
C      1  0.5408630000000  0.5794940000000  0.5090320000000 1.0
C      1  0.5362160000000  0.4476860000000  0.5048440000000 1.0
C      1  0.4899620000000  0.5518550000000  0.5350830000000 1.0
C      1  0.4615020000000  0.4474900000000  0.4897280000000 1.0
C      1  0.5036880000000  0.5530320000000  0.4649670000000 1.0
C      1  0.4471800000000  0.5129760000000  0.5361090000000 1.0
C      1  0.4605980000000  0.4838060000000  0.4455230000000 1.0
C      1  0.5501210000000  0.5176710000000  0.4612130000000 1.0
C      1  0.5391080000000  0.4847640000000  0.5512750000000 1.0
C      1  0.5295450000000  0.5042240000000  0.5116860000000 1.0
C      1  0.4873140000000  0.4947440000000  0.5278150000000 1.0
C      1  0.4686540000000  0.5033180000000  0.4859160000000 1.0
C      1  0.5112220000000  0.4961730000000  0.4696410000000 1.0
C      1  0.5113400000000  0.4820740000000  0.5173420000000 1.0
C      1  0.4819550000000  0.5168470000000  0.5088460000000 1.0
C      1  0.4876450000000  0.4821470000000  0.4802010000000 1.0
C      1  0.5157650000000  0.5179490000000  0.4891990000000 1.0
C      1  0.5332470000000  0.5206590000000  0.5380230000000 1.0
C      1  0.4617770000000  0.4768750000000  0.5306890000000 1.0
C      1  0.4647330000000  0.5196040000000  0.4597750000000 1.0
C      1  0.5378370000000  0.4808300000000  0.4654680000000 1.0
C      1  0.5446240000000  0.5533130000000  0.4986710000000 1.0
C      1  0.5055330000000  0.4441410000000  0.5470920000000 1.0
C      1  0.4537850000000  0.5517490000000  0.4997920000000 1.0
C      1  0.4994610000000  0.4471070000000  0.4555420000000 1.0
C      1  0.4620260000000  0.5027550000000  0.5647600000000 1.0
C      1  0.4308560000000  0.4933630000000  0.4610630000000 1.0
C      1  0.5357400000000  0.5071890000000  0.4319110000000 1.0
C      1  0.5674110000000  0.4947810000000  0.5354020000000 1.0
C      1  0.4453110000000  0.4657200000000  0.5058680000000 1.0
C      1  0.4897400000000  0.5337420000000  0.4475150000000 1.0
C      1  0.5521150000000  0.4671610000000  0.4896120000000 1.0
C      1  0.5065710000000  0.5328980000000  0.5507230000000 1.0
C      1  0.5118080000000  0.4367060000000  0.4899950000000 1.0
C      1  0.5038410000000  0.5646240000000  0.5117030000000 1.0
C      1  0.4857680000000  0.4481250000000  0.5078880000000 1.0
C      1  0.4871460000000  0.5629790000000  0.4872060000000 1.0
C      1  0.5689540000000  0.5137350000000  0.4870750000000 1.0
C      1  0.5111950000000  0.4868900000000  0.5687690000000 1.0
C      1  0.4285580000000  0.5115570000000  0.5096120000000 1.0
C      1  0.4884260000000  0.4871260000000  0.4290010000000 1.0
END
