TITL C-9266-5713-214 -1.03970803453068e-06 125000 -370.29126416663 0 0 60 (C1) n - 1
REM
REM in /home/bkarasulu/CARBON/AIRSS/Generating-Clusters/EDIP-Nigel-Params/Higher-Symm/Box-15A/Only-C60/SD-CG/HFTN-CG
REM
REM
REM
REM
REM
REM ./C.cell (414f73aa93bd7a1190c7fd0f31ff2f98)
REM
REM compiler GCC version 9.2.1 20190827 (Red Hat 9.2.1-1)
REM options -cpp -mtune=generic -march=x86-64 -g -O0 -fpre-include=/usr/include/finclude/math-vector-fortran.h
REM seed 1570457714 -861470570 -1520069949 1059367314 -1894219847 -1466296946 1539619451 462918055 1376884763 1222987191 -620166502 656195509 1345715766 1671518968 -845368426 -1062394832 208951692 -1294218386 -675675554 1475899183 -442916346 -1972251091 1984496892 1818914808 746858760 1640401457 1870543425 2027853375 -534246866 935588228 912632807 2123188690 7279919
REM
CELL 1.54180   50.00000   50.00000   50.00000   90.00000   90.00000   90.00000
LATT -1
SFAC C  
C      1  0.5543240000000  0.5212370000000  0.4610040000000 1.0
C      1  0.5650200000000  0.4931420000000  0.4682800000000 1.0
C      1  0.4513690000000  0.5436190000000  0.4992740000000 1.0
C      1  0.5202760000000  0.5658580000000  0.5452030000000 1.0
C      1  0.4932750000000  0.5087210000000  0.5188550000000 1.0
C      1  0.5298090000000  0.5195460000000  0.4451440000000 1.0
C      1  0.4840080000000  0.4296180000000  0.5179090000000 1.0
C      1  0.4775180000000  0.5469210000000  0.4864650000000 1.0
C      1  0.4720910000000  0.5096750000000  0.4426870000000 1.0
C      1  0.5233440000000  0.4957490000000  0.4820360000000 1.0
C      1  0.4646550000000  0.4617670000000  0.5506610000000 1.0
C      1  0.5354510000000  0.5175560000000  0.5009560000000 1.0
C      1  0.5018230000000  0.5561550000000  0.5030340000000 1.0
C      1  0.5457370000000  0.5260450000000  0.5489230000000 1.0
C      1  0.4493230000000  0.4905550000000  0.4422690000000 1.0
C      1  0.4450020000000  0.4917070000000  0.5133000000000 1.0
C      1  0.5214400000000  0.5405830000000  0.5613930000000 1.0
C      1  0.4946740000000  0.5699760000000  0.5304130000000 1.0
C      1  0.5042530000000  0.4815150000000  0.5646570000000 1.0
C      1  0.5505630000000  0.4687390000000  0.4593640000000 1.0
C      1  0.5485540000000  0.5408570000000  0.4852300000000 1.0
C      1  0.4847910000000  0.4728350000000  0.4883480000000 1.0
C      1  0.4763770000000  0.5503580000000  0.5452830000000 1.0
C      1  0.5744430000000  0.4944640000000  0.4972380000000 1.0
C      1  0.4383900000000  0.4614520000000  0.4778550000000 1.0
C      1  0.5321260000000  0.4691550000000  0.4991290000000 1.0
C      1  0.5141950000000  0.5326920000000  0.5189940000000 1.0
C      1  0.4719230000000  0.4271820000000  0.4702350000000 1.0
C      1  0.4326840000000  0.4894800000000  0.4667670000000 1.0
C      1  0.5503800000000  0.5481680000000  0.5291930000000 1.0
C      1  0.5049790000000  0.4417630000000  0.5352980000000 1.0
C      1  0.4924390000000  0.4902710000000  0.4327530000000 1.0
C      1  0.4348780000000  0.5240710000000  0.4844240000000 1.0
C      1  0.5192570000000  0.4931980000000  0.4440640000000 1.0
C      1  0.4920800000000  0.4542270000000  0.5600570000000 1.0
C      1  0.4927610000000  0.4293350000000  0.4892570000000 1.0
C      1  0.4599810000000  0.4474070000000  0.5231950000000 1.0
C      1  0.5259820000000  0.4524100000000  0.4590910000000 1.0
C      1  0.5169570000000  0.5643930000000  0.4588390000000 1.0
C      1  0.5111670000000  0.4896070000000  0.5360020000000 1.0
C      1  0.4535470000000  0.4450690000000  0.4584970000000 1.0
C      1  0.4630420000000  0.5081180000000  0.5292530000000 1.0
C      1  0.5086300000000  0.4664080000000  0.5178080000000 1.0
C      1  0.5089020000000  0.5377890000000  0.4533430000000 1.0
C      1  0.4944250000000  0.5012250000000  0.4887720000000 1.0
C      1  0.5262390000000  0.5630010000000  0.4850390000000 1.0
C      1  0.4943900000000  0.4624950000000  0.4595390000000 1.0
C      1  0.4543010000000  0.5370080000000  0.5291870000000 1.0
C      1  0.5700930000000  0.5441800000000  0.5065330000000 1.0
C      1  0.5207590000000  0.4365510000000  0.4829650000000 1.0
C      1  0.4850570000000  0.5243290000000  0.4673360000000 1.0
C      1  0.4625090000000  0.4638020000000  0.4376170000000 1.0
C      1  0.4564360000000  0.4675170000000  0.5006500000000 1.0
C      1  0.4229760000000  0.5050390000000  0.5008570000000 1.0
C      1  0.4620800000000  0.4928180000000  0.5547460000000 1.0
C      1  0.4850310000000  0.5034870000000  0.5698920000000 1.0
C      1  0.5401560000000  0.4992360000000  0.5346820000000 1.0
C      1  0.5835520000000  0.5195200000000  0.5071380000000 1.0
C      1  0.5553300000000  0.4808000000000  0.5150510000000 1.0
C      1  0.4942450000000  0.5295980000000  0.5580190000000 1.0
END
