TITL C-9258-7861-5 4.57218397758952e-07 125000 -362.428614498025 0 0 60 (C1) n - 1
REM
REM in /home/bkarasulu/CARBON/AIRSS/Generating-Clusters/EDIP-Nigel-Params/Higher-Symm/Box-15A/Only-C60/SD-CG/HFTN-CG
REM
REM
REM
REM
REM
REM ./C.cell (414f73aa93bd7a1190c7fd0f31ff2f98)
REM
REM compiler GCC version 9.2.1 20190827 (Red Hat 9.2.1-1)
REM options -cpp -mtune=generic -march=x86-64 -g -O0 -fpre-include=/usr/include/finclude/math-vector-fortran.h
REM seed 985141781 372576500 -290845107 -576087000 -2118983377 1134456298 2081391207 1892677131 994869906 230410195 1630673377 -537980951 1925242612 -1285474360 -1029214908 -1825575562 1471314726 -1589294884 -1968535159 266255539 649386475 30485523 -599054011 69615695 1337275405 1139939733 -110084209 -554215004 1657630394 1802687401 893102597 -723812928 445073456
REM
CELL 1.54180   50.00000   50.00000   50.00000   90.00000   90.00000   90.00000
LATT -1
SFAC C  
C      1  0.4621300000000  0.5043790000000  0.5047430000000 1.0
C      1  0.5360550000000  0.5032490000000  0.4960260000000 1.0
C      1  0.4622240000000  0.4966670000000  0.4748610000000 1.0
C      1  0.5403790000000  0.4931200000000  0.5251870000000 1.0
C      1  0.5206450000000  0.5005220000000  0.4645110000000 1.0
C      1  0.4860110000000  0.5025110000000  0.5356910000000 1.0
C      1  0.4901330000000  0.4891630000000  0.4638080000000 1.0
C      1  0.5159640000000  0.4915370000000  0.5430510000000 1.0
C      1  0.5463560000000  0.4636710000000  0.5239410000000 1.0
C      1  0.4525100000000  0.4682020000000  0.4750660000000 1.0
C      1  0.5289190000000  0.5322630000000  0.4941770000000 1.0
C      1  0.4709810000000  0.5323960000000  0.5068580000000 1.0
C      1  0.5168700000000  0.4620360000000  0.5470660000000 1.0
C      1  0.4869260000000  0.4602270000000  0.4614940000000 1.0
C      1  0.4832110000000  0.5324110000000  0.5327870000000 1.0
C      1  0.5188240000000  0.5311220000000  0.4662120000000 1.0
C      1  0.4839790000000  0.4308390000000  0.5298710000000 1.0
C      1  0.5196270000000  0.4245280000000  0.4576250000000 1.0
C      1  0.4878060000000  0.5682000000000  0.4683190000000 1.0
C      1  0.5070100000000  0.5760230000000  0.5419260000000 1.0
C      1  0.5419950000000  0.4277710000000  0.4888440000000 1.0
C      1  0.4663160000000  0.4329040000000  0.5064180000000 1.0
C      1  0.4639110000000  0.5751980000000  0.4849970000000 1.0
C      1  0.5382530000000  0.5742070000000  0.5186900000000 1.0
C      1  0.4344460000000  0.5317050000000  0.4759470000000 1.0
C      1  0.5632770000000  0.5310510000000  0.5258170000000 1.0
C      1  0.4373070000000  0.4726940000000  0.5227010000000 1.0
C      1  0.5608310000000  0.4722640000000  0.4770770000000 1.0
C      1  0.4747940000000  0.5248660000000  0.4428030000000 1.0
C      1  0.5223130000000  0.5311480000000  0.5614230000000 1.0
C      1  0.5271220000000  0.4685710000000  0.4351300000000 1.0
C      1  0.4695030000000  0.4702100000000  0.5603660000000 1.0
C      1  0.4508250000000  0.5497770000000  0.4950260000000 1.0
C      1  0.5482470000000  0.5494770000000  0.5074610000000 1.0
C      1  0.4532690000000  0.4589800000000  0.5023720000000 1.0
C      1  0.5475130000000  0.4549450000000  0.4965120000000 1.0
C      1  0.4916760000000  0.5398480000000  0.4618000000000 1.0
C      1  0.5064700000000  0.5469300000000  0.5415360000000 1.0
C      1  0.5080920000000  0.4483180000000  0.4461180000000 1.0
C      1  0.4890190000000  0.4562800000000  0.5430740000000 1.0
C      1  0.4781800000000  0.4201480000000  0.4841010000000 1.0
C      1  0.5215710000000  0.4097680000000  0.4995980000000 1.0
C      1  0.4739540000000  0.5905870000000  0.5067600000000 1.0
C      1  0.5210180000000  0.5910830000000  0.5025850000000 1.0
C      1  0.5033740000000  0.4093970000000  0.4765560000000 1.0
C      1  0.5075520000000  0.4172200000000  0.5229010000000 1.0
C      1  0.5109810000000  0.5808060000000  0.4783820000000 1.0
C      1  0.4984060000000  0.5947030000000  0.5207690000000 1.0
C      1  0.5769140000000  0.5115810000000  0.5098740000000 1.0
C      1  0.4225130000000  0.5107290000000  0.4913850000000 1.0
C      1  0.5728940000000  0.4974580000000  0.4859170000000 1.0
C      1  0.4264230000000  0.4987480000000  0.5164950000000 1.0
C      1  0.5057550000000  0.5092170000000  0.5749180000000 1.0
C      1  0.4867970000000  0.5019250000000  0.4283210000000 1.0
C      1  0.4782010000000  0.4990790000000  0.5654620000000 1.0
C      1  0.5148010000000  0.4943600000000  0.4273800000000 1.0
C      1  0.4435870000000  0.4675050000000  0.5495820000000 1.0
C      1  0.5503320000000  0.4712610000000  0.4510760000000 1.0
C      1  0.4469910000000  0.5224990000000  0.4508540000000 1.0
C      1  0.5480200000000  0.5217160000000  0.5497530000000 1.0
END
