TITL C-9268-6400-58 -5.92906724014936e-05 125000 -366.345124784825 0 0 60 (D3) n - 1
REM
REM in /home/bkarasulu/CARBON/AIRSS/Generating-Clusters/EDIP-Nigel-Params/Higher-Symm/Box-15A/Only-C60/SD-CG/HFTN-CG
REM
REM
REM
REM
REM
REM ./C.cell (414f73aa93bd7a1190c7fd0f31ff2f98)
REM
REM compiler GCC version 9.2.1 20190827 (Red Hat 9.2.1-1)
REM options -cpp -mtune=generic -march=x86-64 -g -O0 -fpre-include=/usr/include/finclude/math-vector-fortran.h
REM seed -2131713752 537304078 2124811355 -241325626 -1178021182 529669872 -812032870 765426447 -973780571 1091896733 202098353 -1779314524 -2108247604 -1056088490 1343855951 1455411171 521990044 1886618744 2114903426 -122598461 -422972392 1295119017 1052012231 706681008 1361170477 -835459540 -1831687940 212690073 916493709 2068549215 1209666694 -65299016 122850079
REM
CELL 1.54180   50.00000   50.00000   50.00000   90.00000   90.00000   90.00000
LATT -1
SFAC C  
C      1  0.4627640000000  0.5448810000000  0.5275530000000 1.0
C      1  0.4645590000000  0.4527230000000  0.5258620000000 1.0
C      1  0.4634170000000  0.5002620000000  0.4468810000000 1.0
C      1  0.5373850000000  0.4551080000000  0.5273320000000 1.0
C      1  0.5355810000000  0.5472660000000  0.5256890000000 1.0
C      1  0.5362950000000  0.4997600000000  0.4466830000000 1.0
C      1  0.5330430000000  0.4529430000000  0.4739420000000 1.0
C      1  0.5312000000000  0.5469570000000  0.4715950000000 1.0
C      1  0.5323020000000  0.5019860000000  0.5542020000000 1.0
C      1  0.4668160000000  0.5470680000000  0.4741410000000 1.0
C      1  0.4686460000000  0.4530550000000  0.4717450000000 1.0
C      1  0.4679920000000  0.4979910000000  0.5543750000000 1.0
C      1  0.4945860000000  0.5693180000000  0.4420100000000 1.0
C      1  0.4960370000000  0.5154500000000  0.5891210000000 1.0
C      1  0.4976730000000  0.4150040000000  0.4689000000000 1.0
C      1  0.5050990000000  0.4307070000000  0.4419530000000 1.0
C      1  0.5044470000000  0.4845120000000  0.5890920000000 1.0
C      1  0.5021580000000  0.5850090000000  0.4689230000000 1.0
C      1  0.5055990000000  0.4318110000000  0.5567990000000 1.0
C      1  0.5041690000000  0.4850220000000  0.4124470000000 1.0
C      1  0.5025670000000  0.5834080000000  0.5307200000000 1.0
C      1  0.4947090000000  0.5681650000000  0.5568570000000 1.0
C      1  0.4953560000000  0.5150150000000  0.4124780000000 1.0
C      1  0.4975990000000  0.4165790000000  0.5306990000000 1.0
C      1  0.5163420000000  0.4033380000000  0.5139180000000 1.0
C      1  0.5134530000000  0.5366640000000  0.4090100000000 1.0
C      1  0.5134360000000  0.5608430000000  0.5769550000000 1.0
C      1  0.4837340000000  0.5966570000000  0.5140470000000 1.0
C      1  0.4860530000000  0.4633740000000  0.4090690000000 1.0
C      1  0.4869820000000  0.4391250000000  0.5770010000000 1.0
C      1  0.4835930000000  0.5972610000000  0.4867700000000 1.0
C      1  0.4865100000000  0.4624390000000  0.5911650000000 1.0
C      1  0.4865010000000  0.4394520000000  0.4221820000000 1.0
C      1  0.5163350000000  0.4027450000000  0.4866400000000 1.0
C      1  0.5139850000000  0.5375220000000  0.5911070000000 1.0
C      1  0.5130770000000  0.5605810000000  0.4221350000000 1.0
C      1  0.4830250000000  0.4747840000000  0.4853290000000 1.0
C      1  0.4820490000000  0.5248400000000  0.4858590000000 1.0
C      1  0.4826630000000  0.4993550000000  0.5289530000000 1.0
C      1  0.5168950000000  0.5252230000000  0.4852480000000 1.0
C      1  0.5178740000000  0.4751660000000  0.4857520000000 1.0
C      1  0.5174930000000  0.5006330000000  0.5288590000000 1.0
C      1  0.5262380000000  0.5240160000000  0.5132980000000 1.0
C      1  0.5271530000000  0.4771970000000  0.5135930000000 1.0
C      1  0.5265900000000  0.5003490000000  0.4728920000000 1.0
C      1  0.4738350000000  0.4759780000000  0.5134300000000 1.0
C      1  0.4729210000000  0.5227970000000  0.5137500000000 1.0
C      1  0.4732630000000  0.4996620000000  0.4730360000000 1.0
C      1  0.5212500000000  0.5694100000000  0.4846460000000 1.0
C      1  0.5232360000000  0.4792020000000  0.5673250000000 1.0
C      1  0.5234300000000  0.4527140000000  0.4478450000000 1.0
C      1  0.4786670000000  0.4305960000000  0.4847330000000 1.0
C      1  0.4771290000000  0.5207690000000  0.5674590000000 1.0
C      1  0.4762870000000  0.5473080000000  0.4479930000000 1.0
C      1  0.4792360000000  0.4320680000000  0.5140000000000 1.0
C      1  0.4772790000000  0.5212450000000  0.4346220000000 1.0
C      1  0.4771240000000  0.5453910000000  0.5515580000000 1.0
C      1  0.5208400000000  0.5679260000000  0.5139150000000 1.0
C      1  0.5223660000000  0.4787830000000  0.4344900000000 1.0
C      1  0.5231550000000  0.4545870000000  0.5514140000000 1.0
END
