TITL C-9255-4564-282 -3.70515805998264e-07 125000 -345.906040790606 0 0 60 (C3i) n - 1
REM
REM in /home/bkarasulu/CARBON/AIRSS/Generating-Clusters/EDIP-Nigel-Params/Higher-Symm/Box-15A/Only-C60/SD-CG/HFTN-CG
REM
REM
REM
REM
REM
REM ./C.cell (414f73aa93bd7a1190c7fd0f31ff2f98)
REM
REM compiler GCC version 9.2.1 20190827 (Red Hat 9.2.1-1)
REM options -cpp -mtune=generic -march=x86-64 -g -O0 -fpre-include=/usr/include/finclude/math-vector-fortran.h
REM seed 1813894597 -1768475571 141879969 411443790 -1312410042 1771215605 1697109652 94312006 -109308708 -1124038439 -1208118833 -1954778322 -1744944322 551232290 -1301857660 765368158 1020305066 -219435048 1512750178 1222660960 -1257041353 -1309012053 368736387 -2134019216 1221653661 -1038460064 -1453107722 -282221634 1625357531 1531375504 -1372566012 594868819 1187016402
REM
CELL 1.54180   50.00000   50.00000   50.00000   90.00000   90.00000   90.00000
LATT -1
SFAC C  
C      1  0.5251510000000  0.5465110000000  0.5267770000000 1.0
C      1  0.4745370000000  0.5463370000000  0.4732160000000 1.0
C      1  0.5252370000000  0.5000810000000  0.4463720000000 1.0
C      1  0.4748490000000  0.4534890000000  0.4732230000000 1.0
C      1  0.5254630000000  0.4536630000000  0.5267840000000 1.0
C      1  0.4747630000000  0.4999190000000  0.5536280000000 1.0
C      1  0.4483510000000  0.5324190000000  0.4725900000000 1.0
C      1  0.5515040000000  0.4926920000000  0.4580010000000 1.0
C      1  0.4486070000000  0.4597540000000  0.4855470000000 1.0
C      1  0.5516490000000  0.4675810000000  0.5274100000000 1.0
C      1  0.4484960000000  0.5073080000000  0.5419990000000 1.0
C      1  0.5513930000000  0.5402460000000  0.5144530000000 1.0
C      1  0.5187530000000  0.4973510000000  0.5239140000000 1.0
C      1  0.4812240000000  0.5193050000000  0.5143300000000 1.0
C      1  0.5186410000000  0.5221430000000  0.4903670000000 1.0
C      1  0.4812470000000  0.5026490000000  0.4760860000000 1.0
C      1  0.5187760000000  0.4806950000000  0.4856700000000 1.0
C      1  0.4813590000000  0.4778570000000  0.5096330000000 1.0
C      1  0.5265550000000  0.5568050000000  0.4648820000000 1.0
C      1  0.4731730000000  0.4978750000000  0.4333590000000 1.0
C      1  0.5269460000000  0.4413400000000  0.4684070000000 1.0
C      1  0.4734450000000  0.4431950000000  0.5351180000000 1.0
C      1  0.5268270000000  0.5021250000000  0.5666410000000 1.0
C      1  0.4730540000000  0.5586600000000  0.5315930000000 1.0
C      1  0.4896170000000  0.5072990000000  0.5781630000000 1.0
C      1  0.5102160000000  0.5713850000000  0.5327170000000 1.0
C      1  0.4893180000000  0.5639810000000  0.4545810000000 1.0
C      1  0.5103830000000  0.4927010000000  0.4218370000000 1.0
C      1  0.4897840000000  0.4286150000000  0.4672830000000 1.0
C      1  0.5106820000000  0.4360190000000  0.5454190000000 1.0
C      1  0.5077100000000  0.4586370000000  0.5031120000000 1.0
C      1  0.4925250000000  0.4819810000000  0.5374090000000 1.0
C      1  0.5075200000000  0.5234200000000  0.5342770000000 1.0
C      1  0.4922900000000  0.5413630000000  0.4968880000000 1.0
C      1  0.5074750000000  0.5180190000000  0.4625910000000 1.0
C      1  0.4924800000000  0.4765800000000  0.4657230000000 1.0
C      1  0.4954010000000  0.4661230000000  0.4284430000000 1.0
C      1  0.5049100000000  0.4211120000000  0.4935400000000 1.0
C      1  0.4955580000000  0.4549420000000  0.5651090000000 1.0
C      1  0.5045990000000  0.5338770000000  0.5715570000000 1.0
C      1  0.4950900000000  0.5788880000000  0.5064600000000 1.0
C      1  0.5044420000000  0.5450580000000  0.4348910000000 1.0
C      1  0.5077780000000  0.5780150000000  0.4775010000000 1.0
C      1  0.4918060000000  0.5194880000000  0.4212210000000 1.0
C      1  0.5082070000000  0.4415550000000  0.4436990000000 1.0
C      1  0.4922220000000  0.4219850000000  0.5224990000000 1.0
C      1  0.5081940000000  0.4805120000000  0.5787790000000 1.0
C      1  0.4917930000000  0.5584450000000  0.5563010000000 1.0
C      1  0.5447690000000  0.4951150000000  0.5385240000000 1.0
C      1  0.4551980000000  0.5307280000000  0.5236820000000 1.0
C      1  0.5445850000000  0.5360640000000  0.4850410000000 1.0
C      1  0.4552310000000  0.5048850000000  0.4614760000000 1.0
C      1  0.5448020000000  0.4692720000000  0.4763180000000 1.0
C      1  0.4554150000000  0.4639360000000  0.5149590000000 1.0
C      1  0.4394700000000  0.4831930000000  0.4726820000000 1.0
C      1  0.5606700000000  0.4681980000000  0.5006410000000 1.0
C      1  0.4395150000000  0.4843950000000  0.5281170000000 1.0
C      1  0.5605300000000  0.5168070000000  0.5273180000000 1.0
C      1  0.4393300000000  0.5318020000000  0.4993590000000 1.0
C      1  0.5604850000000  0.5156050000000  0.4718830000000 1.0
END
