TITL C-9255-4564-3 0.000265206140627825 125000 -369.917516953407 0 0 60 (C2v) n - 1
REM
REM in /home/bkarasulu/CARBON/AIRSS/Generating-Clusters/EDIP-Nigel-Params/Higher-Symm/Box-15A/Only-C60/SD-CG/HFTN-CG
REM
REM
REM
REM
REM
REM ./C.cell (414f73aa93bd7a1190c7fd0f31ff2f98)
REM
REM compiler GCC version 9.2.1 20190827 (Red Hat 9.2.1-1)
REM options -cpp -mtune=generic -march=x86-64 -g -O0 -fpre-include=/usr/include/finclude/math-vector-fortran.h
REM seed -126400785 1837323503 -28039071 1332240663 2056274349 -696408391 518208221 2080939353 -516463873 -82320504 -1447568495 907921655 1411423159 -532092212 -598233220 283286352 -275967937 1877101184 1848639682 1160396089 1957918952 -995867448 1051830888 -95519788 -907517002 1682613315 -193455646 892324791 1930359710 257803815 -1724025952 1004325150 -1949590364
REM
CELL 1.54180   50.00000   50.00000   50.00000   90.00000   90.00000   90.00000
LATT -1
SFAC C  
C      1  0.5584560000000  0.5199840000000  0.5157820000000 1.0
C      1  0.5406630000000  0.4464090000000  0.5159990000000 1.0
C      1  0.4651980000000  0.4407730000000  0.5160120000000 1.0
C      1  0.4370570000000  0.5110180000000  0.5159490000000 1.0
C      1  0.4946170000000  0.5598380000000  0.5158160000000 1.0
C      1  0.5584810000000  0.5199330000000  0.4842430000000 1.0
C      1  0.5406870000000  0.4463570000000  0.4842370000000 1.0
C      1  0.4652220000000  0.4407220000000  0.4841270000000 1.0
C      1  0.4370820000000  0.5109660000000  0.4839190000000 1.0
C      1  0.4946410000000  0.5597870000000  0.4839820000000 1.0
C      1  0.4513550000000  0.5380450000000  0.4841310000000 1.0
C      1  0.5247480000000  0.5546970000000  0.4840130000000 1.0
C      1  0.5630590000000  0.4896680000000  0.4840500000000 1.0
C      1  0.5133900000000  0.4325780000000  0.4841770000000 1.0
C      1  0.4439710000000  0.4627090000000  0.4841360000000 1.0
C      1  0.4513300000000  0.5380960000000  0.5156700000000 1.0
C      1  0.5247230000000  0.5547480000000  0.5158470000000 1.0
C      1  0.5630340000000  0.4897200000000  0.5160800000000 1.0
C      1  0.5133650000000  0.4326300000000  0.5160620000000 1.0
C      1  0.4439470000000  0.4627610000000  0.5158980000000 1.0
C      1  0.4873170000000  0.5193890000000  0.5493430000000 1.0
C      1  0.5182510000000  0.5141590000000  0.5493750000000 1.0
C      1  0.5218550000000  0.4838610000000  0.5469560000000 1.0
C      1  0.4950220000000  0.4708440000000  0.5464840000000 1.0
C      1  0.4739590000000  0.4919590000000  0.5469060000000 1.0
C      1  0.4873940000000  0.5192290000000  0.4505750000000 1.0
C      1  0.5183280000000  0.5139990000000  0.4506070000000 1.0
C      1  0.5219270000000  0.4837090000000  0.4531300000000 1.0
C      1  0.4950940000000  0.4706930000000  0.4536030000000 1.0
C      1  0.4740320000000  0.4918070000000  0.4530800000000 1.0
C      1  0.5316020000000  0.5276910000000  0.5253690000000 1.0
C      1  0.5388470000000  0.4747990000000  0.5244540000000 1.0
C      1  0.4917230000000  0.4511950000000  0.5243130000000 1.0
C      1  0.4549780000000  0.4889780000000  0.5243660000000 1.0
C      1  0.4792060000000  0.5365500000000  0.5253140000000 1.0
C      1  0.5316410000000  0.5276090000000  0.4745900000000 1.0
C      1  0.5388840000000  0.4747200000000  0.4756880000000 1.0
C      1  0.4917600000000  0.4511160000000  0.4758330000000 1.0
C      1  0.4550160000000  0.4888990000000  0.4756000000000 1.0
C      1  0.4792450000000  0.5364670000000  0.4745350000000 1.0
C      1  0.4602780000000  0.5064150000000  0.3858880000000 1.0
C      1  0.4829060000000  0.5324700000000  0.4242080000000 1.0
C      1  0.5269720000000  0.5250200000000  0.4242540000000 1.0
C      1  0.5398550000000  0.4929610000000  0.3859710000000 1.0
C      1  0.4970690000000  0.4818090000000  0.3618060000000 1.0
C      1  0.4601020000000  0.5067850000000  0.6140290000000 1.0
C      1  0.4827890000000  0.5327150000000  0.5756590000000 1.0
C      1  0.5268550000000  0.5252650000000  0.5757050000000 1.0
C      1  0.5396790000000  0.4933310000000  0.6141120000000 1.0
C      1  0.4968560000000  0.4822570000000  0.6382470000000 1.0
C      1  0.5069650000000  0.5406580000000  0.4127900000000 1.0
C      1  0.5414630000000  0.5088730000000  0.4072160000000 1.0
C      1  0.5227420000000  0.4825760000000  0.3685340000000 1.0
C      1  0.4730610000000  0.4909760000000  0.3684820000000 1.0
C      1  0.4639470000000  0.5219790000000  0.4071350000000 1.0
C      1  0.5068310000000  0.5409400000000  0.5870880000000 1.0
C      1  0.5413200000000  0.5091740000000  0.5928190000000 1.0
C      1  0.5225390000000  0.4830030000000  0.6315570000000 1.0
C      1  0.4728580000000  0.4914020000000  0.6315050000000 1.0
C      1  0.4638040000000  0.5222800000000  0.5927380000000 1.0
END
