TITL C-9270-2362-289 1.32455985585875e-07 125000 -360.691870913856 0 0 60 (C1) n - 1
REM
REM in /home/bkarasulu/CARBON/AIRSS/Generating-Clusters/EDIP-Nigel-Params/Higher-Symm/Box-15A/Only-C60/SD-CG/HFTN-CG
REM
REM
REM
REM
REM
REM ./C.cell (414f73aa93bd7a1190c7fd0f31ff2f98)
REM
REM compiler GCC version 9.2.1 20190827 (Red Hat 9.2.1-1)
REM options -cpp -mtune=generic -march=x86-64 -g -O0 -fpre-include=/usr/include/finclude/math-vector-fortran.h
REM seed -1108155210 761522250 607865486 710125199 -1751931442 -1510240462 -606740064 -922414515 -4083522 -488736901 829142197 -2089482398 -1265964465 -1319706654 -733767371 1382650512 745422571 1615589241 -1829406742 1839184881 594050958 -873945504 853863102 -1219276060 -147481501 -648872528 -358253531 -1301136950 -153171895 1968846818 1866033173 -210997119 -1330206192
REM
CELL 1.54180   50.00000   50.00000   50.00000   90.00000   90.00000   90.00000
LATT -1
SFAC C  
C      1  0.5016040000000  0.4331760000000  0.5241180000000 1.0
C      1  0.5423990000000  0.4575890000000  0.5550840000000 1.0
C      1  0.4851470000000  0.5556820000000  0.4585950000000 1.0
C      1  0.5379820000000  0.5447740000000  0.5061460000000 1.0
C      1  0.5234460000000  0.5123790000000  0.4671270000000 1.0
C      1  0.4643040000000  0.4459470000000  0.4441850000000 1.0
C      1  0.5128750000000  0.5691310000000  0.5333360000000 1.0
C      1  0.4985170000000  0.5799090000000  0.5004480000000 1.0
C      1  0.4582180000000  0.4740850000000  0.4500200000000 1.0
C      1  0.4455150000000  0.5499230000000  0.5056580000000 1.0
C      1  0.4610700000000  0.5115810000000  0.5625010000000 1.0
C      1  0.4677610000000  0.5132710000000  0.4817670000000 1.0
C      1  0.4468080000000  0.4445950000000  0.5011120000000 1.0
C      1  0.5425020000000  0.4982810000000  0.5323690000000 1.0
C      1  0.4867290000000  0.4602410000000  0.5590870000000 1.0
C      1  0.5023560000000  0.4852130000000  0.5587020000000 1.0
C      1  0.5012020000000  0.5021840000000  0.4485610000000 1.0
C      1  0.5319350000000  0.4839410000000  0.5568410000000 1.0
C      1  0.5414540000000  0.5340960000000  0.4567480000000 1.0
C      1  0.4645700000000  0.4603870000000  0.5387700000000 1.0
C      1  0.5041670000000  0.5110020000000  0.5137030000000 1.0
C      1  0.5752790000000  0.5083670000000  0.4831770000000 1.0
C      1  0.4781190000000  0.4992200000000  0.5066700000000 1.0
C      1  0.4454360000000  0.5318390000000  0.4561590000000 1.0
C      1  0.4800770000000  0.4888330000000  0.4645210000000 1.0
C      1  0.4431260000000  0.5084590000000  0.5414190000000 1.0
C      1  0.5688190000000  0.4750400000000  0.5184450000000 1.0
C      1  0.4345580000000  0.4694800000000  0.4668180000000 1.0
C      1  0.5007740000000  0.5272390000000  0.5404700000000 1.0
C      1  0.5259370000000  0.4438180000000  0.5108360000000 1.0
C      1  0.4691760000000  0.5396700000000  0.4411820000000 1.0
C      1  0.5617790000000  0.5534940000000  0.4927050000000 1.0
C      1  0.5794790000000  0.4815230000000  0.4917690000000 1.0
C      1  0.4889470000000  0.5109410000000  0.5621550000000 1.0
C      1  0.5452500000000  0.5299120000000  0.5317010000000 1.0
C      1  0.5658490000000  0.5334610000000  0.4734690000000 1.0
C      1  0.4854190000000  0.5398890000000  0.4836700000000 1.0
C      1  0.5064740000000  0.4290520000000  0.4680830000000 1.0
C      1  0.4888730000000  0.4350320000000  0.4491400000000 1.0
C      1  0.5403640000000  0.4624580000000  0.4672910000000 1.0
C      1  0.4403060000000  0.4410680000000  0.4730480000000 1.0
C      1  0.5131390000000  0.5292500000000  0.4914090000000 1.0
C      1  0.4859860000000  0.5533270000000  0.5332060000000 1.0
C      1  0.5233510000000  0.4871670000000  0.5097480000000 1.0
C      1  0.4761870000000  0.4482110000000  0.5130190000000 1.0
C      1  0.4375100000000  0.5447570000000  0.4794360000000 1.0
C      1  0.5278180000000  0.4402470000000  0.4816610000000 1.0
C      1  0.5121410000000  0.5780510000000  0.4744380000000 1.0
C      1  0.5681870000000  0.4641440000000  0.4723710000000 1.0
C      1  0.4893880000000  0.4723250000000  0.4977540000000 1.0
C      1  0.4752020000000  0.5586040000000  0.5059120000000 1.0
C      1  0.5483710000000  0.4549020000000  0.5273850000000 1.0
C      1  0.4870990000000  0.5199530000000  0.4322810000000 1.0
C      1  0.5019940000000  0.4369490000000  0.5524230000000 1.0
C      1  0.5260740000000  0.5439620000000  0.5485950000000 1.0
C      1  0.4449940000000  0.4813730000000  0.5297250000000 1.0
C      1  0.5288130000000  0.5595110000000  0.4607840000000 1.0
C      1  0.5376170000000  0.4895400000000  0.4823720000000 1.0
C      1  0.4380160000000  0.5307630000000  0.5248710000000 1.0
C      1  0.4335140000000  0.4707810000000  0.5050050000000 1.0
END
