TITL C-9264-7143-200 4.53318074904558e-07 125000 -372.730845946121 0 0 60 (D4) n - 1
REM
REM in /home/bkarasulu/CARBON/AIRSS/Generating-Clusters/EDIP-Nigel-Params/Higher-Symm/Box-15A/Only-C60/SD-CG/HFTN-CG
REM
REM
REM
REM
REM
REM ./C.cell (414f73aa93bd7a1190c7fd0f31ff2f98)
REM
REM compiler GCC version 9.2.1 20190827 (Red Hat 9.2.1-1)
REM options -cpp -mtune=generic -march=x86-64 -g -O0 -fpre-include=/usr/include/finclude/math-vector-fortran.h
REM seed -993570369 129754720 1148084187 1698357667 919399551 1406492286 -636502643 188910349 406523616 -258324831 -1886188258 1877444484 1999558256 -1531947075 -1282507988 1142382209 1702042340 -1718903226 -1277259951 107557787 1145361454 604268085 -704537491 -950477344 -1854796586 -708490771 -697997050 1865838859 -1075539111 -308409495 -512641878 1522459060 1264863331
REM
CELL 1.54180   50.00000   50.00000   50.00000   90.00000   90.00000   90.00000
LATT -1
SFAC C  
C      1  0.5071880000000  0.4862370000000  0.4673780000000 1.0
C      1  0.5072340000000  0.5326270000000  0.4862730000000 1.0
C      1  0.5070720000000  0.5137320000000  0.5326620000000 1.0
C      1  0.5070260000000  0.4673420000000  0.5137670000000 1.0
C      1  0.4921470000000  0.5130650000000  0.4670530000000 1.0
C      1  0.4919990000000  0.4670880000000  0.4869300000000 1.0
C      1  0.4919180000000  0.4869660000000  0.5329070000000 1.0
C      1  0.4920660000000  0.5329430000000  0.5130300000000 1.0
C      1  0.4263190000000  0.4936540000000  0.4513600000000 1.0
C      1  0.4263210000000  0.5485970000000  0.4933080000000 1.0
C      1  0.4260890000000  0.5066490000000  0.5482510000000 1.0
C      1  0.4260870000000  0.4517060000000  0.5063020000000 1.0
C      1  0.5730990000000  0.5053140000000  0.4516220000000 1.0
C      1  0.5728730000000  0.4512760000000  0.4947290000000 1.0
C      1  0.5728180000000  0.4943830000000  0.5487680000000 1.0
C      1  0.5730440000000  0.5484210000000  0.5056600000000 1.0
C      1  0.4973300000000  0.4529950000000  0.5669740000000 1.0
C      1  0.4975920000000  0.4330240000000  0.4529860000000 1.0
C      1  0.4978800000000  0.5470130000000  0.4330150000000 1.0
C      1  0.4976190000000  0.5669840000000  0.5470040000000 1.0
C      1  0.5014820000000  0.5484190000000  0.5659700000000 1.0
C      1  0.5018220000000  0.5659610000000  0.4515820000000 1.0
C      1  0.5016320000000  0.4515730000000  0.4340400000000 1.0
C      1  0.5012930000000  0.4340310000000  0.5484280000000 1.0
C      1  0.4403310000000  0.5152710000000  0.4612730000000 1.0
C      1  0.4402370000000  0.5386920000000  0.5149910000000 1.0
C      1  0.4400640000000  0.4849740000000  0.5384110000000 1.0
C      1  0.4401580000000  0.4615540000000  0.4846940000000 1.0
C      1  0.5590340000000  0.4839120000000  0.4619200000000 1.0
C      1  0.5588440000000  0.4616390000000  0.5161230000000 1.0
C      1  0.5588970000000  0.5158430000000  0.5383960000000 1.0
C      1  0.5590860000000  0.5381150000000  0.4841920000000 1.0
C      1  0.4262860000000  0.4691650000000  0.4620800000000 1.0
C      1  0.4264100000000  0.5378770000000  0.4688200000000 1.0
C      1  0.4262140000000  0.5311380000000  0.5375310000000 1.0
C      1  0.4260900000000  0.4624260000000  0.5307910000000 1.0
C      1  0.5730770000000  0.5300250000000  0.4618190000000 1.0
C      1  0.5729140000000  0.4614720000000  0.4700180000000 1.0
C      1  0.5727490000000  0.4696720000000  0.5385710000000 1.0
C      1  0.5729120000000  0.5382250000000  0.5303710000000 1.0
C      1  0.4925170000000  0.5204620000000  0.4384740000000 1.0
C      1  0.4923840000000  0.5615220000000  0.5204280000000 1.0
C      1  0.4921060000000  0.4795680000000  0.5614870000000 1.0
C      1  0.4922390000000  0.4385080000000  0.4795330000000 1.0
C      1  0.5069680000000  0.4782340000000  0.4389620000000 1.0
C      1  0.5066670000000  0.4389270000000  0.5217700000000 1.0
C      1  0.5067340000000  0.5217360000000  0.5610770000000 1.0
C      1  0.5070350000000  0.5610430000000  0.4782680000000 1.0
C      1  0.5355750000000  0.5209660000000  0.4913780000000 1.0
C      1  0.5354700000000  0.5086440000000  0.5211360000000 1.0
C      1  0.5354420000000  0.4788850000000  0.5088130000000 1.0
C      1  0.5355460000000  0.4912080000000  0.4790550000000 1.0
C      1  0.4636320000000  0.4788530000000  0.4916360000000 1.0
C      1  0.4635810000000  0.4918060000000  0.5211260000000 1.0
C      1  0.4636760000000  0.5212950000000  0.5081730000000 1.0
C      1  0.4637280000000  0.5083420000000  0.4786840000000 1.0
C      1  0.4993760000000  0.5008310000000  0.5781480000000 1.0
C      1  0.4997870000000  0.4991690000000  0.4218520000000 1.0
C      1  0.4997450000000  0.5781480000000  0.4991690000000 1.0
C      1  0.4994180000000  0.4218520000000  0.5008310000000 1.0
END
