TITL C-9269-7444-60 -9.03701890907232e-07 125000 -368.575886310999 0 0 60 (C1) n - 1
REM
REM in /home/bkarasulu/CARBON/AIRSS/Generating-Clusters/EDIP-Nigel-Params/Higher-Symm/Box-15A/Only-C60/SD-CG/HFTN-CG
REM
REM
REM
REM
REM
REM ./C.cell (414f73aa93bd7a1190c7fd0f31ff2f98)
REM
REM compiler GCC version 9.2.1 20190827 (Red Hat 9.2.1-1)
REM options -cpp -mtune=generic -march=x86-64 -g -O0 -fpre-include=/usr/include/finclude/math-vector-fortran.h
REM seed 2092432942 -1733561049 970604492 1381444961 308582835 1737795204 -1426919377 -708434307 -1143027291 -1008676140 1164890509 1121270538 -718327283 -927395609 -1534655498 139465859 180872390 1936148157 918683226 131778745 945090590 1774104978 -107087777 -1928009498 -51099204 -1361894164 477551455 -216777676 -1537307738 1957075305 871710430 1959818394 779762857
REM
CELL 1.54180   50.00000   50.00000   50.00000   90.00000   90.00000   90.00000
LATT -1
SFAC C  
C      1  0.5251660000000  0.4817340000000  0.4213760000000 1.0
C      1  0.4755910000000  0.5181680000000  0.5793570000000 1.0
C      1  0.4762170000000  0.5479370000000  0.5388080000000 1.0
C      1  0.5234130000000  0.4524410000000  0.4623840000000 1.0
C      1  0.4919180000000  0.4830150000000  0.4551650000000 1.0
C      1  0.5078600000000  0.5171900000000  0.5444670000000 1.0
C      1  0.4883620000000  0.5351220000000  0.4466430000000 1.0
C      1  0.5123000000000  0.4646770000000  0.5538850000000 1.0
C      1  0.5565060000000  0.5461650000000  0.4594920000000 1.0
C      1  0.4486810000000  0.4486410000000  0.5368470000000 1.0
C      1  0.4764400000000  0.5482800000000  0.5079990000000 1.0
C      1  0.5219340000000  0.4525340000000  0.4929600000000 1.0
C      1  0.4901780000000  0.4639330000000  0.5345220000000 1.0
C      1  0.5105210000000  0.5380170000000  0.4656810000000 1.0
C      1  0.5074910000000  0.4810490000000  0.5759730000000 1.0
C      1  0.4934060000000  0.5190320000000  0.4243660000000 1.0
C      1  0.4534660000000  0.4556410000000  0.4873290000000 1.0
C      1  0.5459090000000  0.5452550000000  0.5097190000000 1.0
C      1  0.5326560000000  0.5192950000000  0.5063620000000 1.0
C      1  0.4666590000000  0.4816990000000  0.4928240000000 1.0
C      1  0.5411110000000  0.4993100000000  0.4642360000000 1.0
C      1  0.4585690000000  0.5011700000000  0.5367150000000 1.0
C      1  0.4638440000000  0.4721950000000  0.5472640000000 1.0
C      1  0.5364420000000  0.5279910000000  0.4536640000000 1.0
C      1  0.4975180000000  0.4362460000000  0.5002770000000 1.0
C      1  0.5005860000000  0.5637890000000  0.5004980000000 1.0
C      1  0.4866250000000  0.5082590000000  0.5223440000000 1.0
C      1  0.5124320000000  0.4924920000000  0.4776070000000 1.0
C      1  0.4346980000000  0.4521330000000  0.5117870000000 1.0
C      1  0.5657390000000  0.5485100000000  0.4856480000000 1.0
C      1  0.4212950000000  0.4952410000000  0.4781210000000 1.0
C      1  0.5794260000000  0.4994890000000  0.5242100000000 1.0
C      1  0.5000470000000  0.5074030000000  0.5711730000000 1.0
C      1  0.5004440000000  0.4925310000000  0.4286780000000 1.0
C      1  0.4195460000000  0.4774300000000  0.5121970000000 1.0
C      1  0.5809860000000  0.5230990000000  0.4935890000000 1.0
C      1  0.4934010000000  0.4513040000000  0.4553990000000 1.0
C      1  0.5066260000000  0.5488060000000  0.5448080000000 1.0
C      1  0.5062670000000  0.5200150000000  0.4914630000000 1.0
C      1  0.4927600000000  0.4817690000000  0.5085200000000 1.0
C      1  0.5369190000000  0.4670180000000  0.5402690000000 1.0
C      1  0.4633500000000  0.5337690000000  0.4601690000000 1.0
C      1  0.4592760000000  0.5329880000000  0.4886570000000 1.0
C      1  0.5402780000000  0.4666570000000  0.5118770000000 1.0
C      1  0.5687940000000  0.5369170000000  0.5282420000000 1.0
C      1  0.4351040000000  0.4609340000000  0.4649400000000 1.0
C      1  0.5376920000000  0.4748590000000  0.4458580000000 1.0
C      1  0.4624180000000  0.5252820000000  0.5552880000000 1.0
C      1  0.5601770000000  0.5130650000000  0.5440240000000 1.0
C      1  0.4397230000000  0.4870500000000  0.4549890000000 1.0
C      1  0.4839600000000  0.4367480000000  0.5261250000000 1.0
C      1  0.5110620000000  0.5656430000000  0.4743100000000 1.0
C      1  0.4657710000000  0.4959650000000  0.4662080000000 1.0
C      1  0.5338960000000  0.5046370000000  0.5328360000000 1.0
C      1  0.4778720000000  0.4378680000000  0.4780940000000 1.0
C      1  0.5211750000000  0.5625820000000  0.5217670000000 1.0
C      1  0.5668810000000  0.4981380000000  0.4818530000000 1.0
C      1  0.4326180000000  0.5027380000000  0.5201950000000 1.0
C      1  0.4343300000000  0.5181310000000  0.4953190000000 1.0
C      1  0.5656640000000  0.4800040000000  0.5046230000000 1.0
END
