TITL C-9269-7444-72 2.86232353386181e-05 125000 -351.757217325815 0 0 60 (C1) n - 1
REM
REM in /home/bkarasulu/CARBON/AIRSS/Generating-Clusters/EDIP-Nigel-Params/Higher-Symm/Box-15A/Only-C60/SD-CG/HFTN-CG
REM
REM
REM
REM
REM
REM ./C.cell (414f73aa93bd7a1190c7fd0f31ff2f98)
REM
REM compiler GCC version 9.2.1 20190827 (Red Hat 9.2.1-1)
REM options -cpp -mtune=generic -march=x86-64 -g -O0 -fpre-include=/usr/include/finclude/math-vector-fortran.h
REM seed -222343440 1029434693 -1300954709 407754140 -1338076771 1758626223 -135987850 -851209061 1595882721 -1179903739 2142394664 -1198429931 1134395959 1704739241 2055843967 1616738381 -958004015 -1245060829 2039207839 592103585 -282601996 -1755531988 601827784 -1567905409 -1445581474 -839031674 -1904274294 532884678 -1391786718 2027010764 -1142613408 -547860842 -1377977143
REM
CELL 1.54180   50.00000   50.00000   50.00000   90.00000   90.00000   90.00000
LATT -1
SFAC C  
C      1  0.4715490000000  0.5638740000000  0.5562480000000 1.0
C      1  0.4525490000000  0.4795980000000  0.5608140000000 1.0
C      1  0.4692200000000  0.4418980000000  0.4944570000000 1.0
C      1  0.4543000000000  0.4830180000000  0.4241230000000 1.0
C      1  0.4644560000000  0.5444990000000  0.4667030000000 1.0
C      1  0.5339690000000  0.4457460000000  0.5434550000000 1.0
C      1  0.5489340000000  0.5234980000000  0.5709700000000 1.0
C      1  0.5341200000000  0.5603110000000  0.5041450000000 1.0
C      1  0.5292600000000  0.5259790000000  0.4184820000000 1.0
C      1  0.5406950000000  0.4402500000000  0.4514410000000 1.0
C      1  0.5145210000000  0.5323760000000  0.5358150000000 1.0
C      1  0.5182590000000  0.4924140000000  0.5552790000000 1.0
C      1  0.5294200000000  0.4525350000000  0.4999350000000 1.0
C      1  0.5271220000000  0.4805790000000  0.4401420000000 1.0
C      1  0.5221430000000  0.5399040000000  0.4598820000000 1.0
C      1  0.4858820000000  0.4750490000000  0.5236560000000 1.0
C      1  0.4751080000000  0.5163620000000  0.5707430000000 1.0
C      1  0.4729660000000  0.5511450000000  0.5139910000000 1.0
C      1  0.4851060000000  0.5110910000000  0.4465500000000 1.0
C      1  0.4829950000000  0.4564060000000  0.4510350000000 1.0
C      1  0.5266720000000  0.5390670000000  0.5633150000000 1.0
C      1  0.5164910000000  0.4625780000000  0.5590980000000 1.0
C      1  0.5303590000000  0.4324870000000  0.4781090000000 1.0
C      1  0.5259190000000  0.4961400000000  0.4154130000000 1.0
C      1  0.5230180000000  0.5633690000000  0.4769940000000 1.0
C      1  0.4729840000000  0.4650310000000  0.5490670000000 1.0
C      1  0.4790540000000  0.5444750000000  0.5765150000000 1.0
C      1  0.4725120000000  0.5627810000000  0.4871350000000 1.0
C      1  0.4772710000000  0.4986810000000  0.4211770000000 1.0
C      1  0.4815160000000  0.4341790000000  0.4691990000000 1.0
C      1  0.4543090000000  0.5573260000000  0.5346000000000 1.0
C      1  0.4513970000000  0.5022320000000  0.5753100000000 1.0
C      1  0.4667140000000  0.4718280000000  0.4982780000000 1.0
C      1  0.4574890000000  0.4704740000000  0.4491420000000 1.0
C      1  0.4653890000000  0.5147790000000  0.4675580000000 1.0
C      1  0.5488150000000  0.4530250000000  0.5206140000000 1.0
C      1  0.5485420000000  0.5025950000000  0.5518360000000 1.0
C      1  0.5353360000000  0.5322510000000  0.5148100000000 1.0
C      1  0.5433750000000  0.5330850000000  0.4423870000000 1.0
C      1  0.5502360000000  0.4671110000000  0.4496500000000 1.0
C      1  0.4980560000000  0.5570320000000  0.5297330000000 1.0
C      1  0.5024660000000  0.5065010000000  0.5794070000000 1.0
C      1  0.5048790000000  0.4503920000000  0.5186170000000 1.0
C      1  0.5062460000000  0.4594200000000  0.4312180000000 1.0
C      1  0.4961730000000  0.5385550000000  0.4446710000000 1.0
C      1  0.5054600000000  0.4202620000000  0.4735940000000 1.0
C      1  0.4912460000000  0.4525820000000  0.5661720000000 1.0
C      1  0.4971650000000  0.5742910000000  0.4798050000000 1.0
C      1  0.5073010000000  0.5444090000000  0.5838700000000 1.0
C      1  0.4993770000000  0.4875970000000  0.4059830000000 1.0
C      1  0.5043930000000  0.5405790000000  0.4161790000000 1.0
C      1  0.4864620000000  0.4282460000000  0.5130940000000 1.0
C      1  0.5220650000000  0.4343550000000  0.4303950000000 1.0
C      1  0.5019300000000  0.4922840000000  0.6026490000000 1.0
C      1  0.5164530000000  0.5771980000000  0.5194220000000 1.0
C      1  0.4261820000000  0.4898050000000  0.4792260000000 1.0
C      1  0.5724740000000  0.5006530000000  0.5094560000000 1.0
C      1  0.4528820000000  0.4871070000000  0.4744200000000 1.0
C      1  0.5570080000000  0.5151820000000  0.5255940000000 1.0
C      1  0.5019930000000  0.5008550000000  0.5310610000000 1.0
END
