TITL C-9270-2362-310 1.50754976718505e-06 125000 -361.804532840707 0 0 60 (C2) n - 1
REM
REM in /home/bkarasulu/CARBON/AIRSS/Generating-Clusters/EDIP-Nigel-Params/Higher-Symm/Box-15A/Only-C60/SD-CG/HFTN-CG
REM
REM
REM
REM
REM
REM ./C.cell (414f73aa93bd7a1190c7fd0f31ff2f98)
REM
REM compiler GCC version 9.2.1 20190827 (Red Hat 9.2.1-1)
REM options -cpp -mtune=generic -march=x86-64 -g -O0 -fpre-include=/usr/include/finclude/math-vector-fortran.h
REM seed 363759388 -650030859 -1141520221 168463131 -29942886 -1673214585 -175689020 2007356914 1555806820 1486589275 -145103967 902217903 -918471446 2082081544 -1177442839 1650590677 1645042481 -437583943 139529980 -1008219656 2036595637 -1023826848 -505883051 922802710 1809620250 -1211476486 -1471373576 -1385147355 -1700836821 -432071417 -404778058 -386408671 736718120
REM
CELL 1.54180   50.00000   50.00000   50.00000   90.00000   90.00000   90.00000
LATT -1
SFAC C  
C      1  0.4942860000000  0.4483070000000  0.5016020000000 1.0
C      1  0.5057140000000  0.5516930000000  0.5016000000000 1.0
C      1  0.5504700000000  0.5169700000000  0.4769160000000 1.0
C      1  0.4495270000000  0.4830300000000  0.4769230000000 1.0
C      1  0.5257850000000  0.4284770000000  0.5173380000000 1.0
C      1  0.4742180000000  0.5715230000000  0.5173400000000 1.0
C      1  0.4517260000000  0.5502130000000  0.4706000000000 1.0
C      1  0.5482710000000  0.4497860000000  0.4705950000000 1.0
C      1  0.4741450000000  0.4413500000000  0.4627230000000 1.0
C      1  0.5258500000000  0.5586490000000  0.4627180000000 1.0
C      1  0.5161050000000  0.5210370000000  0.5040350000000 1.0
C      1  0.4838960000000  0.4789630000000  0.5040380000000 1.0
C      1  0.5550580000000  0.5291750000000  0.5222260000000 1.0
C      1  0.4449450000000  0.4708260000000  0.5222330000000 1.0
C      1  0.5093350000000  0.5122690000000  0.5341270000000 1.0
C      1  0.4906690000000  0.4877320000000  0.5341290000000 1.0
C      1  0.5431020000000  0.5740300000000  0.4809630000000 1.0
C      1  0.4568960000000  0.4259690000000  0.4809700000000 1.0
C      1  0.4667300000000  0.4935730000000  0.5532330000000 1.0
C      1  0.5332760000000  0.5064280000000  0.5532280000000 1.0
C      1  0.5629970000000  0.4913500000000  0.4697140000000 1.0
C      1  0.4369990000000  0.5086500000000  0.4697210000000 1.0
C      1  0.4761930000000  0.5645520000000  0.4793690000000 1.0
C      1  0.5238040000000  0.4354480000000  0.4793680000000 1.0
C      1  0.5289000000000  0.4556520000000  0.5281800000000 1.0
C      1  0.4711040000000  0.5443480000000  0.5281820000000 1.0
C      1  0.4826060000000  0.4847030000000  0.4422680000000 1.0
C      1  0.5173860000000  0.5152950000000  0.4422650000000 1.0
C      1  0.4850490000000  0.4396850000000  0.5415050000000 1.0
C      1  0.5149570000000  0.5603160000000  0.5415020000000 1.0
C      1  0.5613650000000  0.4693130000000  0.4918460000000 1.0
C      1  0.4386340000000  0.5306870000000  0.4918530000000 1.0
C      1  0.5450410000000  0.4740100000000  0.4512140000000 1.0
C      1  0.4549530000000  0.5259890000000  0.4512190000000 1.0
C      1  0.5359870000000  0.5318090000000  0.4560080000000 1.0
C      1  0.4640070000000  0.4681900000000  0.4560130000000 1.0
C      1  0.4957000000000  0.5373760000000  0.5423640000000 1.0
C      1  0.5043060000000  0.4626250000000  0.5423640000000 1.0
C      1  0.5671900000000  0.5609150000000  0.4863250000000 1.0
C      1  0.4328090000000  0.4390840000000  0.4863350000000 1.0
C      1  0.4983880000000  0.5836580000000  0.5292660000000 1.0
C      1  0.5016150000000  0.4163430000000  0.5292680000000 1.0
C      1  0.4983080000000  0.5649300000000  0.4612820000000 1.0
C      1  0.5016870000000  0.4350690000000  0.4612830000000 1.0
C      1  0.5659930000000  0.5341180000000  0.4951540000000 1.0
C      1  0.4340070000000  0.4658820000000  0.4951630000000 1.0
C      1  0.5147680000000  0.4922040000000  0.4859950000000 1.0
C      1  0.4852300000000  0.5077960000000  0.4859960000000 1.0
C      1  0.4818030000000  0.5121690000000  0.4550030000000 1.0
C      1  0.5181910000000  0.4878290000000  0.4550010000000 1.0
C      1  0.4737470000000  0.4254910000000  0.5042780000000 1.0
C      1  0.5262530000000  0.5745100000000  0.5042730000000 1.0
C      1  0.4479390000000  0.4996300000000  0.5311040000000 1.0
C      1  0.5520650000000  0.5003710000000  0.5310970000000 1.0
C      1  0.4559010000000  0.5229380000000  0.5147840000000 1.0
C      1  0.5441010000000  0.4770620000000  0.5147790000000 1.0
C      1  0.5423370000000  0.5300850000000  0.5663120000000 1.0
C      1  0.4576710000000  0.4699170000000  0.5663180000000 1.0
C      1  0.4551390000000  0.4518380000000  0.5442510000000 1.0
C      1  0.5448660000000  0.5481630000000  0.5442440000000 1.0
END
