TITL C-9265-7156-275 6.35967737986573e-08 125000 -347.228178822359 0 0 60 (C2) n - 1
REM
REM in /home/bkarasulu/CARBON/AIRSS/Generating-Clusters/EDIP-Nigel-Params/Higher-Symm/Box-15A/Only-C60/SD-CG/HFTN-CG
REM
REM
REM
REM
REM
REM ./C.cell (414f73aa93bd7a1190c7fd0f31ff2f98)
REM
REM compiler GCC version 9.2.1 20190827 (Red Hat 9.2.1-1)
REM options -cpp -mtune=generic -march=x86-64 -g -O0 -fpre-include=/usr/include/finclude/math-vector-fortran.h
REM seed 1895800497 471618109 1805075248 552963618 60396048 634545450 -2047737208 -598744414 -663413752 1394906029 -623348187 -381351055 1691523212 409735782 -1273581162 -1259994909 1495921872 152543490 975017610 -1662199604 275934210 1469270214 -227235085 -1851310248 -1043851607 1962117225 -524979629 -1030815762 99422299 1494725630 -1189994651 2113942249 -751419253
REM
CELL 1.54180   50.00000   50.00000   50.00000   90.00000   90.00000   90.00000
LATT -1
SFAC C  
C      1  0.5198710000000  0.5652600000000  0.5645730000000 1.0
C      1  0.4742010000000  0.5612930000000  0.4446640000000 1.0
C      1  0.5252900000000  0.4397320000000  0.5551620000000 1.0
C      1  0.4804500000000  0.4370320000000  0.4386340000000 1.0
C      1  0.5195470000000  0.5629490000000  0.4386140000000 1.0
C      1  0.4747120000000  0.5602850000000  0.5551450000000 1.0
C      1  0.5257960000000  0.4386900000000  0.4446820000000 1.0
C      1  0.4801320000000  0.4347600000000  0.5645940000000 1.0
C      1  0.4850710000000  0.5802000000000  0.4649850000000 1.0
C      1  0.5153650000000  0.5783640000000  0.5389420000000 1.0
C      1  0.4849820000000  0.4198930000000  0.4614750000000 1.0
C      1  0.5146010000000  0.4207420000000  0.5349820000000 1.0
C      1  0.4854010000000  0.5792690000000  0.5349590000000 1.0
C      1  0.5150160000000  0.5800950000000  0.4614490000000 1.0
C      1  0.4846370000000  0.4216480000000  0.5389660000000 1.0
C      1  0.5149270000000  0.4197900000000  0.4650080000000 1.0
C      1  0.4411390000000  0.5291660000000  0.5143490000000 1.0
C      1  0.5642050000000  0.5239250000000  0.4878840000000 1.0
C      1  0.4340360000000  0.4752490000000  0.5152490000000 1.0
C      1  0.5578340000000  0.4711880000000  0.4866740000000 1.0
C      1  0.4421650000000  0.5288080000000  0.4866680000000 1.0
C      1  0.5659650000000  0.5247550000000  0.5152380000000 1.0
C      1  0.4357950000000  0.4760710000000  0.4878950000000 1.0
C      1  0.5588620000000  0.4708390000000  0.5143550000000 1.0
C      1  0.4762570000000  0.5548840000000  0.4830530000000 1.0
C      1  0.5252160000000  0.5599890000000  0.5184420000000 1.0
C      1  0.4741220000000  0.4397990000000  0.4801510000000 1.0
C      1  0.5241690000000  0.4452140000000  0.5166310000000 1.0
C      1  0.4758320000000  0.5547910000000  0.5166150000000 1.0
C      1  0.5258770000000  0.5601950000000  0.4801320000000 1.0
C      1  0.4747850000000  0.4400160000000  0.5184620000000 1.0
C      1  0.5237430000000  0.4451110000000  0.4830680000000 1.0
C      1  0.5409450000000  0.5143450000000  0.4749770000000 1.0
C      1  0.4619880000000  0.5141870000000  0.5267440000000 1.0
C      1  0.5376120000000  0.4856980000000  0.4729280000000 1.0
C      1  0.4587980000000  0.4854450000000  0.5247060000000 1.0
C      1  0.5412040000000  0.5145630000000  0.5247000000000 1.0
C      1  0.4623870000000  0.5142940000000  0.4729260000000 1.0
C      1  0.5380130000000  0.4858210000000  0.5267470000000 1.0
C      1  0.4590540000000  0.4856480000000  0.4749830000000 1.0
C      1  0.5189480000000  0.5330910000000  0.4710150000000 1.0
C      1  0.4888160000000  0.5279100000000  0.5250860000000 1.0
C      1  0.5107930000000  0.4721030000000  0.4747100000000 1.0
C      1  0.4812970000000  0.4670050000000  0.5273180000000 1.0
C      1  0.5187040000000  0.5330040000000  0.5273070000000 1.0
C      1  0.4892050000000  0.5278890000000  0.4747020000000 1.0
C      1  0.5111850000000  0.4720970000000  0.5250940000000 1.0
C      1  0.4810500000000  0.4669000000000  0.4710260000000 1.0
C      1  0.5188320000000  0.5021070000000  0.4151290000000 1.0
C      1  0.4811210000000  0.4986780000000  0.5832050000000 1.0
C      1  0.4974160000000  0.5230490000000  0.4157920000000 1.0
C      1  0.4983650000000  0.5231940000000  0.5832210000000 1.0
C      1  0.5016390000000  0.4768320000000  0.5832280000000 1.0
C      1  0.5025800000000  0.4769260000000  0.4157990000000 1.0
C      1  0.5188830000000  0.5013470000000  0.5832040000000 1.0
C      1  0.4811640000000  0.4978670000000  0.4151310000000 1.0
C      1  0.5015710000000  0.4537300000000  0.5644700000000 1.0
C      1  0.4968990000000  0.5459580000000  0.4348410000000 1.0
C      1  0.4984320000000  0.5462900000000  0.5644560000000 1.0
C      1  0.5030970000000  0.4540220000000  0.4348550000000 1.0
END
