TITL C-9264-7143-126 -1.62391673328953e-07 125000 -389.709644591595 0 0 60 (D6d) n - 1
REM
REM in /home/bkarasulu/CARBON/AIRSS/Generating-Clusters/EDIP-Nigel-Params/Higher-Symm/Box-15A/Only-C60/SD-CG/HFTN-CG
REM
REM
REM
REM
REM
REM ./C.cell (414f73aa93bd7a1190c7fd0f31ff2f98)
REM
REM compiler GCC version 9.2.1 20190827 (Red Hat 9.2.1-1)
REM options -cpp -mtune=generic -march=x86-64 -g -O0 -fpre-include=/usr/include/finclude/math-vector-fortran.h
REM seed 1001852393 -2141799494 427789750 -88195213 1255862514 -1878944281 -376553446 949681381 -1608682196 -1293259297 -344139700 1643553107 1996379738 64151073 1159086380 620399975 -823516727 904936168 1848345199 -1173724764 2105693033 -1148774677 677164328 1688468485 -1434107609 1388564969 349614730 816591671 1500257729 280733309 896343189 678131272 -1081044485
REM
CELL 1.54180   50.00000   50.00000   50.00000   90.00000   90.00000   90.00000
LATT -1
SFAC C  
C      1  0.4886700000000  0.4399270000000  0.5452640000000 1.0
C      1  0.5353620000000  0.4401970000000  0.5309700000000 1.0
C      1  0.5463290000000  0.4419940000000  0.4834190000000 1.0
C      1  0.5106040000000  0.4435220000000  0.4501630000000 1.0
C      1  0.4639120000000  0.4432520000000  0.4644570000000 1.0
C      1  0.4529450000000  0.4414540000000  0.5120080000000 1.0
C      1  0.4860690000000  0.5601950000000  0.4556330000000 1.0
C      1  0.5336530000000  0.5594690000000  0.4665800000000 1.0
C      1  0.5479470000000  0.5575500000000  0.5132340000000 1.0
C      1  0.5146570000000  0.5563560000000  0.5489400000000 1.0
C      1  0.4670730000000  0.5570820000000  0.5379930000000 1.0
C      1  0.4527790000000  0.5590020000000  0.4913390000000 1.0
C      1  0.5470900000000  0.4246230000000  0.5080120000000 1.0
C      1  0.5328050000000  0.4265410000000  0.4613860000000 1.0
C      1  0.4852500000000  0.4272670000000  0.4504450000000 1.0
C      1  0.4519800000000  0.4260740000000  0.4861300000000 1.0
C      1  0.4662650000000  0.4241560000000  0.5327560000000 1.0
C      1  0.5138200000000  0.4234300000000  0.5436970000000 1.0
C      1  0.5471290000000  0.5749210000000  0.4886430000000 1.0
C      1  0.5361680000000  0.5731250000000  0.5361650000000 1.0
C      1  0.4895040000000  0.5728550000000  0.5504510000000 1.0
C      1  0.4538010000000  0.5743820000000  0.5172150000000 1.0
C      1  0.4647620000000  0.5761780000000  0.4696930000000 1.0
C      1  0.5114260000000  0.5764480000000  0.4554070000000 1.0
C      1  0.5228980000000  0.5978240000000  0.5246180000000 1.0
C      1  0.5297380000000  0.5989450000000  0.4949600000000 1.0
C      1  0.5074560000000  0.5998980000000  0.4742170000000 1.0
C      1  0.4783330000000  0.5997300000000  0.4831330000000 1.0
C      1  0.4714920000000  0.5986080000000  0.5127910000000 1.0
C      1  0.4937750000000  0.5976560000000  0.5335340000000 1.0
C      1  0.5201490000000  0.4019680000000  0.4738530000000 1.0
C      1  0.5290640000000  0.4007700000000  0.5029530000000 1.0
C      1  0.5083000000000  0.4000260000000  0.5252240000000 1.0
C      1  0.4786210000000  0.4004790000000  0.5183950000000 1.0
C      1  0.4697060000000  0.4016760000000  0.4892960000000 1.0
C      1  0.4904690000000  0.4024200000000  0.4670250000000 1.0
C      1  0.5307710000000  0.5329600000000  0.5083430000000 1.0
C      1  0.5215900000000  0.5341930000000  0.4783770000000 1.0
C      1  0.4910270000000  0.5346590000000  0.4713460000000 1.0
C      1  0.4696450000000  0.5338920000000  0.4942800000000 1.0
C      1  0.4788260000000  0.5326590000000  0.5242460000000 1.0
C      1  0.5093890000000  0.5321930000000  0.5312770000000 1.0
C      1  0.5297820000000  0.4667470000000  0.4895070000000 1.0
C      1  0.5227380000000  0.4655930000000  0.5200490000000 1.0
C      1  0.4927470000000  0.4654200000000  0.5292300000000 1.0
C      1  0.4698010000000  0.4664010000000  0.5078700000000 1.0
C      1  0.4768460000000  0.4675550000000  0.4773280000000 1.0
C      1  0.5068360000000  0.4677280000000  0.4681470000000 1.0
C      1  0.5140550000000  0.5062320000000  0.5460270000000 1.0
C      1  0.5466710000000  0.5074010000000  0.5110440000000 1.0
C      1  0.5326660000000  0.5092820000000  0.4653350000000 1.0
C      1  0.4860460000000  0.5099930000000  0.4546090000000 1.0
C      1  0.4534300000000  0.5088230000000  0.4895920000000 1.0
C      1  0.4674350000000  0.5069430000000  0.5353020000000 1.0
C      1  0.5106950000000  0.4936490000000  0.4530940000000 1.0
C      1  0.5456960000000  0.4921520000000  0.4856770000000 1.0
C      1  0.5349510000000  0.4903910000000  0.5322640000000 1.0
C      1  0.4892040000000  0.4901270000000  0.5462690000000 1.0
C      1  0.4542030000000  0.4916230000000  0.5136870000000 1.0
C      1  0.4649480000000  0.4933840000000  0.4670990000000 1.0
END
