TITL C-9267-1554-65 -6.64272225904117e-06 125000 -362.837743385639 0 0 60 (Cs) n - 1
REM
REM in /home/bkarasulu/CARBON/AIRSS/Generating-Clusters/EDIP-Nigel-Params/Higher-Symm/Box-15A/Only-C60/SD-CG/HFTN-CG
REM
REM
REM
REM
REM
REM ./C.cell (414f73aa93bd7a1190c7fd0f31ff2f98)
REM
REM compiler GCC version 9.2.1 20190827 (Red Hat 9.2.1-1)
REM options -cpp -mtune=generic -march=x86-64 -g -O0 -fpre-include=/usr/include/finclude/math-vector-fortran.h
REM seed -1260331754 -379909729 -735698187 206862852 -1887470606 603915875 341517982 322685470 -291296052 -1567582510 1697866253 -1227549054 -1580938433 -1960373456 1007705209 1823386966 -1501490284 -1403868622 -424601443 452444027 1221730809 1111715593 -242002962 616346803 -1104095144 400290884 595020358 1352438364 761388914 427530055 -13147798 -730624226 1769190377
REM
CELL 1.54180   50.00000   50.00000   50.00000   90.00000   90.00000   90.00000
LATT -1
SFAC C  
C      1  0.4514170000000  0.4550550000000  0.5279630000000 1.0
C      1  0.4958070000000  0.4507110000000  0.4419700000000 1.0
C      1  0.5501450000000  0.4535420000000  0.5261580000000 1.0
C      1  0.4512900000000  0.4548890000000  0.4725290000000 1.0
C      1  0.4960720000000  0.4510600000000  0.5583440000000 1.0
C      1  0.5500260000000  0.4533850000000  0.4738930000000 1.0
C      1  0.5683910000000  0.5266170000000  0.5151850000000 1.0
C      1  0.4529820000000  0.5272100000000  0.5513060000000 1.0
C      1  0.4804790000000  0.5266020000000  0.4359790000000 1.0
C      1  0.5683210000000  0.5265250000000  0.4843430000000 1.0
C      1  0.4527480000000  0.5269020000000  0.4487470000000 1.0
C      1  0.4807710000000  0.5269860000000  0.5639480000000 1.0
C      1  0.4944420000000  0.4996120000000  0.4363160000000 1.0
C      1  0.5654120000000  0.4997070000000  0.5291200000000 1.0
C      1  0.4423390000000  0.5006340000000  0.5405340000000 1.0
C      1  0.4947320000000  0.4999940000000  0.5637100000000 1.0
C      1  0.5652790000000  0.4995310000000  0.4705840000000 1.0
C      1  0.4421550000000  0.5003920000000  0.4597270000000 1.0
C      1  0.5251380000000  0.5590540000000  0.5146190000000 1.0
C      1  0.4743390000000  0.5607020000000  0.5148460000000 1.0
C      1  0.4993250000000  0.5640340000000  0.4689410000000 1.0
C      1  0.5250700000000  0.5589650000000  0.4849120000000 1.0
C      1  0.4742710000000  0.5606120000000  0.4849070000000 1.0
C      1  0.4994650000000  0.5642190000000  0.5306770000000 1.0
C      1  0.5692630000000  0.4730850000000  0.4847350000000 1.0
C      1  0.4792920000000  0.4742570000000  0.5663020000000 1.0
C      1  0.4517780000000  0.4734730000000  0.4490820000000 1.0
C      1  0.5693320000000  0.4731760000000  0.5151100000000 1.0
C      1  0.4789900000000  0.4738590000000  0.4339490000000 1.0
C      1  0.4520110000000  0.4737800000000  0.5512950000000 1.0
C      1  0.5468000000000  0.4989740000000  0.4488700000000 1.0
C      1  0.5231020000000  0.4991990000000  0.5640300000000 1.0
C      1  0.4313970000000  0.5007520000000  0.4864450000000 1.0
C      1  0.5470330000000  0.4992800000000  0.5509210000000 1.0
C      1  0.5228090000000  0.4988150000000  0.4358720000000 1.0
C      1  0.4314600000000  0.5008340000000  0.5138630000000 1.0
C      1  0.4744270000000  0.5163520000000  0.4848390000000 1.0
C      1  0.5263330000000  0.5147260000000  0.4844450000000 1.0
C      1  0.5007970000000  0.5204490000000  0.5249590000000 1.0
C      1  0.4744960000000  0.5164430000000  0.5151790000000 1.0
C      1  0.5264040000000  0.5148190000000  0.5153470000000 1.0
C      1  0.5006830000000  0.5202990000000  0.4749150000000 1.0
C      1  0.4740240000000  0.4836990000000  0.4849360000000 1.0
C      1  0.5266750000000  0.4827900000000  0.4839940000000 1.0
C      1  0.5002590000000  0.4748760000000  0.5279140000000 1.0
C      1  0.4740930000000  0.4837900000000  0.5152800000000 1.0
C      1  0.5267480000000  0.4828860000000  0.5159870000000 1.0
C      1  0.5001320000000  0.4747090000000  0.4722370000000 1.0
C      1  0.4955620000000  0.5509450000000  0.5562550000000 1.0
C      1  0.4526490000000  0.5457790000000  0.4716250000000 1.0
C      1  0.5479220000000  0.5449160000000  0.4728030000000 1.0
C      1  0.4953040000000  0.5506060000000  0.4434610000000 1.0
C      1  0.4527780000000  0.5459490000000  0.5283150000000 1.0
C      1  0.5480450000000  0.5450770000000  0.5267080000000 1.0
C      1  0.4993660000000  0.4440350000000  0.4715280000000 1.0
C      1  0.5273250000000  0.4387150000000  0.5149410000000 1.0
C      1  0.4728040000000  0.4394860000000  0.5151450000000 1.0
C      1  0.4994960000000  0.4442060000000  0.5288100000000 1.0
C      1  0.5272570000000  0.4386260000000  0.4853020000000 1.0
C      1  0.4727360000000  0.4393960000000  0.4853430000000 1.0
END
