TITL C-9269-7444-126 0.000278886622856802 125000 -350.364576169287 0 0 60 (C1) n - 1
REM
REM in /home/bkarasulu/CARBON/AIRSS/Generating-Clusters/EDIP-Nigel-Params/Higher-Symm/Box-15A/Only-C60/SD-CG/HFTN-CG
REM
REM
REM
REM
REM
REM ./C.cell (414f73aa93bd7a1190c7fd0f31ff2f98)
REM
REM compiler GCC version 9.2.1 20190827 (Red Hat 9.2.1-1)
REM options -cpp -mtune=generic -march=x86-64 -g -O0 -fpre-include=/usr/include/finclude/math-vector-fortran.h
REM seed -1789533903 -2048972677 -418858092 1730082567 1883379992 -1792979781 925137039 990439122 -518571205 2109697180 1022510305 -1214517169 -1603935845 559637614 -720677729 -1666823989 2059690967 -2090245506 -934782 -174225888 997342769 -1069315043 820429765 1271875411 163269318 -1225781976 321271927 -1064321536 1976862230 -1093558698 -254666075 1069386634 -323029639
REM
CELL 1.54180   50.00000   50.00000   50.00000   90.00000   90.00000   90.00000
LATT -1
SFAC C  
C      1  0.4356780000000  0.5041220000000  0.4410480000000 1.0
C      1  0.4141460000000  0.5086830000000  0.5479260000000 1.0
C      1  0.5160410000000  0.5072770000000  0.5899700000000 1.0
C      1  0.5891610000000  0.5036810000000  0.5085220000000 1.0
C      1  0.5415740000000  0.5118520000000  0.4090930000000 1.0
C      1  0.5667160000000  0.5062640000000  0.4373250000000 1.0
C      1  0.5803760000000  0.5052430000000  0.5457540000000 1.0
C      1  0.4790380000000  0.5121750000000  0.5986260000000 1.0
C      1  0.4129750000000  0.5032750000000  0.5101650000000 1.0
C      1  0.4587100000000  0.5100420000000  0.4112240000000 1.0
C      1  0.5090410000000  0.4477110000000  0.5475890000000 1.0
C      1  0.5485710000000  0.4441340000000  0.5010730000000 1.0
C      1  0.5179420000000  0.4501330000000  0.4416350000000 1.0
C      1  0.4739150000000  0.4483490000000  0.4709210000000 1.0
C      1  0.4575320000000  0.4507430000000  0.5364970000000 1.0
C      1  0.4819810000000  0.4508450000000  0.5574470000000 1.0
C      1  0.4626080000000  0.4484450000000  0.5079330000000 1.0
C      1  0.4859890000000  0.4505890000000  0.4445240000000 1.0
C      1  0.5340220000000  0.4461210000000  0.4654300000000 1.0
C      1  0.5422770000000  0.4460610000000  0.5285450000000 1.0
C      1  0.4227660000000  0.5353670000000  0.5389380000000 1.0
C      1  0.5108010000000  0.5311020000000  0.5744520000000 1.0
C      1  0.5747600000000  0.5288900000000  0.5088100000000 1.0
C      1  0.5386410000000  0.5374260000000  0.4233640000000 1.0
C      1  0.4465480000000  0.5298540000000  0.4488460000000 1.0
C      1  0.5723630000000  0.5323610000000  0.5376550000000 1.0
C      1  0.4844660000000  0.5377990000000  0.5850410000000 1.0
C      1  0.4257360000000  0.5293310000000  0.5105850000000 1.0
C      1  0.4611500000000  0.5362260000000  0.4244480000000 1.0
C      1  0.5546470000000  0.5308510000000  0.4468260000000 1.0
C      1  0.5432300000000  0.4739160000000  0.5372920000000 1.0
C      1  0.5454630000000  0.4729950000000  0.4677280000000 1.0
C      1  0.4868690000000  0.4808220000000  0.4366460000000 1.0
C      1  0.4525830000000  0.4745490000000  0.4995350000000 1.0
C      1  0.4762180000000  0.4810150000000  0.5623040000000 1.0
C      1  0.4530470000000  0.4808030000000  0.5433970000000 1.0
C      1  0.4613040000000  0.4746240000000  0.4722740000000 1.0
C      1  0.5166580000000  0.4805780000000  0.4350110000000 1.0
C      1  0.5550710000000  0.4716990000000  0.4947050000000 1.0
C      1  0.5190410000000  0.4747180000000  0.5527880000000 1.0
C      1  0.5766500000000  0.5477240000000  0.4886570000000 1.0
C      1  0.5130320000000  0.5479200000000  0.4247430000000 1.0
C      1  0.4319760000000  0.5474520000000  0.4643690000000 1.0
C      1  0.4425970000000  0.5475820000000  0.5539200000000 1.0
C      1  0.5310300000000  0.5481160000000  0.5667650000000 1.0
C      1  0.4232390000000  0.5471100000000  0.4895960000000 1.0
C      1  0.4864490000000  0.5475430000000  0.4246150000000 1.0
C      1  0.5682500000000  0.5483960000000  0.4633010000000 1.0
C      1  0.5528710000000  0.5462610000000  0.5516830000000 1.0
C      1  0.4639750000000  0.5483320000000  0.5696730000000 1.0
C      1  0.4814380000000  0.4926560000000  0.4109010000000 1.0
C      1  0.4243970000000  0.4816390000000  0.4954030000000 1.0
C      1  0.4629040000000  0.4928030000000  0.5850240000000 1.0
C      1  0.5615130000000  0.4863750000000  0.5562980000000 1.0
C      1  0.5694550000000  0.4838470000000  0.4548230000000 1.0
C      1  0.5196420000000  0.4934060000000  0.4094070000000 1.0
C      1  0.5818020000000  0.4826150000000  0.4908470000000 1.0
C      1  0.5298990000000  0.4856600000000  0.5776690000000 1.0
C      1  0.4331400000000  0.4917990000000  0.5611210000000 1.0
C      1  0.4360870000000  0.4820910000000  0.4592920000000 1.0
END
