TITL C-9259-5960-238 -1.81600977372345e-05 125000 -361.743687860873 0 0 60 (C1) n - 1
REM
REM in /home/bkarasulu/CARBON/AIRSS/Generating-Clusters/EDIP-Nigel-Params/Higher-Symm/Box-15A/Only-C60/SD-CG/HFTN-CG
REM
REM
REM
REM
REM
REM ./C.cell (414f73aa93bd7a1190c7fd0f31ff2f98)
REM
REM compiler GCC version 9.2.1 20190827 (Red Hat 9.2.1-1)
REM options -cpp -mtune=generic -march=x86-64 -g -O0 -fpre-include=/usr/include/finclude/math-vector-fortran.h
REM seed -2053598066 -1385547060 2130941166 -71778152 1733530963 -60617831 1398007869 67509774 390452451 -2020198409 515761199 -629053186 2136200751 1087747753 -334467599 2002832272 -63723483 -1398663322 -2059664714 1977367504 1274725406 -2018857500 -77851714 1991341852 889686516 1703850001 339232330 -115994082 -165474500 -1265043057 1821376304 -55952148 50048592
REM
CELL 1.54180   50.00000   50.00000   50.00000   90.00000   90.00000   90.00000
LATT -1
SFAC C  
C      1  0.4801900000000  0.5267950000000  0.4660620000000 1.0
C      1  0.4791960000000  0.4736930000000  0.4672730000000 1.0
C      1  0.5647240000000  0.5530290000000  0.5098880000000 1.0
C      1  0.5624650000000  0.4484350000000  0.5037570000000 1.0
C      1  0.4914260000000  0.5613010000000  0.5037860000000 1.0
C      1  0.4917550000000  0.4367430000000  0.5050800000000 1.0
C      1  0.4841730000000  0.4431100000000  0.5495190000000 1.0
C      1  0.4963020000000  0.5532980000000  0.5510660000000 1.0
C      1  0.5418270000000  0.4844930000000  0.4875170000000 1.0
C      1  0.5414780000000  0.5156380000000  0.4881360000000 1.0
C      1  0.4733370000000  0.4314590000000  0.5262140000000 1.0
C      1  0.4776300000000  0.5650090000000  0.5291810000000 1.0
C      1  0.4509340000000  0.4861590000000  0.4681330000000 1.0
C      1  0.4519150000000  0.5159460000000  0.4612120000000 1.0
C      1  0.4963740000000  0.5306940000000  0.4404590000000 1.0
C      1  0.4950820000000  0.4715470000000  0.4408930000000 1.0
C      1  0.5674880000000  0.4755780000000  0.4986820000000 1.0
C      1  0.5662710000000  0.5257090000000  0.5002760000000 1.0
C      1  0.4327170000000  0.4838420000000  0.5238140000000 1.0
C      1  0.4242370000000  0.5089490000000  0.5139660000000 1.0
C      1  0.4836490000000  0.4318410000000  0.4774560000000 1.0
C      1  0.4809180000000  0.5681650000000  0.4774260000000 1.0
C      1  0.4717460000000  0.5138040000000  0.5416740000000 1.0
C      1  0.4671940000000  0.4850470000000  0.5425290000000 1.0
C      1  0.4464350000000  0.4367910000000  0.5189900000000 1.0
C      1  0.4491360000000  0.5552350000000  0.5263710000000 1.0
C      1  0.4541970000000  0.5611440000000  0.4724510000000 1.0
C      1  0.4564150000000  0.4380090000000  0.4723000000000 1.0
C      1  0.5203890000000  0.4867140000000  0.4420530000000 1.0
C      1  0.5215100000000  0.5160980000000  0.4419460000000 1.0
C      1  0.5309520000000  0.5576290000000  0.4635930000000 1.0
C      1  0.5327970000000  0.4453880000000  0.4621750000000 1.0
C      1  0.4916050000000  0.4703520000000  0.5505680000000 1.0
C      1  0.4966200000000  0.5238200000000  0.5521700000000 1.0
C      1  0.5335730000000  0.5483090000000  0.5511720000000 1.0
C      1  0.5407920000000  0.4725050000000  0.5448920000000 1.0
C      1  0.5153480000000  0.4812410000000  0.5338750000000 1.0
C      1  0.5177810000000  0.5120420000000  0.5342680000000 1.0
C      1  0.4398650000000  0.5317690000000  0.5061280000000 1.0
C      1  0.4313080000000  0.4580740000000  0.5061710000000 1.0
C      1  0.5024480000000  0.4435330000000  0.4556990000000 1.0
C      1  0.5007540000000  0.5585220000000  0.4551570000000 1.0
C      1  0.5413710000000  0.5291920000000  0.4602710000000 1.0
C      1  0.5398080000000  0.4734120000000  0.4594360000000 1.0
C      1  0.4897020000000  0.4841130000000  0.4939750000000 1.0
C      1  0.4903200000000  0.5151740000000  0.4936430000000 1.0
C      1  0.5603060000000  0.5578450000000  0.4792170000000 1.0
C      1  0.5500190000000  0.4346440000000  0.4821370000000 1.0
C      1  0.5164250000000  0.4730500000000  0.5039920000000 1.0
C      1  0.5172990000000  0.5255350000000  0.5052670000000 1.0
C      1  0.5192160000000  0.4354480000000  0.5138230000000 1.0
C      1  0.5190880000000  0.5644110000000  0.5054650000000 1.0
C      1  0.4693340000000  0.5248250000000  0.5145480000000 1.0
C      1  0.4677570000000  0.4727950000000  0.5138510000000 1.0
C      1  0.5555940000000  0.4962310000000  0.5499170000000 1.0
C      1  0.5479670000000  0.5226480000000  0.5561840000000 1.0
C      1  0.4384680000000  0.4597670000000  0.4768020000000 1.0
C      1  0.4389650000000  0.5379970000000  0.4765980000000 1.0
C      1  0.5394940000000  0.5587840000000  0.5243150000000 1.0
C      1  0.5439170000000  0.4466690000000  0.5265810000000 1.0
END
