TITL C-9264-7143-12 3.0916630078593e-07 125000 -362.523594000847 0 0 60 (C1) n - 1
REM
REM in /home/bkarasulu/CARBON/AIRSS/Generating-Clusters/EDIP-Nigel-Params/Higher-Symm/Box-15A/Only-C60/SD-CG/HFTN-CG
REM
REM
REM
REM
REM
REM ./C.cell (414f73aa93bd7a1190c7fd0f31ff2f98)
REM
REM compiler GCC version 9.2.1 20190827 (Red Hat 9.2.1-1)
REM options -cpp -mtune=generic -march=x86-64 -g -O0 -fpre-include=/usr/include/finclude/math-vector-fortran.h
REM seed -1623733806 2013245884 -1134797876 236828778 -476084998 -1732366382 464160635 -320889719 1820551483 -898305069 1207578482 841677912 -1267153742 859358454 -1007507769 1703534173 12905608 -59906006 1176187625 2051804681 1752456472 -1397601390 1000532470 -593332208 1494597949 1240573043 881787019 -1305723908 588116118 -1064924752 536617588 1224479711 -189234763
REM
CELL 1.54180   50.00000   50.00000   50.00000   90.00000   90.00000   90.00000
LATT -1
SFAC C  
C      1  0.5607630000000  0.5329370000000  0.5180230000000 1.0
C      1  0.5611030000000  0.4673010000000  0.5177630000000 1.0
C      1  0.5214460000000  0.4845880000000  0.5159990000000 1.0
C      1  0.5212200000000  0.5153930000000  0.5160470000000 1.0
C      1  0.5260530000000  0.5385330000000  0.5534770000000 1.0
C      1  0.5266900000000  0.4611890000000  0.5532760000000 1.0
C      1  0.5642730000000  0.4744440000000  0.4699680000000 1.0
C      1  0.5641300000000  0.5261020000000  0.4701550000000 1.0
C      1  0.4754920000000  0.5398850000000  0.5682020000000 1.0
C      1  0.4762600000000  0.4592600000000  0.5681510000000 1.0
C      1  0.5490150000000  0.4805230000000  0.5426710000000 1.0
C      1  0.5486810000000  0.5194810000000  0.5428230000000 1.0
C      1  0.4308470000000  0.4765280000000  0.4913330000000 1.0
C      1  0.4304430000000  0.5243210000000  0.4907730000000 1.0
C      1  0.5402590000000  0.5547930000000  0.5096670000000 1.0
C      1  0.5407160000000  0.4453600000000  0.5092950000000 1.0
C      1  0.5688200000000  0.4853330000000  0.4955340000000 1.0
C      1  0.5686890000000  0.5151040000000  0.4956700000000 1.0
C      1  0.4995150000000  0.4731370000000  0.5599870000000 1.0
C      1  0.4989440000000  0.5263160000000  0.5600710000000 1.0
C      1  0.4811500000000  0.4224870000000  0.5080890000000 1.0
C      1  0.4806050000000  0.5774460000000  0.5083050000000 1.0
C      1  0.4790670000000  0.5148720000000  0.4327350000000 1.0
C      1  0.4791020000000  0.4854480000000  0.4327680000000 1.0
C      1  0.5064770000000  0.4810670000000  0.4237980000000 1.0
C      1  0.5064480000000  0.5193180000000  0.4238310000000 1.0
C      1  0.5225350000000  0.5592550000000  0.5324000000000 1.0
C      1  0.5232540000000  0.4404880000000  0.5321480000000 1.0
C      1  0.4725240000000  0.5262480000000  0.4601900000000 1.0
C      1  0.4725410000000  0.4739750000000  0.4602310000000 1.0
C      1  0.4904240000000  0.4858380000000  0.4808260000000 1.0
C      1  0.4904290000000  0.5142410000000  0.4806990000000 1.0
C      1  0.4990680000000  0.4272120000000  0.5274910000000 1.0
C      1  0.4983800000000  0.5725750000000  0.5277820000000 1.0
C      1  0.4740400000000  0.4291220000000  0.4831300000000 1.0
C      1  0.4737310000000  0.5709830000000  0.4832480000000 1.0
C      1  0.4500020000000  0.5191060000000  0.5350180000000 1.0
C      1  0.4505000000000  0.4794340000000  0.5353420000000 1.0
C      1  0.4254720000000  0.5155780000000  0.5173220000000 1.0
C      1  0.4263520000000  0.4857080000000  0.5178350000000 1.0
C      1  0.5278720000000  0.5621620000000  0.4829690000000 1.0
C      1  0.5281380000000  0.4380560000000  0.4826640000000 1.0
C      1  0.5173480000000  0.4749460000000  0.4871630000000 1.0
C      1  0.5172190000000  0.5252020000000  0.4872290000000 1.0
C      1  0.4501350000000  0.5338250000000  0.5599430000000 1.0
C      1  0.4506590000000  0.4647550000000  0.5602890000000 1.0
C      1  0.5122140000000  0.5570600000000  0.4574080000000 1.0
C      1  0.5123800000000  0.4432430000000  0.4571850000000 1.0
C      1  0.5369680000000  0.5162270000000  0.4645590000000 1.0
C      1  0.5370330000000  0.4841600000000  0.4644920000000 1.0
C      1  0.4818960000000  0.4444340000000  0.4611140000000 1.0
C      1  0.4817390000000  0.5557900000000  0.4612120000000 1.0
C      1  0.4722670000000  0.4709640000000  0.5183630000000 1.0
C      1  0.4717870000000  0.5280240000000  0.5183690000000 1.0
C      1  0.5246470000000  0.4671950000000  0.4418640000000 1.0
C      1  0.5245580000000  0.5332090000000  0.4419670000000 1.0
C      1  0.4444950000000  0.4852710000000  0.4682190000000 1.0
C      1  0.4444480000000  0.5151220000000  0.4680330000000 1.0
C      1  0.4945470000000  0.4837870000000  0.5324120000000 1.0
C      1  0.4941910000000  0.5156420000000  0.5324730000000 1.0
END
