TITL C-9269-7444-243 -1.34131017674699e-06 125000 -376.376437349609 0 0 60 (C1) n - 1
REM
REM in /home/bkarasulu/CARBON/AIRSS/Generating-Clusters/EDIP-Nigel-Params/Higher-Symm/Box-15A/Only-C60/SD-CG/HFTN-CG
REM
REM
REM
REM
REM
REM ./C.cell (414f73aa93bd7a1190c7fd0f31ff2f98)
REM
REM compiler GCC version 9.2.1 20190827 (Red Hat 9.2.1-1)
REM options -cpp -mtune=generic -march=x86-64 -g -O0 -fpre-include=/usr/include/finclude/math-vector-fortran.h
REM seed -1480721171 -1130360321 398427308 976671449 -1629250605 106147695 1619269315 -249203882 871785845 104702066 -914482640 -1876141337 -2012041074 -879278415 -706821859 1751825341 -845315664 1606395119 -123110741 1798323288 -1487517079 -16857109 -1836148963 -1473551377 -1864628416 1765653734 963542417 305944551 -517899535 -1139273103 272056460 604143418 610580359
REM
CELL 1.54180   50.00000   50.00000   50.00000   90.00000   90.00000   90.00000
LATT -1
SFAC C  
C      1  0.5546370000000  0.4927900000000  0.5543070000000 1.0
C      1  0.4662860000000  0.4568050000000  0.5549450000000 1.0
C      1  0.4791960000000  0.5513130000000  0.5548020000000 1.0
C      1  0.5544160000000  0.4923750000000  0.4450120000000 1.0
C      1  0.4666150000000  0.4562730000000  0.4455290000000 1.0
C      1  0.4788340000000  0.5509970000000  0.4455710000000 1.0
C      1  0.5470540000000  0.4409750000000  0.4846230000000 1.0
C      1  0.4241250000000  0.4838220000000  0.4826700000000 1.0
C      1  0.5270780000000  0.5698260000000  0.4868720000000 1.0
C      1  0.5478610000000  0.4413860000000  0.5162690000000 1.0
C      1  0.4262370000000  0.4881370000000  0.5130130000000 1.0
C      1  0.5249600000000  0.5739150000000  0.5172800000000 1.0
C      1  0.4893660000000  0.5271930000000  0.5654680000000 1.0
C      1  0.5288570000000  0.4960300000000  0.5654110000000 1.0
C      1  0.4821230000000  0.4776220000000  0.5655660000000 1.0
C      1  0.4891300000000  0.5271090000000  0.4345370000000 1.0
C      1  0.5285380000000  0.4960290000000  0.4342820000000 1.0
C      1  0.4819340000000  0.4772900000000  0.4344150000000 1.0
C      1  0.4380630000000  0.4583070000000  0.5152380000000 1.0
C      1  0.4946180000000  0.5759030000000  0.5157080000000 1.0
C      1  0.5668630000000  0.4662800000000  0.5147270000000 1.0
C      1  0.4377470000000  0.4565930000000  0.4848230000000 1.0
C      1  0.4952170000000  0.5745560000000  0.4852680000000 1.0
C      1  0.5662960000000  0.4656800000000  0.4844440000000 1.0
C      1  0.5689110000000  0.5168280000000  0.4847990000000 1.0
C      1  0.4853130000000  0.4328240000000  0.4858600000000 1.0
C      1  0.4497960000000  0.5463360000000  0.4864970000000 1.0
C      1  0.5652870000000  0.5199200000000  0.5133030000000 1.0
C      1  0.4833440000000  0.4321870000000  0.5153870000000 1.0
C      1  0.4503170000000  0.5508790000000  0.5151340000000 1.0
C      1  0.4907640000000  0.5269640000000  0.5154300000000 1.0
C      1  0.5274310000000  0.4946880000000  0.5153310000000 1.0
C      1  0.4816930000000  0.4788800000000  0.5155720000000 1.0
C      1  0.4909820000000  0.5265870000000  0.4844770000000 1.0
C      1  0.5275950000000  0.4949550000000  0.4843520000000 1.0
C      1  0.4813480000000  0.4788590000000  0.4846080000000 1.0
C      1  0.4718970000000  0.5053650000000  0.4737080000000 1.0
C      1  0.5186070000000  0.5220140000000  0.4737260000000 1.0
C      1  0.5093800000000  0.4736250000000  0.4736310000000 1.0
C      1  0.4719330000000  0.5053000000000  0.5261160000000 1.0
C      1  0.5186290000000  0.5217380000000  0.5261760000000 1.0
C      1  0.5095950000000  0.4733830000000  0.5261880000000 1.0
C      1  0.5412370000000  0.5396270000000  0.5158040000000 1.0
C      1  0.5157360000000  0.4454290000000  0.5158620000000 1.0
C      1  0.4444210000000  0.5131270000000  0.5154410000000 1.0
C      1  0.5393580000000  0.5415580000000  0.4844800000000 1.0
C      1  0.5151870000000  0.4454500000000  0.4835170000000 1.0
C      1  0.4450460000000  0.5156190000000  0.4840400000000 1.0
C      1  0.4722500000000  0.5042400000000  0.4435140000000 1.0
C      1  0.5173940000000  0.5221130000000  0.4434870000000 1.0
C      1  0.5100730000000  0.4742840000000  0.4434710000000 1.0
C      1  0.4723840000000  0.5044670000000  0.5563560000000 1.0
C      1  0.5175510000000  0.5220400000000  0.5563670000000 1.0
C      1  0.5102860000000  0.4742610000000  0.5563860000000 1.0
C      1  0.4783110000000  0.5527280000000  0.5260060000000 1.0
C      1  0.5558580000000  0.4927020000000  0.5254560000000 1.0
C      1  0.4660670000000  0.4552760000000  0.5261310000000 1.0
C      1  0.4781100000000  0.5519090000000  0.4744190000000 1.0
C      1  0.5557560000000  0.4921160000000  0.4738350000000 1.0
C      1  0.4661000000000  0.4545160000000  0.4743550000000 1.0
END
