TITL C-9256-7861-243 -3.67875806034964e-06 125000 -364.435322516093 0 0 60 (C1) n - 1
REM
REM in /home/bkarasulu/CARBON/AIRSS/Generating-Clusters/EDIP-Nigel-Params/Higher-Symm/Box-15A/Only-C60/SD-CG/HFTN-CG
REM
REM
REM
REM
REM
REM ./C.cell (414f73aa93bd7a1190c7fd0f31ff2f98)
REM
REM compiler GCC version 9.2.1 20190827 (Red Hat 9.2.1-1)
REM options -cpp -mtune=generic -march=x86-64 -g -O0 -fpre-include=/usr/include/finclude/math-vector-fortran.h
REM seed -924242194 -1033478195 1267948568 -610508995 -31068023 637040191 -507909265 -1053339035 -1968654804 -1180043905 -203098797 1527001227 -417400137 935990034 429341977 -267849452 1650610621 263332940 -1923410945 -1345820795 1103836024 1327171115 -610552852 -174381935 -482348961 -1984756059 1763316916 1405263960 76563897 643875211 -1732482580 527985784 861899880
REM
CELL 1.54180   50.00000   50.00000   50.00000   90.00000   90.00000   90.00000
LATT -1
SFAC C  
C      1  0.5615990000000  0.5485570000000  0.4805090000000 1.0
C      1  0.5641760000000  0.5396560000000  0.5455920000000 1.0
C      1  0.5656290000000  0.4748180000000  0.5432290000000 1.0
C      1  0.5597800000000  0.4567900000000  0.4899170000000 1.0
C      1  0.5716620000000  0.4985870000000  0.4476590000000 1.0
C      1  0.5590090000000  0.5476860000000  0.5182560000000 1.0
C      1  0.5713670000000  0.5358280000000  0.4569050000000 1.0
C      1  0.5599210000000  0.4772350000000  0.4633050000000 1.0
C      1  0.5702420000000  0.4484950000000  0.5155940000000 1.0
C      1  0.5604060000000  0.5018790000000  0.5489090000000 1.0
C      1  0.4847350000000  0.5471700000000  0.4608440000000 1.0
C      1  0.4812780000000  0.5493590000000  0.5589500000000 1.0
C      1  0.4811660000000  0.4625200000000  0.5544550000000 1.0
C      1  0.4869970000000  0.4338090000000  0.4998160000000 1.0
C      1  0.4737080000000  0.5027700000000  0.4222120000000 1.0
C      1  0.4861200000000  0.5496590000000  0.5307930000000 1.0
C      1  0.4728840000000  0.5387470000000  0.4361180000000 1.0
C      1  0.4870060000000  0.4844750000000  0.4394600000000 1.0
C      1  0.4721810000000  0.4214320000000  0.5196400000000 1.0
C      1  0.4845690000000  0.4908080000000  0.5593790000000 1.0
C      1  0.5292800000000  0.4224330000000  0.5215870000000 1.0
C      1  0.5154390000000  0.4827840000000  0.4390870000000 1.0
C      1  0.5280140000000  0.5450920000000  0.4377230000000 1.0
C      1  0.5126000000000  0.5603750000000  0.5298920000000 1.0
C      1  0.5134330000000  0.4907810000000  0.5654620000000 1.0
C      1  0.5152980000000  0.4348600000000  0.5011920000000 1.0
C      1  0.5191500000000  0.4631200000000  0.5583220000000 1.0
C      1  0.5194540000000  0.5580970000000  0.5583190000000 1.0
C      1  0.5139420000000  0.5463730000000  0.4616560000000 1.0
C      1  0.5307080000000  0.4977450000000  0.4215350000000 1.0
C      1  0.4714280000000  0.4698550000000  0.4583170000000 1.0
C      1  0.4441240000000  0.5344810000000  0.4321500000000 1.0
C      1  0.4663470000000  0.5543840000000  0.5112920000000 1.0
C      1  0.4603020000000  0.5055940000000  0.5675540000000 1.0
C      1  0.4487390000000  0.4318090000000  0.5313900000000 1.0
C      1  0.4540000000000  0.4531250000000  0.5509010000000 1.0
C      1  0.4570160000000  0.5351570000000  0.5659670000000 1.0
C      1  0.4666140000000  0.5453580000000  0.4834400000000 1.0
C      1  0.4445860000000  0.5070230000000  0.4221750000000 1.0
C      1  0.4722150000000  0.4517330000000  0.4832260000000 1.0
C      1  0.5563150000000  0.5089690000000  0.4248820000000 1.0
C      1  0.5323460000000  0.5526420000000  0.4832960000000 1.0
C      1  0.5396610000000  0.5379810000000  0.5637460000000 1.0
C      1  0.5466010000000  0.4553080000000  0.5525440000000 1.0
C      1  0.5305410000000  0.4521510000000  0.4843610000000 1.0
C      1  0.5333900000000  0.5098150000000  0.5560110000000 1.0
C      1  0.5308780000000  0.5484040000000  0.5118320000000 1.0
C      1  0.5546550000000  0.5369690000000  0.4330690000000 1.0
C      1  0.5305540000000  0.4708170000000  0.4601800000000 1.0
C      1  0.5522350000000  0.4334590000000  0.5337140000000 1.0
C      1  0.4294570000000  0.4941160000000  0.4440200000000 1.0
C      1  0.4379500000000  0.5400890000000  0.4809660000000 1.0
C      1  0.4356750000000  0.5347050000000  0.5447090000000 1.0
C      1  0.4341900000000  0.4723000000000  0.5426310000000 1.0
C      1  0.4423660000000  0.4549370000000  0.4877370000000 1.0
C      1  0.4354080000000  0.4980490000000  0.5544090000000 1.0
C      1  0.4393720000000  0.5459350000000  0.5182520000000 1.0
C      1  0.4280970000000  0.5304600000000  0.4562560000000 1.0
C      1  0.4419960000000  0.4749140000000  0.4612770000000 1.0
C      1  0.4311900000000  0.4475190000000  0.5133760000000 1.0
END
