TITL C-9262-5533-225 -5.91546432222079e-06 125000 -370.842333144035 0 0 60 (C1) n - 1
REM
REM in /home/bkarasulu/CARBON/AIRSS/Generating-Clusters/EDIP-Nigel-Params/Higher-Symm/Box-15A/Only-C60/SD-CG/HFTN-CG
REM
REM
REM
REM
REM
REM ./C.cell (414f73aa93bd7a1190c7fd0f31ff2f98)
REM
REM compiler GCC version 9.2.1 20190827 (Red Hat 9.2.1-1)
REM options -cpp -mtune=generic -march=x86-64 -g -O0 -fpre-include=/usr/include/finclude/math-vector-fortran.h
REM seed 218263143 2135231254 -1338080326 -527058386 -1749013200 1740597425 -1471300632 15300892 1688662674 -960886541 -1665280043 -1903884259 -348910602 -273438605 -1566797494 -924132024 -1900536174 383543246 -298346667 460940710 2100849114 1527405186 -1646268369 824719637 1922718125 -2137937682 846348506 -898974780 630121854 1111374041 676486145 -1756980412 -1593083226
REM
CELL 1.54180   50.00000   50.00000   50.00000   90.00000   90.00000   90.00000
LATT -1
SFAC C  
C      1  0.4726650000000  0.4702210000000  0.5392910000000 1.0
C      1  0.4764430000000  0.4332770000000  0.5088770000000 1.0
C      1  0.4744670000000  0.4451580000000  0.4594260000000 1.0
C      1  0.4678590000000  0.4923920000000  0.4471940000000 1.0
C      1  0.4773590000000  0.5513980000000  0.4641130000000 1.0
C      1  0.4816870000000  0.5687820000000  0.5123680000000 1.0
C      1  0.4749730000000  0.5500990000000  0.5600090000000 1.0
C      1  0.5281390000000  0.5301090000000  0.5563240000000 1.0
C      1  0.5189410000000  0.4790460000000  0.5548240000000 1.0
C      1  0.5266360000000  0.4565310000000  0.5137960000000 1.0
C      1  0.5320420000000  0.4575170000000  0.4629990000000 1.0
C      1  0.5276920000000  0.4996510000000  0.4386710000000 1.0
C      1  0.5346380000000  0.5381950000000  0.4659360000000 1.0
C      1  0.5356600000000  0.5522570000000  0.5140720000000 1.0
C      1  0.5523720000000  0.4725410000000  0.5182530000000 1.0
C      1  0.5556610000000  0.4753850000000  0.4690680000000 1.0
C      1  0.5561970000000  0.4988480000000  0.4496950000000 1.0
C      1  0.5611350000000  0.5245990000000  0.4667470000000 1.0
C      1  0.5591500000000  0.5331220000000  0.5182600000000 1.0
C      1  0.5514230000000  0.5168510000000  0.5438710000000 1.0
C      1  0.5468290000000  0.4868480000000  0.5438940000000 1.0
C      1  0.4291000000000  0.5112240000000  0.5365740000000 1.0
C      1  0.4255700000000  0.4820470000000  0.5275050000000 1.0
C      1  0.4063820000000  0.4759470000000  0.5075140000000 1.0
C      1  0.4221850000000  0.4787450000000  0.4833440000000 1.0
C      1  0.4176460000000  0.5059210000000  0.4714110000000 1.0
C      1  0.4072260000000  0.5220730000000  0.4927800000000 1.0
C      1  0.4254670000000  0.5300210000000  0.5134740000000 1.0
C      1  0.4505050000000  0.5405420000000  0.4723330000000 1.0
C      1  0.4520140000000  0.5276070000000  0.4995060000000 1.0
C      1  0.4563100000000  0.5170220000000  0.5512050000000 1.0
C      1  0.4522310000000  0.4741100000000  0.5175720000000 1.0
C      1  0.4516970000000  0.4485870000000  0.5020830000000 1.0
C      1  0.4490310000000  0.4539030000000  0.4736990000000 1.0
C      1  0.4406630000000  0.5174230000000  0.4569410000000 1.0
C      1  0.4920450000000  0.5607220000000  0.5385570000000 1.0
C      1  0.4844600000000  0.5274730000000  0.5763850000000 1.0
C      1  0.4856750000000  0.4434060000000  0.5365340000000 1.0
C      1  0.4937110000000  0.4319640000000  0.4829700000000 1.0
C      1  0.4857050000000  0.4684040000000  0.4426940000000 1.0
C      1  0.4898550000000  0.5305950000000  0.4483290000000 1.0
C      1  0.4949670000000  0.5648470000000  0.4859180000000 1.0
C      1  0.5126680000000  0.4766960000000  0.4513990000000 1.0
C      1  0.5178440000000  0.5272880000000  0.4448990000000 1.0
C      1  0.5233540000000  0.5549210000000  0.4873370000000 1.0
C      1  0.5170730000000  0.5470620000000  0.5359040000000 1.0
C      1  0.5092400000000  0.5131720000000  0.5700950000000 1.0
C      1  0.5151390000000  0.4477620000000  0.5409240000000 1.0
C      1  0.5227220000000  0.4413370000000  0.4867930000000 1.0
C      1  0.4954500000000  0.4878960000000  0.5346960000000 1.0
C      1  0.5070600000000  0.4790650000000  0.5078980000000 1.0
C      1  0.4870500000000  0.4697270000000  0.4868230000000 1.0
C      1  0.4771390000000  0.4959310000000  0.4762840000000 1.0
C      1  0.4989690000000  0.5188450000000  0.4838880000000 1.0
C      1  0.4808900000000  0.5305670000000  0.5085890000000 1.0
C      1  0.4846580000000  0.5168930000000  0.5358480000000 1.0
C      1  0.4541790000000  0.4976810000000  0.4944940000000 1.0
C      1  0.5212500000000  0.5012050000000  0.4962300000000 1.0
C      1  0.5504390000000  0.4913020000000  0.4947290000000 1.0
C      1  0.5687270000000  0.5156310000000  0.4951300000000 1.0
END
