TITL C-9265-7156-272 -1.37520273791365e-07 125000 -360.482075090173 0 0 60 (C1) n - 1
REM
REM in /home/bkarasulu/CARBON/AIRSS/Generating-Clusters/EDIP-Nigel-Params/Higher-Symm/Box-15A/Only-C60/SD-CG/HFTN-CG
REM
REM
REM
REM
REM
REM ./C.cell (414f73aa93bd7a1190c7fd0f31ff2f98)
REM
REM compiler GCC version 9.2.1 20190827 (Red Hat 9.2.1-1)
REM options -cpp -mtune=generic -march=x86-64 -g -O0 -fpre-include=/usr/include/finclude/math-vector-fortran.h
REM seed 265296949 -1924643635 943363683 -748477470 -232025080 -754263484 -911861486 79186929 -1387394199 -85676628 590017825 2131611271 -1462453256 -1709694640 -1062777532 -516028621 -1110920593 263483775 139589018 -246677236 422100894 -1604129293 -642915413 -1946731862 -1285569686 -1256049667 775137527 -1910800511 1014601853 -1082123618 1665955533 1815944583 435195916
REM
CELL 1.54180   50.00000   50.00000   50.00000   90.00000   90.00000   90.00000
LATT -1
SFAC C  
C      1  0.5672090000000  0.5225470000000  0.5112450000000 1.0
C      1  0.4552820000000  0.5393390000000  0.5082720000000 1.0
C      1  0.4915200000000  0.4254980000000  0.5098550000000 1.0
C      1  0.5708370000000  0.5315160000000  0.4844720000000 1.0
C      1  0.4389580000000  0.5426780000000  0.4831130000000 1.0
C      1  0.4947490000000  0.4183720000000  0.4824390000000 1.0
C      1  0.5710240000000  0.4691510000000  0.5161480000000 1.0
C      1  0.4373240000000  0.4590050000000  0.5153850000000 1.0
C      1  0.4948680000000  0.5799130000000  0.5155690000000 1.0
C      1  0.5671610000000  0.4777760000000  0.4892840000000 1.0
C      1  0.4527720000000  0.4554140000000  0.4908050000000 1.0
C      1  0.4927300000000  0.5762830000000  0.4874590000000 1.0
C      1  0.4487190000000  0.4268200000000  0.4866390000000 1.0
C      1  0.5889820000000  0.4866940000000  0.4717800000000 1.0
C      1  0.4686690000000  0.5846610000000  0.4729860000000 1.0
C      1  0.4402960000000  0.4290930000000  0.5241210000000 1.0
C      1  0.5906440000000  0.4830790000000  0.5328740000000 1.0
C      1  0.4698490000000  0.5864710000000  0.5282700000000 1.0
C      1  0.4420270000000  0.5743890000000  0.4847080000000 1.0
C      1  0.5896840000000  0.5175040000000  0.4670080000000 1.0
C      1  0.4688440000000  0.4135030000000  0.4699210000000 1.0
C      1  0.4466660000000  0.5694910000000  0.5173160000000 1.0
C      1  0.5891730000000  0.5139580000000  0.5287820000000 1.0
C      1  0.4685240000000  0.4155870000000  0.5250070000000 1.0
C      1  0.4976380000000  0.5567230000000  0.5457100000000 1.0
C      1  0.4487280000000  0.4689340000000  0.5417170000000 1.0
C      1  0.5481720000000  0.4719320000000  0.5464990000000 1.0
C      1  0.4992730000000  0.5582850000000  0.4543910000000 1.0
C      1  0.4498350000000  0.4707960000000  0.4656840000000 1.0
C      1  0.5474560000000  0.4723420000000  0.4572180000000 1.0
C      1  0.4990030000000  0.4421930000000  0.5434500000000 1.0
C      1  0.4502220000000  0.5292670000000  0.5355800000000 1.0
C      1  0.5473070000000  0.5273730000000  0.5432950000000 1.0
C      1  0.4978730000000  0.4428480000000  0.4537200000000 1.0
C      1  0.4494490000000  0.5319760000000  0.4570360000000 1.0
C      1  0.5485150000000  0.5277610000000  0.4538680000000 1.0
C      1  0.4735430000000  0.4868390000000  0.4582830000000 1.0
C      1  0.5227480000000  0.4860210000000  0.4535800000000 1.0
C      1  0.4986070000000  0.5295350000000  0.4531080000000 1.0
C      1  0.4740100000000  0.4845310000000  0.5391730000000 1.0
C      1  0.5228700000000  0.4852820000000  0.5454820000000 1.0
C      1  0.4981640000000  0.5280750000000  0.5438050000000 1.0
C      1  0.4741040000000  0.5158670000000  0.4605340000000 1.0
C      1  0.5230860000000  0.5145970000000  0.4549650000000 1.0
C      1  0.4982840000000  0.4715920000000  0.4568750000000 1.0
C      1  0.4733850000000  0.5130900000000  0.5447230000000 1.0
C      1  0.5226290000000  0.5137700000000  0.5472450000000 1.0
C      1  0.4982180000000  0.4705830000000  0.5467450000000 1.0
C      1  0.5722290000000  0.5166650000000  0.5547860000000 1.0
C      1  0.4488890000000  0.5529050000000  0.5526630000000 1.0
C      1  0.4752090000000  0.4268790000000  0.5511430000000 1.0
C      1  0.5720910000000  0.5144330000000  0.4418790000000 1.0
C      1  0.4541400000000  0.5541770000000  0.4398550000000 1.0
C      1  0.4720290000000  0.4307200000000  0.4461630000000 1.0
C      1  0.5722550000000  0.4850960000000  0.5575760000000 1.0
C      1  0.4529190000000  0.4444080000000  0.5576420000000 1.0
C      1  0.4724870000000  0.5706100000000  0.5530440000000 1.0
C      1  0.5724290000000  0.4829560000000  0.4456730000000 1.0
C      1  0.4511110000000  0.4499020000000  0.4466000000000 1.0
C      1  0.4745830000000  0.5722950000000  0.4468300000000 1.0
END
