TITL C-9269-7444-119 1.66235822344502e-07 125000 -366.97284342143 0 0 60 (C1) n - 1
REM
REM in /home/bkarasulu/CARBON/AIRSS/Generating-Clusters/EDIP-Nigel-Params/Higher-Symm/Box-15A/Only-C60/SD-CG/HFTN-CG
REM
REM
REM
REM
REM
REM ./C.cell (414f73aa93bd7a1190c7fd0f31ff2f98)
REM
REM compiler GCC version 9.2.1 20190827 (Red Hat 9.2.1-1)
REM options -cpp -mtune=generic -march=x86-64 -g -O0 -fpre-include=/usr/include/finclude/math-vector-fortran.h
REM seed 750787045 -1070280438 219053012 498662919 387449744 988442989 360659701 -47554031 -1841750659 679773256 -1648283547 -1299104410 -976618619 -22487038 1905952176 -1951385465 49901915 -1105148550 1882284435 -839534603 1172554522 1539445276 1605348293 -458860918 -1531390367 1130826759 -1251945606 1800412589 1872106869 -472597004 -1950190359 991897150 -1505962141
REM
CELL 1.54180   50.00000   50.00000   50.00000   90.00000   90.00000   90.00000
LATT -1
SFAC C  
C      1  0.5565540000000  0.5011160000000  0.4712370000000 1.0
C      1  0.5554170000000  0.5223300000000  0.5174080000000 1.0
C      1  0.5597540000000  0.4712840000000  0.5119240000000 1.0
C      1  0.4973140000000  0.4990420000000  0.5774620000000 1.0
C      1  0.4955140000000  0.4348230000000  0.4683850000000 1.0
C      1  0.4980470000000  0.5654580000000  0.4590880000000 1.0
C      1  0.4611320000000  0.4789550000000  0.4460260000000 1.0
C      1  0.4621650000000  0.5542890000000  0.5056410000000 1.0
C      1  0.4754540000000  0.4727860000000  0.5495790000000 1.0
C      1  0.5399220000000  0.5445830000000  0.5314540000000 1.0
C      1  0.5437360000000  0.4483280000000  0.5253590000000 1.0
C      1  0.5412070000000  0.5026290000000  0.4456970000000 1.0
C      1  0.4815230000000  0.5550320000000  0.5496920000000 1.0
C      1  0.4835980000000  0.4308290000000  0.5257370000000 1.0
C      1  0.4829250000000  0.5148120000000  0.4217830000000 1.0
C      1  0.5217490000000  0.5372060000000  0.5534910000000 1.0
C      1  0.5237240000000  0.4352820000000  0.5074140000000 1.0
C      1  0.5210540000000  0.5235140000000  0.4423130000000 1.0
C      1  0.5286290000000  0.5617960000000  0.5088360000000 1.0
C      1  0.5302660000000  0.4611050000000  0.5498160000000 1.0
C      1  0.5319580000000  0.4765030000000  0.4378100000000 1.0
C      1  0.5083630000000  0.5260690000000  0.4173460000000 1.0
C      1  0.5052170000000  0.5569450000000  0.5651880000000 1.0
C      1  0.5072240000000  0.4160430000000  0.5200520000000 1.0
C      1  0.4692130000000  0.5073980000000  0.5669900000000 1.0
C      1  0.4673930000000  0.4355230000000  0.4756310000000 1.0
C      1  0.4705580000000  0.5559110000000  0.4544210000000 1.0
C      1  0.5045110000000  0.5805640000000  0.5090970000000 1.0
C      1  0.5080710000000  0.4493200000000  0.5676730000000 1.0
C      1  0.5061110000000  0.4669030000000  0.4288990000000 1.0
C      1  0.5587650000000  0.5241100000000  0.4884040000000 1.0
C      1  0.5529490000000  0.4952600000000  0.5285360000000 1.0
C      1  0.5565060000000  0.4750820000000  0.4834410000000 1.0
C      1  0.4514440000000  0.4846670000000  0.5607840000000 1.0
C      1  0.4568800000000  0.4531990000000  0.4565270000000 1.0
C      1  0.4582460000000  0.5619530000000  0.4788720000000 1.0
C      1  0.4994380000000  0.5044730000000  0.4756840000000 1.0
C      1  0.4992280000000  0.5175520000000  0.5037130000000 1.0
C      1  0.5061070000000  0.4884420000000  0.5130190000000 1.0
C      1  0.4690030000000  0.5029710000000  0.4634020000000 1.0
C      1  0.4688970000000  0.5262330000000  0.5142130000000 1.0
C      1  0.4797100000000  0.4742440000000  0.5204180000000 1.0
C      1  0.4797240000000  0.5699540000000  0.5236200000000 1.0
C      1  0.4821060000000  0.4436630000000  0.5527740000000 1.0
C      1  0.4817820000000  0.4845600000000  0.4250250000000 1.0
C      1  0.5191190000000  0.5088610000000  0.5603630000000 1.0
C      1  0.5094830000000  0.4521540000000  0.4876110000000 1.0
C      1  0.5167890000000  0.5432910000000  0.4628730000000 1.0
C      1  0.4641870000000  0.4423720000000  0.5045590000000 1.0
C      1  0.4650710000000  0.5273870000000  0.4440280000000 1.0
C      1  0.4693320000000  0.5284620000000  0.5449320000000 1.0
C      1  0.4551640000000  0.4801780000000  0.5057140000000 1.0
C      1  0.4450620000000  0.5147830000000  0.4752430000000 1.0
C      1  0.4485120000000  0.5077100000000  0.5026010000000 1.0
C      1  0.5016630000000  0.4716700000000  0.5844690000000 1.0
C      1  0.4993440000000  0.4428560000000  0.4415650000000 1.0
C      1  0.4985450000000  0.5834910000000  0.4812720000000 1.0
C      1  0.5261980000000  0.4890870000000  0.5391270000000 1.0
C      1  0.5192560000000  0.4778270000000  0.4747120000000 1.0
C      1  0.5231880000000  0.5371280000000  0.4910470000000 1.0
END
