TITL C-9265-7156-197 -0.000164342160634235 125000 -352.366956934434 0 0 60 (C1) n - 1
REM
REM in /home/bkarasulu/CARBON/AIRSS/Generating-Clusters/EDIP-Nigel-Params/Higher-Symm/Box-15A/Only-C60/SD-CG/HFTN-CG
REM
REM
REM
REM
REM
REM ./C.cell (414f73aa93bd7a1190c7fd0f31ff2f98)
REM
REM compiler GCC version 9.2.1 20190827 (Red Hat 9.2.1-1)
REM options -cpp -mtune=generic -march=x86-64 -g -O0 -fpre-include=/usr/include/finclude/math-vector-fortran.h
REM seed 1586293148 1246296271 -522388305 2024372809 667795562 1883972729 -1953406470 -25909359 -1354191510 23163125 38067303 -280845935 -1545244828 -842295102 56505375 55212765 -343975067 -1986590990 -273505106 1259940752 -82990077 -1950136703 460683513 -16106205 -1021927932 -27174666 1058090410 -174978379 747995981 1892211116 -169208690 1876346598 -360249259
REM
CELL 1.54180   50.00000   50.00000   50.00000   90.00000   90.00000   90.00000
LATT -1
SFAC C  
C      1  0.5213930000000  0.5090040000000  0.5248550000000 1.0
C      1  0.5179280000000  0.4798440000000  0.5104530000000 1.0
C      1  0.4848050000000  0.4847370000000  0.5276880000000 1.0
C      1  0.4909700000000  0.5141370000000  0.5290660000000 1.0
C      1  0.5390490000000  0.4570400000000  0.5080700000000 1.0
C      1  0.4654520000000  0.4733250000000  0.5077740000000 1.0
C      1  0.4761330000000  0.5300770000000  0.5081550000000 1.0
C      1  0.5345800000000  0.5276520000000  0.5049220000000 1.0
C      1  0.5249400000000  0.4702160000000  0.5551470000000 1.0
C      1  0.4652400000000  0.4717160000000  0.5580760000000 1.0
C      1  0.4755880000000  0.5308210000000  0.5592470000000 1.0
C      1  0.5329730000000  0.5260290000000  0.5575650000000 1.0
C      1  0.4257860000000  0.5250620000000  0.5033370000000 1.0
C      1  0.5197970000000  0.5757670000000  0.5016540000000 1.0
C      1  0.5820710000000  0.4790090000000  0.5080000000000 1.0
C      1  0.4781480000000  0.4247850000000  0.5022140000000 1.0
C      1  0.4306480000000  0.4807820000000  0.5211450000000 1.0
C      1  0.4775040000000  0.5656590000000  0.5222410000000 1.0
C      1  0.5678500000000  0.5220350000000  0.5231740000000 1.0
C      1  0.5217900000000  0.4365990000000  0.5205240000000 1.0
C      1  0.4930370000000  0.5691830000000  0.4978040000000 1.0
C      1  0.5716440000000  0.5040240000000  0.5009830000000 1.0
C      1  0.5057330000000  0.4254010000000  0.4977680000000 1.0
C      1  0.4302180000000  0.4980600000000  0.4979910000000 1.0
C      1  0.5005230000000  0.5216550000000  0.4384010000000 1.0
C      1  0.5215200000000  0.4970670000000  0.4405130000000 1.0
C      1  0.4978950000000  0.4773940000000  0.4405950000000 1.0
C      1  0.4772260000000  0.5008730000000  0.4396850000000 1.0
C      1  0.5624380000000  0.4668140000000  0.5236810000000 1.0
C      1  0.4652360000000  0.4439320000000  0.5177860000000 1.0
C      1  0.4477150000000  0.5328970000000  0.5191610000000 1.0
C      1  0.5304150000000  0.5547860000000  0.5168580000000 1.0
C      1  0.5559870000000  0.5372940000000  0.4682520000000 1.0
C      1  0.5413240000000  0.4502220000000  0.4784970000000 1.0
C      1  0.4408560000000  0.4627230000000  0.4661700000000 1.0
C      1  0.4582940000000  0.5529090000000  0.4669800000000 1.0
C      1  0.5199730000000  0.5492170000000  0.5441190000000 1.0
C      1  0.5495010000000  0.4819760000000  0.5457540000000 1.0
C      1  0.4769370000000  0.4465140000000  0.5461210000000 1.0
C      1  0.4505630000000  0.5203770000000  0.5463130000000 1.0
C      1  0.4900050000000  0.5543490000000  0.5470150000000 1.0
C      1  0.5573970000000  0.5113990000000  0.5489390000000 1.0
C      1  0.5079670000000  0.4505950000000  0.5426330000000 1.0
C      1  0.4449220000000  0.4900410000000  0.5455440000000 1.0
C      1  0.5177160000000  0.5185560000000  0.4788350000000 1.0
C      1  0.5107910000000  0.4865510000000  0.4820390000000 1.0
C      1  0.4782640000000  0.4822480000000  0.4800430000000 1.0
C      1  0.4819920000000  0.5176200000000  0.4802970000000 1.0
C      1  0.5609840000000  0.5106510000000  0.4740070000000 1.0
C      1  0.5150670000000  0.4381320000000  0.4721650000000 1.0
C      1  0.4360070000000  0.4896250000000  0.4703530000000 1.0
C      1  0.4846360000000  0.5605390000000  0.4707300000000 1.0
C      1  0.4400930000000  0.4382490000000  0.4585080000000 1.0
C      1  0.4349830000000  0.5511010000000  0.4562650000000 1.0
C      1  0.5570120000000  0.5607760000000  0.4578220000000 1.0
C      1  0.5552880000000  0.4637940000000  0.4584370000000 1.0
C      1  0.4945030000000  0.4543930000000  0.4588570000000 1.0
C      1  0.4534210000000  0.5078930000000  0.4559750000000 1.0
C      1  0.5044010000000  0.5458290000000  0.4553260000000 1.0
C      1  0.5448740000000  0.4900440000000  0.4594710000000 1.0
END
