TITL C-9268-6400-33 -8.52118253205787e-08 125000 -369.708688179095 0 0 60 (C1) n - 1
REM
REM in /home/bkarasulu/CARBON/AIRSS/Generating-Clusters/EDIP-Nigel-Params/Higher-Symm/Box-15A/Only-C60/SD-CG/HFTN-CG
REM
REM
REM
REM
REM
REM ./C.cell (414f73aa93bd7a1190c7fd0f31ff2f98)
REM
REM compiler GCC version 9.2.1 20190827 (Red Hat 9.2.1-1)
REM options -cpp -mtune=generic -march=x86-64 -g -O0 -fpre-include=/usr/include/finclude/math-vector-fortran.h
REM seed 955807582 110851323 104505701 -1011543334 152015038 -391935456 2062016895 1276679611 1640200487 -1552856567 1431259949 2059609747 -1292777047 443297564 792963860 -678356130 439020317 1603904389 -1237427288 -1551130132 703641602 -16774428 1836565478 166881924 189796834 1447586635 1716327820 1401941501 296186612 -2136611631 -1027977220 -1359055981 1503422121
REM
CELL 1.54180   50.00000   50.00000   50.00000   90.00000   90.00000   90.00000
LATT -1
SFAC C  
C      1  0.4726430000000  0.5625240000000  0.4472160000000 1.0
C      1  0.5532320000000  0.4665840000000  0.4878010000000 1.0
C      1  0.4427240000000  0.4772520000000  0.5502430000000 1.0
C      1  0.5255990000000  0.4474030000000  0.4385780000000 1.0
C      1  0.4865440000000  0.4536210000000  0.5343050000000 1.0
C      1  0.5195810000000  0.5593820000000  0.5378950000000 1.0
C      1  0.4451060000000  0.5622260000000  0.4725190000000 1.0
C      1  0.5658270000000  0.5489190000000  0.5249080000000 1.0
C      1  0.4436760000000  0.4668830000000  0.5128080000000 1.0
C      1  0.5345060000000  0.5125020000000  0.5514710000000 1.0
C      1  0.4577850000000  0.5152810000000  0.4432290000000 1.0
C      1  0.5517970000000  0.4745330000000  0.4385940000000 1.0
C      1  0.4776680000000  0.5629420000000  0.5526930000000 1.0
C      1  0.5581000000000  0.4384230000000  0.5247020000000 1.0
C      1  0.4367310000000  0.4748270000000  0.4410200000000 1.0
C      1  0.5223350000000  0.4415020000000  0.5625290000000 1.0
C      1  0.4840010000000  0.4443510000000  0.4597770000000 1.0
C      1  0.5075340000000  0.5503460000000  0.4765580000000 1.0
C      1  0.4485680000000  0.5398910000000  0.5132880000000 1.0
C      1  0.5515220000000  0.5285120000000  0.4878510000000 1.0
C      1  0.4473730000000  0.4417670000000  0.4729020000000 1.0
C      1  0.5242420000000  0.5100470000000  0.4515750000000 1.0
C      1  0.4637360000000  0.5172260000000  0.5560750000000 1.0
C      1  0.5624260000000  0.4744890000000  0.5629310000000 1.0
C      1  0.4849590000000  0.4722490000000  0.4455600000000 1.0
C      1  0.4717170000000  0.4389860000000  0.4881010000000 1.0
C      1  0.4314490000000  0.4863860000000  0.4665550000000 1.0
C      1  0.5058020000000  0.5320080000000  0.4542250000000 1.0
C      1  0.4867000000000  0.5362970000000  0.5607890000000 1.0
C      1  0.5141890000000  0.4683310000000  0.5690950000000 1.0
C      1  0.5328400000000  0.5498340000000  0.4913160000000 1.0
C      1  0.4656490000000  0.5639940000000  0.5160660000000 1.0
C      1  0.5316830000000  0.4356100000000  0.5141590000000 1.0
C      1  0.5491030000000  0.5110470000000  0.4655380000000 1.0
C      1  0.4536520000000  0.5163590000000  0.5286040000000 1.0
C      1  0.5701940000000  0.4842070000000  0.5371890000000 1.0
C      1  0.4903480000000  0.4754570000000  0.5532490000000 1.0
C      1  0.4718600000000  0.4580310000000  0.5099530000000 1.0
C      1  0.4362930000000  0.4935280000000  0.5267840000000 1.0
C      1  0.5132630000000  0.5324550000000  0.5476520000000 1.0
C      1  0.4808620000000  0.5353620000000  0.4386510000000 1.0
C      1  0.5086580000000  0.4692890000000  0.4282540000000 1.0
C      1  0.5406450000000  0.5620730000000  0.5172690000000 1.0
C      1  0.4647780000000  0.5775150000000  0.4891170000000 1.0
C      1  0.5288960000000  0.4488680000000  0.4875320000000 1.0
C      1  0.5597030000000  0.5125210000000  0.5356500000000 1.0
C      1  0.4466680000000  0.5119220000000  0.4707790000000 1.0
C      1  0.5622500000000  0.4844250000000  0.4646310000000 1.0
C      1  0.5284140000000  0.4908220000000  0.4302330000000 1.0
C      1  0.4964260000000  0.5759690000000  0.5360340000000 1.0
C      1  0.5739650000000  0.5305190000000  0.5047680000000 1.0
C      1  0.4390360000000  0.5365820000000  0.4856410000000 1.0
C      1  0.5659700000000  0.4639350000000  0.5149870000000 1.0
C      1  0.4661680000000  0.4882700000000  0.5643680000000 1.0
C      1  0.4318480000000  0.4632960000000  0.4851280000000 1.0
C      1  0.5143280000000  0.4378700000000  0.4636730000000 1.0
C      1  0.5368250000000  0.4869590000000  0.5661830000000 1.0
C      1  0.4882410000000  0.5720860000000  0.4709460000000 1.0
C      1  0.5118380000000  0.4388320000000  0.5360540000000 1.0
C      1  0.4615250000000  0.4866730000000  0.4338020000000 1.0
END
