TITL C-9264-7143-246 1.60773666131521e-07 125000 -374.845821075903 0 0 60 (D3) n - 1
REM
REM in /home/bkarasulu/CARBON/AIRSS/Generating-Clusters/EDIP-Nigel-Params/Higher-Symm/Box-15A/Only-C60/SD-CG/HFTN-CG
REM
REM
REM
REM
REM
REM ./C.cell (414f73aa93bd7a1190c7fd0f31ff2f98)
REM
REM compiler GCC version 9.2.1 20190827 (Red Hat 9.2.1-1)
REM options -cpp -mtune=generic -march=x86-64 -g -O0 -fpre-include=/usr/include/finclude/math-vector-fortran.h
REM seed 1360906187 -299479588 1676640485 1705120293 334244374 1383022149 -1465879730 -600854892 1481880968 -1955776468 -342995806 -66047588 -1591218651 -1123638005 851712559 -61786735 -771344975 -1720814434 1493067450 -460237266 1336948872 1633609353 1813369298 1680568335 142817416 744730647 295142076 333401029 1112772821 755505063 -1799201996 360756664 -2071628118
REM
CELL 1.54180   50.00000   50.00000   50.00000   90.00000   90.00000   90.00000
LATT -1
SFAC C  
C      1  0.5155730000000  0.5165040000000  0.4757920000000 1.0
C      1  0.5155880000000  0.4707930000000  0.4977950000000 1.0
C      1  0.5156080000000  0.5127040000000  0.5263800000000 1.0
C      1  0.4844270000000  0.5165030000000  0.5242090000000 1.0
C      1  0.4844120000000  0.4707930000000  0.5022040000000 1.0
C      1  0.4843920000000  0.5127050000000  0.4736200000000 1.0
C      1  0.4458310000000  0.5342240000000  0.4916740000000 1.0
C      1  0.4458180000000  0.4756450000000  0.4745820000000 1.0
C      1  0.4458600000000  0.4901320000000  0.5338590000000 1.0
C      1  0.5541700000000  0.5342230000000  0.5083280000000 1.0
C      1  0.5541810000000  0.4756430000000  0.5254170000000 1.0
C      1  0.5541400000000  0.4901330000000  0.4661410000000 1.0
C      1  0.4686190000000  0.4446990000000  0.5041100000000 1.0
C      1  0.4686480000000  0.5311910000000  0.5458700000000 1.0
C      1  0.4685810000000  0.5241110000000  0.4500860000000 1.0
C      1  0.5313810000000  0.4446990000000  0.4958880000000 1.0
C      1  0.5313520000000  0.5311920000000  0.4541310000000 1.0
C      1  0.5314190000000  0.5241080000000  0.5499150000000 1.0
C      1  0.5112330000000  0.4792650000000  0.4464800000000 1.0
C      1  0.5113020000000  0.4640250000000  0.5447050000000 1.0
C      1  0.5112770000000  0.5567100000000  0.5087910000000 1.0
C      1  0.4887670000000  0.4792630000000  0.5535190000000 1.0
C      1  0.4886980000000  0.4640270000000  0.4552940000000 1.0
C      1  0.4887240000000  0.5567110000000  0.4912110000000 1.0
C      1  0.4404450000000  0.5193010000000  0.5374720000000 1.0
C      1  0.4403940000000  0.5227650000000  0.4646110000000 1.0
C      1  0.4404170000000  0.4579340000000  0.4980420000000 1.0
C      1  0.5595550000000  0.5193020000000  0.4625290000000 1.0
C      1  0.5596060000000  0.5227630000000  0.5353890000000 1.0
C      1  0.5595830000000  0.4579340000000  0.5019560000000 1.0
C      1  0.5708110000000  0.5292150000000  0.4863080000000 1.0
C      1  0.5708070000000  0.4735770000000  0.4814710000000 1.0
C      1  0.5708420000000  0.4972070000000  0.5320730000000 1.0
C      1  0.4291900000000  0.5292150000000  0.5136930000000 1.0
C      1  0.4291930000000  0.4735770000000  0.5185280000000 1.0
C      1  0.4291580000000  0.4972090000000  0.4679270000000 1.0
C      1  0.5248470000000  0.4880770000000  0.4720100000000 1.0
C      1  0.5248830000000  0.4817360000000  0.5242940000000 1.0
C      1  0.5248690000000  0.5301860000000  0.5036430000000 1.0
C      1  0.4751530000000  0.4880760000000  0.5279890000000 1.0
C      1  0.4751170000000  0.4817380000000  0.4757050000000 1.0
C      1  0.4751310000000  0.5301870000000  0.4963580000000 1.0
C      1  0.4969320000000  0.5605460000000  0.4633410000000 1.0
C      1  0.4969330000000  0.4379780000000  0.4658980000000 1.0
C      1  0.4970070000000  0.5014760000000  0.5707670000000 1.0
C      1  0.5030690000000  0.5605440000000  0.5366610000000 1.0
C      1  0.5030660000000  0.4379770000000  0.5340990000000 1.0
C      1  0.5029930000000  0.5014790000000  0.4292330000000 1.0
C      1  0.5222940000000  0.5510630000000  0.5546500000000 1.0
C      1  0.5222060000000  0.5218100000000  0.4284300000000 1.0
C      1  0.5222670000000  0.4271270000000  0.5168740000000 1.0
C      1  0.4777060000000  0.5510660000000  0.4453520000000 1.0
C      1  0.4777950000000  0.5218070000000  0.5715710000000 1.0
C      1  0.4777320000000  0.4271270000000  0.4831230000000 1.0
C      1  0.4750960000000  0.5069090000000  0.4275520000000 1.0
C      1  0.4751670000000  0.4337890000000  0.5302670000000 1.0
C      1  0.4751760000000  0.5593030000000  0.5422330000000 1.0
C      1  0.5249040000000  0.5069060000000  0.5724480000000 1.0
C      1  0.5248320000000  0.4337900000000  0.4697300000000 1.0
C      1  0.5248240000000  0.5593040000000  0.4577690000000 1.0
END
