TITL C-9270-2362-104 -1.35645346625351e-06 125000 -363.596892682797 0 0 60 (C1) n - 1
REM
REM in /home/bkarasulu/CARBON/AIRSS/Generating-Clusters/EDIP-Nigel-Params/Higher-Symm/Box-15A/Only-C60/SD-CG/HFTN-CG
REM
REM
REM
REM
REM
REM ./C.cell (414f73aa93bd7a1190c7fd0f31ff2f98)
REM
REM compiler GCC version 9.2.1 20190827 (Red Hat 9.2.1-1)
REM options -cpp -mtune=generic -march=x86-64 -g -O0 -fpre-include=/usr/include/finclude/math-vector-fortran.h
REM seed -1343817220 -1131763443 1226396968 -1048810288 -587583877 1453321299 -2110222313 -1341618871 1232903417 670149999 672946289 1744863868 1193726019 924478648 291936814 552573249 -1095421937 786176436 -1300429747 -2105744102 -1631873319 260243672 -1978967991 -479401034 -1577325468 -2045060661 207440276 2074798706 -77305923 -134651212 -1049003681 -1967206757 990419093
REM
CELL 1.54180   50.00000   50.00000   50.00000   90.00000   90.00000   90.00000
LATT -1
SFAC C  
C      1  0.4826430000000  0.5114340000000  0.5689000000000 1.0
C      1  0.4822660000000  0.5692410000000  0.5105420000000 1.0
C      1  0.4821370000000  0.5316800000000  0.4371900000000 1.0
C      1  0.4805420000000  0.4499030000000  0.4496680000000 1.0
C      1  0.4809820000000  0.4370610000000  0.5322510000000 1.0
C      1  0.5602630000000  0.4840910000000  0.5494540000000 1.0
C      1  0.5579820000000  0.5436800000000  0.5319130000000 1.0
C      1  0.5584790000000  0.5429530000000  0.4693810000000 1.0
C      1  0.5581010000000  0.4835560000000  0.4501390000000 1.0
C      1  0.5588080000000  0.4479690000000  0.5004060000000 1.0
C      1  0.5083280000000  0.4330220000000  0.5166600000000 1.0
C      1  0.5091310000000  0.4956810000000  0.5685380000000 1.0
C      1  0.5086870000000  0.5635920000000  0.5258240000000 1.0
C      1  0.5087700000000  0.5444190000000  0.4473340000000 1.0
C      1  0.5079710000000  0.4633080000000  0.4405470000000 1.0
C      1  0.5158530000000  0.4679410000000  0.4694740000000 1.0
C      1  0.5160450000000  0.4619500000000  0.5214950000000 1.0
C      1  0.5170600000000  0.5019930000000  0.5407880000000 1.0
C      1  0.5168680000000  0.5414240000000  0.5076090000000 1.0
C      1  0.5167230000000  0.5198710000000  0.4625550000000 1.0
C      1  0.4675960000000  0.4699380000000  0.4692210000000 1.0
C      1  0.4674050000000  0.4614000000000  0.5190300000000 1.0
C      1  0.4682950000000  0.5060800000000  0.5422940000000 1.0
C      1  0.4685910000000  0.5419920000000  0.5070400000000 1.0
C      1  0.4683950000000  0.5197460000000  0.4620020000000 1.0
C      1  0.4927430000000  0.5243480000000  0.5039010000000 1.0
C      1  0.4927030000000  0.5110160000000  0.4775030000000 1.0
C      1  0.4923900000000  0.4815630000000  0.4819860000000 1.0
C      1  0.4919410000000  0.4770760000000  0.5113220000000 1.0
C      1  0.4922160000000  0.5031770000000  0.5244850000000 1.0
C      1  0.4527130000000  0.4939520000000  0.4577760000000 1.0
C      1  0.4521740000000  0.4580000000000  0.4927480000000 1.0
C      1  0.4525200000000  0.4802400000000  0.5378520000000 1.0
C      1  0.4532320000000  0.5298090000000  0.5304190000000 1.0
C      1  0.4532830000000  0.5382030000000  0.4810160000000 1.0
C      1  0.5143660000000  0.4652540000000  0.5656850000000 1.0
C      1  0.5129120000000  0.5531470000000  0.5544700000000 1.0
C      1  0.5134070000000  0.5682460000000  0.4664840000000 1.0
C      1  0.5133590000000  0.4894610000000  0.4251050000000 1.0
C      1  0.5137980000000  0.4272340000000  0.4867840000000 1.0
C      1  0.4279550000000  0.4883590000000  0.5229330000000 1.0
C      1  0.4283560000000  0.5184540000000  0.5184970000000 1.0
C      1  0.4283810000000  0.5235650000000  0.4884840000000 1.0
C      1  0.4280410000000  0.4966400000000  0.4743580000000 1.0
C      1  0.4277550000000  0.4748770000000  0.4956290000000 1.0
C      1  0.4926880000000  0.4479750000000  0.5563980000000 1.0
C      1  0.4914260000000  0.5386590000000  0.5670580000000 1.0
C      1  0.4917970000000  0.5758140000000  0.4842040000000 1.0
C      1  0.4918570000000  0.5087450000000  0.4227830000000 1.0
C      1  0.4923930000000  0.4302920000000  0.4673060000000 1.0
C      1  0.5409580000000  0.4985560000000  0.4324680000000 1.0
C      1  0.5422390000000  0.4347560000000  0.4809500000000 1.0
C      1  0.5429280000000  0.4617970000000  0.5562820000000 1.0
C      1  0.5402740000000  0.5413160000000  0.5546530000000 1.0
C      1  0.5407360000000  0.5640970000000  0.4781000000000 1.0
C      1  0.5463000000000  0.5160200000000  0.4668570000000 1.0
C      1  0.5453860000000  0.4730790000000  0.4747700000000 1.0
C      1  0.5458580000000  0.4680230000000  0.5180240000000 1.0
C      1  0.5464640000000  0.5073630000000  0.5371160000000 1.0
C      1  0.5465290000000  0.5369640000000  0.5053370000000 1.0
END
