TITL C-9262-5533-265 3.49257129290076e-05 125000 -365.781829900942 0 0 60 (C1) n - 1
REM
REM in /home/bkarasulu/CARBON/AIRSS/Generating-Clusters/EDIP-Nigel-Params/Higher-Symm/Box-15A/Only-C60/SD-CG/HFTN-CG
REM
REM
REM
REM
REM
REM ./C.cell (414f73aa93bd7a1190c7fd0f31ff2f98)
REM
REM compiler GCC version 9.2.1 20190827 (Red Hat 9.2.1-1)
REM options -cpp -mtune=generic -march=x86-64 -g -O0 -fpre-include=/usr/include/finclude/math-vector-fortran.h
REM seed -145471525 952031627 -1251670548 689140811 -2071005797 -1730774657 -581209826 51605106 -471327466 -2062590071 -208256342 487464044 620222916 -2057196774 -798619028 -1642090739 -1852852839 644177780 655355414 1086168337 980816936 804345715 -395317546 -2050482001 -1695206945 401382928 2140293926 994198744 -631559896 96747761 496611276 -1276107700 -270294545
REM
CELL 1.54180   50.00000   50.00000   50.00000   90.00000   90.00000   90.00000
LATT -1
SFAC C  
C      1  0.5401790000000  0.5058040000000  0.4483440000000 1.0
C      1  0.4628020000000  0.5077860000000  0.4495290000000 1.0
C      1  0.5176640000000  0.4656290000000  0.5115430000000 1.0
C      1  0.4826760000000  0.4647540000000  0.5108990000000 1.0
C      1  0.4628480000000  0.4821790000000  0.4655150000000 1.0
C      1  0.5365570000000  0.4802550000000  0.4648680000000 1.0
C      1  0.4598880000000  0.4560340000000  0.4494460000000 1.0
C      1  0.5307420000000  0.4568370000000  0.4472090000000 1.0
C      1  0.4804160000000  0.5445100000000  0.5582770000000 1.0
C      1  0.5190130000000  0.5456270000000  0.5577320000000 1.0
C      1  0.4304600000000  0.5373530000000  0.4731240000000 1.0
C      1  0.5682390000000  0.5379580000000  0.4731810000000 1.0
C      1  0.5156580000000  0.4198690000000  0.4980180000000 1.0
C      1  0.4914690000000  0.4244960000000  0.4846060000000 1.0
C      1  0.5139030000000  0.5708440000000  0.5106340000000 1.0
C      1  0.4840550000000  0.5694170000000  0.5110280000000 1.0
C      1  0.4319530000000  0.4849770000000  0.5076170000000 1.0
C      1  0.5663980000000  0.4880700000000  0.5039420000000 1.0
C      1  0.4452950000000  0.4452490000000  0.4825650000000 1.0
C      1  0.5559850000000  0.4453980000000  0.4897280000000 1.0
C      1  0.5140780000000  0.5347990000000  0.4788470000000 1.0
C      1  0.4831570000000  0.5335980000000  0.4780080000000 1.0
C      1  0.5168640000000  0.5248780000000  0.4506870000000 1.0
C      1  0.4889350000000  0.5184490000000  0.4425740000000 1.0
C      1  0.4720390000000  0.4996470000000  0.5782400000000 1.0
C      1  0.5289270000000  0.5012090000000  0.5775430000000 1.0
C      1  0.4405930000000  0.5243400000000  0.4520450000000 1.0
C      1  0.5638530000000  0.5192340000000  0.4545390000000 1.0
C      1  0.4834120000000  0.5196100000000  0.5280490000000 1.0
C      1  0.5160020000000  0.5207190000000  0.5275870000000 1.0
C      1  0.5296450000000  0.5591710000000  0.5333550000000 1.0
C      1  0.4688830000000  0.5575420000000  0.5340310000000 1.0
C      1  0.4703560000000  0.5602710000000  0.4859710000000 1.0
C      1  0.5273250000000  0.5616490000000  0.4853800000000 1.0
C      1  0.5603310000000  0.4719550000000  0.4818240000000 1.0
C      1  0.4368690000000  0.4742540000000  0.4823900000000 1.0
C      1  0.5182600000000  0.4205060000000  0.4436980000000 1.0
C      1  0.4917880000000  0.4192090000000  0.4555630000000 1.0
C      1  0.4434530000000  0.4892120000000  0.5327350000000 1.0
C      1  0.5564860000000  0.4917750000000  0.5302080000000 1.0
C      1  0.5147610000000  0.4881990000000  0.5571960000000 1.0
C      1  0.4860850000000  0.4870660000000  0.5575100000000 1.0
C      1  0.4840240000000  0.4862650000000  0.4882760000000 1.0
C      1  0.5160320000000  0.4866410000000  0.4878830000000 1.0
C      1  0.4428870000000  0.5514260000000  0.4936980000000 1.0
C      1  0.5551740000000  0.5530470000000  0.4926070000000 1.0
C      1  0.4762790000000  0.5130090000000  0.4987460000000 1.0
C      1  0.5231040000000  0.5139530000000  0.4982120000000 1.0
C      1  0.4419760000000  0.5173350000000  0.5433760000000 1.0
C      1  0.5579200000000  0.5195890000000  0.5416450000000 1.0
C      1  0.4493280000000  0.5386890000000  0.5215300000000 1.0
C      1  0.5493220000000  0.5408950000000  0.5205020000000 1.0
C      1  0.5324160000000  0.4409910000000  0.5040960000000 1.0
C      1  0.4699300000000  0.4400650000000  0.4980050000000 1.0
C      1  0.5390120000000  0.5243670000000  0.5649350000000 1.0
C      1  0.4612750000000  0.5226840000000  0.5660140000000 1.0
C      1  0.5143130000000  0.4445800000000  0.4271600000000 1.0
C      1  0.4782240000000  0.4380430000000  0.4380660000000 1.0
C      1  0.4705250000000  0.4782230000000  0.5349710000000 1.0
C      1  0.5299600000000  0.4798630000000  0.5344910000000 1.0
END
