TITL C-9256-7861-251 4.23120648678202e-05 125000 -366.532045000384 0 0 60 (Cs) n - 1
REM
REM in /home/bkarasulu/CARBON/AIRSS/Generating-Clusters/EDIP-Nigel-Params/Higher-Symm/Box-15A/Only-C60/SD-CG/HFTN-CG
REM
REM
REM
REM
REM
REM ./C.cell (414f73aa93bd7a1190c7fd0f31ff2f98)
REM
REM compiler GCC version 9.2.1 20190827 (Red Hat 9.2.1-1)
REM options -cpp -mtune=generic -march=x86-64 -g -O0 -fpre-include=/usr/include/finclude/math-vector-fortran.h
REM seed 1554044342 1138190289 -1637562785 -1950854484 -687591226 2041433158 -1495761723 725716411 1472556165 -1566150928 -127864002 -1938190913 -11096520 -1229297353 1498003476 776905263 1099015622 2040882244 1516397183 1042156561 -1545417375 -1772020862 2073868184 -312449804 -1415895102 1766779465 1041412198 -2043272862 590909883 1194577836 -2012639731 -2065792946 -636209840
REM
CELL 1.54180   50.00000   50.00000   50.00000   90.00000   90.00000   90.00000
LATT -1
SFAC C  
C      1  0.5143850000000  0.4321260000000  0.5117020000000 1.0
C      1  0.5159510000000  0.4084360000000  0.4675620000000 1.0
C      1  0.4745800000000  0.4142730000000  0.4933610000000 1.0
C      1  0.4856030000000  0.4321290000000  0.5117050000000 1.0
C      1  0.4840210000000  0.4084390000000  0.4675650000000 1.0
C      1  0.5253990000000  0.4142670000000  0.4933560000000 1.0
C      1  0.4726300000000  0.4608660000000  0.4158090000000 1.0
C      1  0.4700650000000  0.4970710000000  0.5478790000000 1.0
C      1  0.5669120000000  0.5000780000000  0.5032890000000 1.0
C      1  0.5273430000000  0.4608600000000  0.4158030000000 1.0
C      1  0.5299450000000  0.4970640000000  0.5478720000000 1.0
C      1  0.4330880000000  0.5000930000000  0.5033030000000 1.0
C      1  0.4138590000000  0.5367450000000  0.5278440000000 1.0
C      1  0.5572300000000  0.5279890000000  0.5704850000000 1.0
C      1  0.5299260000000  0.5064950000000  0.4317430000000 1.0
C      1  0.5861550000000  0.5367260000000  0.5278260000000 1.0
C      1  0.4427910000000  0.5280010000000  0.5704970000000 1.0
C      1  0.4700610000000  0.5065020000000  0.4317500000000 1.0
C      1  0.5295780000000  0.5419580000000  0.4584560000000 1.0
C      1  0.4412950000000  0.5479490000000  0.5028510000000 1.0
C      1  0.5251860000000  0.5468460000000  0.5588490000000 1.0
C      1  0.4704220000000  0.5419650000000  0.4584620000000 1.0
C      1  0.5587160000000  0.5479360000000  0.5028390000000 1.0
C      1  0.4748370000000  0.5468520000000  0.5588540000000 1.0
C      1  0.4698520000000  0.4351110000000  0.4229920000000 1.0
C      1  0.4769850000000  0.4707170000000  0.5419950000000 1.0
C      1  0.5695860000000  0.4731740000000  0.4965680000000 1.0
C      1  0.5301170000000  0.4351040000000  0.4229860000000 1.0
C      1  0.5230170000000  0.4707120000000  0.5419900000000 1.0
C      1  0.4304070000000  0.4731890000000  0.4965830000000 1.0
C      1  0.4852750000000  0.5174440000000  0.5622940000000 1.0
C      1  0.5652310000000  0.5234550000000  0.4856970000000 1.0
C      1  0.4491860000000  0.5219860000000  0.4605970000000 1.0
C      1  0.5147420000000  0.5174410000000  0.5622910000000 1.0
C      1  0.4347710000000  0.5234700000000  0.4857110000000 1.0
C      1  0.5508110000000  0.5219750000000  0.4605870000000 1.0
C      1  0.5315060000000  0.4519720000000  0.5233040000000 1.0
C      1  0.5152450000000  0.4310310000000  0.4463740000000 1.0
C      1  0.4435860000000  0.4552420000000  0.5116510000000 1.0
C      1  0.4684880000000  0.4519790000000  0.5233110000000 1.0
C      1  0.4847280000000  0.4310350000000  0.4463770000000 1.0
C      1  0.5564060000000  0.4552290000000  0.5116400000000 1.0
C      1  0.4284020000000  0.5589910000000  0.5373350000000 1.0
C      1  0.5562300000000  0.5553030000000  0.5613230000000 1.0
C      1  0.5148070000000  0.5305010000000  0.4363850000000 1.0
C      1  0.5716190000000  0.5589750000000  0.5373200000000 1.0
C      1  0.4437950000000  0.5553150000000  0.5613350000000 1.0
C      1  0.4851860000000  0.5305040000000  0.4363880000000 1.0
C      1  0.5143430000000  0.5487870000000  0.4821810000000 1.0
C      1  0.4707250000000  0.5511710000000  0.5063290000000 1.0
C      1  0.5146530000000  0.5550230000000  0.5313540000000 1.0
C      1  0.4856640000000  0.5487910000000  0.4821840000000 1.0
C      1  0.5292880000000  0.5511640000000  0.5063220000000 1.0
C      1  0.4853660000000  0.5550260000000  0.5313570000000 1.0
C      1  0.4424990000000  0.5053830000000  0.5524980000000 1.0
C      1  0.5763420000000  0.5093080000000  0.5294620000000 1.0
C      1  0.4854900000000  0.4845660000000  0.4218280000000 1.0
C      1  0.5575140000000  0.5053700000000  0.5524860000000 1.0
C      1  0.4236660000000  0.5093250000000  0.5294780000000 1.0
C      1  0.5144900000000  0.4845620000000  0.4218250000000 1.0
END
