TITL C-107434-8238-4 -7.475 3375.00 -1333.17340320 0 0 163 (C1) n - 1
REM
REM Run started: at 2020.12.23 06:41:24 in /rds/project/t2_vol4/rds-t2-cs072/BORA/CARBON/AIRSS/Generating-Clusters/Str-Search/Higher-Symm/C100-200
REM VASP from code version vasp.5.4.4.18Apr17-6-g9f103f2a35 (build Oct 11 2019 16:45:47) gamma-only
REM
REM
REM
REM
REM ./C.cell (533062f00bc710175b3da973d35f2034)
REM AIRSS Version 0.9.1 bugfix July 2018 build 013d7b7c2542+ Fri, 06 Jul 2018 19:26:36 +0100
REM compiler GCC version 4.8.5 20150623 (Red Hat 4.8.5-39)
REM options -cpp -mtune=generic -march=x86-64 -g -O0
REM seed 91174092 -1923233000 -656036178 -2127180624 1903529367 2021045653 -1261650943 665214845 1321695897 438161654 -339087726 -1378309439
REM
REM C.POTCAR (d86ddea03c3ceb6dc662c8ad6801f873)
REM 
CELL 1.54180   15.00000   15.00000   15.00000   90.00000   90.00000   90.00000
LATT -1
SFAC C  
C      1  0.5949893599723  0.5959833188496  0.6173886338703 1.0
C      1  0.6183574877316  0.4064714214911  0.3848210481183 1.0
C      1  0.5845779516436  0.2431553165457  0.7485284255723 1.0
C      1  0.5785281626677  0.7739836591105  0.2590678918136 1.0
C      1  0.6692012207794  0.7505331740169  0.7162583278611 1.0
C      1  0.6560182856488  0.2459715411560  0.2881372988671 1.0
C      1  0.4942063124856  0.7349536607268  0.7416344112788 1.0
C      1  0.4937282130723  0.2666811033147  0.2928688937830 1.0
C      1  0.5602944345211  0.2049803977747  0.5072087837657 1.0
C      1  0.5853684746955  0.7493157045762  0.5201955071365 1.0
C      1  0.2026760182617  0.3089653036148  0.5212742180475 1.0
C      1  0.1861117218019  0.6996745291683  0.4837724542587 1.0
C      1  0.3545963392670  0.2215371763483  0.6787745757843 1.0
C      1  0.3599350585525  0.7755501869610  0.3343747717883 1.0
C      1  0.2963416603753  0.7745546940476  0.5834466774790 1.0
C      1  0.3362350319660  0.2459173515446  0.4323044181875 1.0
C      1  0.2380515847463  0.2602786209674  0.5910413994531 1.0
C      1  0.2366361189879  0.7385451989770  0.4147845011259 1.0
C      1  0.3666005242905  0.7067419643703  0.2043543422788 1.0
C      1  0.3600707174485  0.2924107586852  0.8032100774545 1.0
C      1  0.3241933523477  0.6180258249162  0.3409787624965 1.0
C      1  0.3130303619155  0.3802823878920  0.6654751460291 1.0
C      1  0.3426977037117  0.8152613105174  0.5106135270323 1.0
C      1  0.3532343107159  0.1769880965118  0.5054979015990 1.0
C      1  0.3428304422933  0.3922765782859  0.2424203770646 1.0
C      1  0.3674121609480  0.6131986279836  0.7392389811427 1.0
C      1  0.3563133760206  0.5331602953751  0.6767544146501 1.0
C      1  0.3671100610793  0.4623089122865  0.3163311167025 1.0
C      1  0.7841817721969  0.4741260503723  0.5215332398756 1.0
C      1  0.8546960514300  0.5274580639031  0.4438589675532 1.0
C      1  0.7392566539698  0.2764949395331  0.6368506427829 1.0
C      1  0.7529142521764  0.7715587835933  0.3443383684785 1.0
C      1  0.6519377198696  0.5627010735272  0.8323748707388 1.0
C      1  0.6403669894213  0.4360555911041  0.1538957985138 1.0
C      1  0.5081722793140  0.3372752754179  0.6309511855163 1.0
C      1  0.5236928334128  0.6583521834672  0.3657890531128 1.0
C      1  0.4253165821336  0.7561134120648  0.2624179582287 1.0
C      1  0.4208214682215  0.2439745967775  0.7488508531275 1.0
C      1  0.7940843688041  0.7626919732041  0.2607352166419 1.0
C      1  0.7579327706335  0.3388449318947  0.7086441311189 1.0
C      1  0.5136983803833  0.5214110377410  0.2307685591280 1.0
C      1  0.4872155854860  0.4931136222578  0.7782698094669 1.0
C      1  0.6208274688106  0.6579414456862  0.5553592990993 1.0
C      1  0.6573998278673  0.3767484384685  0.4796650340660 1.0
C      1  0.4632980947953  0.4339103694499  0.6054268802327 1.0
C      1  0.4813945861048  0.5621488130170  0.3858675418153 1.0
C      1  0.2940785451603  0.4633902928493  0.7244794036911 1.0
C      1  0.3059337182314  0.5411203976498  0.2786171139529 1.0
C      1  0.7072313915770  0.2136116304724  0.4395784072567 1.0
C      1  0.7228314393641  0.7795093757970  0.5662662371741 1.0
C      1  0.3843592932192  0.5890354389838  0.5187150486272 1.0
C      1  0.3558796732421  0.3885001847957  0.4765749100063 1.0
C      1  0.7704339210234  0.5184626534903  0.7316500854695 1.0
C      1  0.7859909932312  0.4517490829134  0.2572227096349 1.0
C      1  0.7171760136852  0.5258161916582  0.2697075985721 1.0
C      1  0.7320284533323  0.4345069448429  0.6910530184140 1.0
C      1  0.5954055496146  0.6186047349156  0.4711590756079 1.0
C      1  0.5681590876645  0.3766042623346  0.5186916520329 1.0
C      1  0.4790321640421  0.3271286109203  0.3596977289251 1.0
C      1  0.4557679699237  0.6529774421713  0.7164538047256 1.0
C      1  0.7898850544665  0.3683280700218  0.3062456026937 1.0
C      1  0.7765091385796  0.6038362931987  0.6838907325019 1.0
C      1  0.5082246824098  0.7017779369791  0.2727649871963 1.0
C      1  0.5021822820827  0.3015340518772  0.7340874703581 1.0
C      1  0.1960143530351  0.4794022250305  0.6961058273170 1.0
C      1  0.2048427629460  0.5244267702440  0.3021898508951 1.0
C      1  0.6304328496003  0.6433052241746  0.3786536579986 1.0
C      1  0.6051592814137  0.3553673792901  0.6114355053725 1.0
C      1  0.4314403634830  0.1917575196884  0.3197148796466 1.0
C      1  0.4347202887617  0.7890446067760  0.6844299029824 1.0
C      1  0.6766823759324  0.8210012205588  0.3851995313246 1.0
C      1  0.6871176123292  0.1945094213421  0.6299533959329 1.0
C      1  0.6394816098189  0.1951716104751  0.3704750842529 1.0
C      1  0.6562238920055  0.8052451280681  0.6369375883684 1.0
C      1  0.6400517134114  0.7763755104329  0.1914266323948 1.0
C      1  0.6512878388362  0.2671015827399  0.8056001747947 1.0
C      1  0.5374695783965  0.1251479674842  0.6376289760774 1.0
C      1  0.5263398799927  0.8752030324992  0.3876796546760 1.0
C      1  0.5171818561146  0.6862268204697  0.4758240056859 1.0
C      1  0.5048303078666  0.2971547675003  0.5191070229441 1.0
C      1  0.1535448044389  0.3833342068596  0.5598237721426 1.0
C      1  0.1455423573233  0.6208149072454  0.4362447694196 1.0
C      1  0.7386939092932  0.5311100977486  0.8305409886327 1.0
C      1  0.7188151781798  0.4879982492150  0.1806988096354 1.0
C      1  0.3449524169261  0.2341951567566  0.3318603830532 1.0
C      1  0.3403387887436  0.7603081041394  0.6700437163859 1.0
C      1  0.5881231914153  0.7204616561439  0.7639045051444 1.0
C      1  0.5804403116285  0.2843600369444  0.2413548114859 1.0
C      1  0.3483185156803  0.5365753137425  0.1853223946861 1.0
C      1  0.3431129558486  0.4621121309333  0.8138613734366 1.0
C      1  0.8316537105060  0.5581395088933  0.5316785784807 1.0
C      1  0.8376114591733  0.4308701005300  0.4540820020758 1.0
C      1  0.2332336972622  0.4747332638048  0.4321031350901 1.0
C      1  0.2284597746203  0.5348687291835  0.5636352852480 1.0
C      1  0.4033493420241  0.6210307516804  0.1762105879511 1.0
C      1  0.3941837370063  0.3789911865016  0.8246170934307 1.0
C      1  0.5913625231731  0.8353910056992  0.3376690181266 1.0
C      1  0.6051494102494  0.1729362605050  0.6804443575601 1.0
C      1  0.3404694962857  0.4704490427194  0.4158821827643 1.0
C      1  0.3318883222566  0.5263758173025  0.5782994593499 1.0
C      1  0.2981932558775  0.6846888600967  0.7120327320872 1.0
C      1  0.3044559648396  0.3107658393531  0.2891504860335 1.0
C      1  0.2406751781652  0.3514929145132  0.3509359980517 1.0
C      1  0.2236148647939  0.6546253614921  0.6566064311105 1.0
C      1  0.3105012884537  0.7062296551876  0.2849423122060 1.0
C      1  0.3016595420032  0.2915605716858  0.7245869965543 1.0
C      1  0.5638147688827  0.5476602739255  0.8081769945435 1.0
C      1  0.5533235745498  0.4552423377651  0.1794650794453 1.0
C      1  0.4898220513925  0.6157046314082  0.2109997439884 1.0
C      1  0.4798408652942  0.3899320713065  0.7927858966454 1.0
C      1  0.3171349606227  0.7907799822494  0.4193802836141 1.0
C      1  0.3194230077638  0.2063048345132  0.5927060011474 1.0
C      1  0.1669461945322  0.3950815575876  0.6542183162032 1.0
C      1  0.1699495464048  0.6068079828799  0.3421395357757 1.0
C      1  0.1871915691073  0.4591450033306  0.5171991214328 1.0
C      1  0.1860096109002  0.5473439315271  0.4769716799290 1.0
C      1  0.6503043489771  0.4351244724804  0.6483694004831 1.0
C      1  0.6699932348136  0.5589315871518  0.3417085628058 1.0
C      1  0.7789878434359  0.7170485756599  0.6058271557978 1.0
C      1  0.7701138073789  0.2690913271189  0.4001905020464 1.0
C      1  0.3971323097530  0.5371314413769  0.8152836391233 1.0
C      1  0.3500891569940  0.4458191121194  0.1669735352554 1.0
C      1  0.4565147731313  0.5078788037439  0.6744957004807 1.0
C      1  0.4751527882369  0.4871409500830  0.3166028830493 1.0
C      1  0.5351551835364  0.4677976217852  0.5346891054056 1.0
C      1  0.5515692334604  0.5320153072811  0.4543121317052 1.0
C      1  0.8102546564520  0.6236540010818  0.5948027110282 1.0
C      1  0.8185103517196  0.3578408017286  0.3984134770185 1.0
C      1  0.2679706465801  0.3206895004441  0.4452989610684 1.0
C      1  0.2227140966912  0.7113700413554  0.5740833547778 1.0
C      1  0.5970721235972  0.6352097223163  0.8046715568780 1.0
C      1  0.5882058740360  0.3650166861657  0.1926545195325 1.0
C      1  0.6977859965797  0.7159772097241  0.3983752794159 1.0
C      1  0.6793727138285  0.3070948179620  0.5602691179606 1.0
C      1  0.7483704852972  0.6981914659851  0.6981186076513 1.0
C      1  0.7415026673421  0.2863540985629  0.3061101955217 1.0
C      1  0.4775774389541  0.8328674873934  0.6111582151890 1.0
C      1  0.4691291575489  0.1478410675073  0.3951524889543 1.0
C      1  0.6743063644119  0.7756509002429  0.4759378972062 1.0
C      1  0.6596439021904  0.2142037811771  0.5305444806547 1.0
C      1  0.4971328474882  0.6002404054838  0.6432923927342 1.0
C      1  0.5318403924521  0.4058253853257  0.3516745613844 1.0
C      1  0.4547156664220  0.6372000801762  0.5481283865041 1.0
C      1  0.4248375208964  0.3138198584876  0.4480570073033 1.0
C      1  0.7236808329366  0.7883079404774  0.2136137258041 1.0
C      1  0.7269219806700  0.2995687399332  0.7853430366215 1.0
C      1  0.4787517315867  0.8822674596356  0.4559181157086 1.0
C      1  0.5050488809151  0.1336063615937  0.5552616988318 1.0
C      1  0.5598656371120  0.1720546159584  0.4126267607160 1.0
C      1  0.5705563575364  0.8140113887345  0.5948539619346 1.0
C      1  0.4295230765528  0.8526154168020  0.5282224078702 1.0
C      1  0.4306407103866  0.1294689492617  0.4870423330427 1.0
C      1  0.6423218103453  0.4963828390381  0.4125370143720 1.0
C      1  0.6188569463707  0.5034380039141  0.5850962389930 1.0
C      1  0.2344312342754  0.6795747168677  0.3371051412829 1.0
C      1  0.2263750815614  0.3177343110340  0.6704217399672 1.0
C      1  0.1996056652472  0.4366882113119  0.3487593741665 1.0
C      1  0.1894868097315  0.5642906624933  0.6491318676295 1.0
C      1  0.3811898333677  0.5692415521425  0.4212967340942 1.0
C      1  0.3636841088170  0.4228684940603  0.5749988614469 1.0
C      1  0.8140310621593  0.4631295611747  0.1664902509429 1.0
C      1  0.8238722979535  0.5104296470608  0.8238595471046 1.0
C      1  0.6859791468806  0.4729979830751  0.5044411580246 1.0
END
