TITL C-10682-722-155 -1.516 3375.00 -255.04109576 0 0 32 (C4h) n - 1
REM
REM Run started: at 2020.12.30 05:41:36 in /gpfs/home/chem/mssmkc/CARBON/AIRSS/Generating-Clusters/Str-Search/Higher-Symm/C4-100
REM VASP from code version vasp.5.4.4.18Apr17-6-g9f103f2a35 (build Oct 11 2019 16:45:47) gamma-only
REM
REM
REM
REM
REM ./C.cell (6bd13a13d554368a30d355f37ece5b26)
REM AIRSS Version 0.9.1 bugfix July 2018 build 013d7b7c2542+ Fri, 06 Jul 2018 19:26:36 +0100
REM compiler GCC version 6.3.0
REM options -cpp -iprefix /gpfs/warwick/csc/orac/software/Core/GCCcore/6.3.0/bin/../lib/gcc/x86_64-pc-linux-gnu/6.3.0/ -mtune=generic -march=x86-64 -g -O0
REM seed 599202086 -1197622624 -1455739360 -1434151089 -980205749 -292815152 -1031402866 -806382245 -1650730724 -943482676 -817385014 -1336837019
REM
REM C.POTCAR (d86ddea03c3ceb6dc662c8ad6801f873)
REM 
CELL 1.54180   15.00000   15.00000   15.00000   90.00000   90.00000   90.00000
LATT -1
SFAC C  
C      1  0.6013100363770  0.5481778878215  0.6741834523233 1.0
C      1  0.3258164726321  0.5481778831721  0.6013100569124 1.0
C      1  0.3986899791152  0.5481778517521  0.3258165517946 1.0
C      1  0.6741835287009  0.5481778742288  0.3986899484460 1.0
C      1  0.3986899784016  0.4518221381948  0.6741835576246 1.0
C      1  0.6741835039865  0.4518221314505  0.6013099967777 1.0
C      1  0.6013100370443  0.4518221019657  0.3258164375511 1.0
C      1  0.3258164964859  0.4518221220160  0.3986899975273 1.0
C      1  0.4535543827310  0.6056097443289  0.6161940465153 1.0
C      1  0.3838059272204  0.6056097521875  0.4535544026688 1.0
C      1  0.5464456260433  0.6056097520814  0.3838058719900 1.0
C      1  0.6161940519033  0.6056097430485  0.5464455365175 1.0
C      1  0.5464456204417  0.3943902438414  0.6161941196919 1.0
C      1  0.6161940301153  0.3943902636641  0.4535543869688 1.0
C      1  0.4535543876356  0.3943902521394  0.3838059620961 1.0
C      1  0.3838059480952  0.3943902538951  0.5464456741268 1.0
C      1  0.3836519934536  0.3942542488687  0.4533004739643 1.0
C      1  0.5466995744625  0.3942542345437  0.3836519656791 1.0
C      1  0.6163479954897  0.3942542323005  0.5466995845555 1.0
C      1  0.4533004285745  0.3942542258106  0.6163480992656 1.0
C      1  0.6163480297539  0.6057457816563  0.4533003527317 1.0
C      1  0.4533004296250  0.6057457633322  0.3836519824493 1.0
C      1  0.3836519594289  0.6057457649340  0.5466995889729 1.0
C      1  0.5466995736854  0.6057457549876  0.6163479528214 1.0
C      1  0.6714600030499  0.4539059780908  0.3993003891757 1.0
C      1  0.6006996375534  0.4539059806714  0.6714600577288 1.0
C      1  0.3285399757607  0.4539059809901  0.6006996623415 1.0
C      1  0.3993003874561  0.4539059515142  0.3285399803738 1.0
C      1  0.3285399510953  0.5460940283480  0.3993004107477 1.0
C      1  0.3993003992610  0.5460940380044  0.6714600433363 1.0
C      1  0.6714600284297  0.5460940316376  0.6006995376150 1.0
C      1  0.6006996259909  0.5460940085218  0.3285399187094 1.0
END
