TITL C-107434-8238-6 -8.963 3375.00 -1602.95260744 0 0 194 (C1) n - 1
REM
REM Run started: at 2020.12.23 09:36:45 in /rds/project/t2_vol4/rds-t2-cs072/BORA/CARBON/AIRSS/Generating-Clusters/Str-Search/Higher-Symm/C100-200
REM VASP from code version vasp.5.4.4.18Apr17-6-g9f103f2a35 (build Oct 11 2019 16:45:47) gamma-only
REM
REM
REM
REM
REM ./C.cell (533062f00bc710175b3da973d35f2034)
REM AIRSS Version 0.9.1 bugfix July 2018 build 013d7b7c2542+ Fri, 06 Jul 2018 19:26:36 +0100
REM compiler GCC version 4.8.5 20150623 (Red Hat 4.8.5-39)
REM options -cpp -mtune=generic -march=x86-64 -g -O0
REM seed -1077245457 -652437730 -485853515 -714755178 1346178567 710944157 -1300953833 -1195343449 14470547 -1195690656 2133025241 -1685394527
REM
REM C.POTCAR (d86ddea03c3ceb6dc662c8ad6801f873)
REM 
CELL 1.54180   15.00000   15.00000   15.00000   90.00000   90.00000   90.00000
LATT -1
SFAC C  
C      1  0.1976420960575  0.4227330879739  0.3446199632276 1.0
C      1  0.3374257253136  0.7687607676262  0.3562683496829 1.0
C      1  0.7387761659073  0.7437224569764  0.3351036844699 1.0
C      1  0.7885492206457  0.3576374622208  0.3249072954614 1.0
C      1  0.4587376503713  0.1787288498141  0.3348179323743 1.0
C      1  0.4770904601128  0.1971996318936  0.2413441473073 1.0
C      1  0.2113958987224  0.4156697127979  0.2513478021242 1.0
C      1  0.3319448504098  0.7494902346682  0.2599352656083 1.0
C      1  0.6894612823346  0.7171316443072  0.2492631863905 1.0
C      1  0.7662795340422  0.3831707190404  0.2332597025874 1.0
C      1  0.6239414858258  0.3801715462559  0.3711961074598 1.0
C      1  0.4584189089385  0.3483046265430  0.3742144544969 1.0
C      1  0.3578778366234  0.5023598309323  0.3803747646744 1.0
C      1  0.4647817837557  0.6539749109985  0.3899470579422 1.0
C      1  0.6142476732364  0.5558380348280  0.3825239752372 1.0
C      1  0.6140798395680  0.5747258125297  0.1964896968589 1.0
C      1  0.6067827014335  0.4053616578659  0.1799618435804 1.0
C      1  0.4426520991981  0.3630356717508  0.1934214226754 1.0
C      1  0.3541880828968  0.5087508466252  0.2086268442350 1.0
C      1  0.4589879216542  0.6407530839118  0.2086551545082 1.0
C      1  0.3373953226414  0.3516252430416  0.7867484140267 1.0
C      1  0.2632148917932  0.5471776537120  0.8037613561126 1.0
C      1  0.5142450907728  0.7546029782730  0.8325714670475 1.0
C      1  0.6942748317094  0.5464994943151  0.8097956119776 1.0
C      1  0.6476466545405  0.3251941927391  0.7832765702608 1.0
C      1  0.3458468945214  0.8108490227244  0.6621495513899 1.0
C      1  0.7326888547814  0.7401277932024  0.6424654750312 1.0
C      1  0.8423429671478  0.3310924057788  0.6298737889122 1.0
C      1  0.4161137889778  0.1592033479038  0.6427577052094 1.0
C      1  0.1482342408561  0.4576662674415  0.6300657359977 1.0
C      1  0.5458042826328  0.6193634885932  0.2542949004958 1.0
C      1  0.6268892388236  0.4843128036932  0.2398508305503 1.0
C      1  0.5342258493553  0.3611259971567  0.2331447718787 1.0
C      1  0.3915996722878  0.4263975077731  0.2503990748132 1.0
C      1  0.3948952702091  0.5862887284086  0.2579652273969 1.0
C      1  0.5461556283545  0.8899751752298  0.5584871508155 1.0
C      1  0.8775593510892  0.5697451149045  0.5556088031250 1.0
C      1  0.6284918543437  0.1402240814775  0.5096145463575 1.0
C      1  0.1980337546466  0.2394935417177  0.5430871159324 1.0
C      1  0.1572226076007  0.6870214877346  0.5484441275570 1.0
C      1  0.3980474623491  0.4476581460699  0.6876516778372 1.0
C      1  0.3632871214092  0.6124334664375  0.7409300983164 1.0
C      1  0.5847137586221  0.6746236109379  0.7447719451221 1.0
C      1  0.7195009610385  0.5061937124756  0.6698546687224 1.0
C      1  0.5466438535524  0.3382945523432  0.6921884202002 1.0
C      1  0.2707438412842  0.1917601288020  0.5824298526586 1.0
C      1  0.1205333937211  0.6052118158976  0.5781421899551 1.0
C      1  0.4670776111757  0.8979082257458  0.6046470534567 1.0
C      1  0.8551975401347  0.6497618617641  0.6040050213920 1.0
C      1  0.7675712468990  0.2161357351791  0.5636839089301 1.0
C      1  0.4118130333872  0.4184196501126  0.7814608469993 1.0
C      1  0.3573577963602  0.5642269474604  0.8354515366025 1.0
C      1  0.5157933526090  0.6535771589214  0.8317988556012 1.0
C      1  0.6284711499804  0.5251991737007  0.8701122792678 1.0
C      1  0.5725353472784  0.3651530419487  0.8312429356366 1.0
C      1  0.2055223799676  0.7046611400178  0.4568274415431 1.0
C      1  0.6302992079193  0.8500317159448  0.4101209027931 1.0
C      1  0.8792680547174  0.4793377532566  0.3958027470206 1.0
C      1  0.5882623863916  0.1266520681841  0.4238288336474 1.0
C      1  0.1985048345846  0.2818788096434  0.4487539544654 1.0
C      1  0.2331200863480  0.4968976334739  0.5945661488722 1.0
C      1  0.3945648894453  0.7546912906475  0.5903029297523 1.0
C      1  0.7100019217679  0.6870693864137  0.5559698120355 1.0
C      1  0.7425073727955  0.4237001602341  0.5306358990347 1.0
C      1  0.4391986212877  0.2205628325679  0.5611003431798 1.0
C      1  0.1429935036633  0.5061379073989  0.7123561575378 1.0
C      1  0.4044073605895  0.8260374634310  0.7397235158542 1.0
C      1  0.7475060450650  0.6790252444838  0.7192834382870 1.0
C      1  0.7775585903373  0.3045746856270  0.6953292742831 1.0
C      1  0.3698782539084  0.2132351400779  0.7109130203829 1.0
C      1  0.8495507596423  0.6160095932773  0.3863603752674 1.0
C      1  0.7056049307220  0.2271024476493  0.4014311685719 1.0
C      1  0.3225350939603  0.2618596878642  0.3907386459626 1.0
C      1  0.2195359886469  0.5826921310843  0.3927048277560 1.0
C      1  0.4968793609440  0.8299258975239  0.3886150535674 1.0
C      1  0.6506470204751  0.1660597172672  0.3561664403285 1.0
C      1  0.2356215403050  0.2277940680439  0.3683950764484 1.0
C      1  0.1638584884746  0.6576979644558  0.3735960260627 1.0
C      1  0.5667281040386  0.8678013965291  0.3401027306041 1.0
C      1  0.8900301133707  0.5462408648077  0.3296276599434 1.0
C      1  0.6511104872566  0.5415787888555  0.6222301731615 1.0
C      1  0.5803124003240  0.4032581491181  0.6312496662436 1.0
C      1  0.4015692116699  0.3933715401599  0.6040682488938 1.0
C      1  0.3896083032216  0.5439341967419  0.6673506411652 1.0
C      1  0.5257729645537  0.6504759644814  0.6609738408686 1.0
C      1  0.2354776459993  0.3270888081561  0.2226400851205 1.0
C      1  0.2607192841050  0.6922198267589  0.2324021824356 1.0
C      1  0.6164434220975  0.7682877610592  0.2185507005563 1.0
C      1  0.7947723396154  0.4719565971444  0.2080490371217 1.0
C      1  0.5676218604044  0.1996207801636  0.2104425438253 1.0
C      1  0.1263149641759  0.4208729604030  0.4977514301274 1.0
C      1  0.3190237923315  0.7958384101999  0.5277036402157 1.0
C      1  0.7292730374874  0.7760150403338  0.5092672426482 1.0
C      1  0.8230033160380  0.3658895030658  0.4909457036840 1.0
C      1  0.4469895821858  0.1371103911242  0.5043302175485 1.0
C      1  0.5177067125050  0.7897758661371  0.2041106982432 1.0
C      1  0.7753914643211  0.5692395967262  0.2027554361884 1.0
C      1  0.6533111206947  0.2497600458547  0.2039822513637 1.0
C      1  0.3042762579487  0.2622443234617  0.2133501689309 1.0
C      1  0.2184997996850  0.6062154612681  0.2193187238497 1.0
C      1  0.1914890176159  0.6646809593781  0.7027508333278 1.0
C      1  0.5690156654589  0.8471037105161  0.7091940621768 1.0
C      1  0.8147473638708  0.5278603583210  0.6940275647034 1.0
C      1  0.6442897740812  0.2002346540879  0.6639654504647 1.0
C      1  0.2216213287886  0.2998631591422  0.6932682256991 1.0
C      1  0.7085238383153  0.8013165990303  0.4125429362610 1.0
C      1  0.8460984425244  0.3913434691270  0.3959101180541 1.0
C      1  0.4931320877007  0.1355371508065  0.4132328249360 1.0
C      1  0.1635676297458  0.3756430030165  0.4244811276015 1.0
C      1  0.2854099781786  0.7698564247534  0.4374770713847 1.0
C      1  0.7090050912908  0.3179393838352  0.3631654675570 1.0
C      1  0.4055519687799  0.2629695402504  0.3428297372369 1.0
C      1  0.2534621095049  0.5062406207724  0.3469092962703 1.0
C      1  0.4391415578602  0.7553181725399  0.3525801255012 1.0
C      1  0.8018194117077  0.6843769054236  0.3599028888841 1.0
C      1  0.5795401432345  0.7753000064718  0.7679800233624 1.0
C      1  0.7456685138829  0.4719274371051  0.7565130452996 1.0
C      1  0.6049176574273  0.2630871479619  0.7199352599666 1.0
C      1  0.2477537359930  0.3715929370786  0.7565371251688 1.0
C      1  0.2621077125774  0.6281890378328  0.7497887036315 1.0
C      1  0.1276237428662  0.3762899451978  0.5829417431387 1.0
C      1  0.2641097007793  0.7849040501220  0.6135731549374 1.0
C      1  0.6888084339903  0.8161832050268  0.5972608451729 1.0
C      1  0.8367800089636  0.4144915709988  0.5795971027872 1.0
C      1  0.4990198157054  0.1357931877708  0.5941503526632 1.0
C      1  0.5747608166381  0.4422786750174  0.8797913865195 1.0
C      1  0.4854765927919  0.3449231521987  0.7754957746245 1.0
C      1  0.4185547020811  0.4914205273538  0.8475204291191 1.0
C      1  0.4131726923848  0.6592996681630  0.8115163072300 1.0
C      1  0.5490924449388  0.5805612620879  0.8866244523036 1.0
C      1  0.7369559796288  0.2219494222509  0.6540806953466 1.0
C      1  0.2826228951401  0.2270460711987  0.6741706901405 1.0
C      1  0.1293671239143  0.5956286249620  0.6796130102472 1.0
C      1  0.4781811158293  0.8766787571443  0.7009663302240 1.0
C      1  0.8240648088799  0.6276065489983  0.6916740642655 1.0
C      1  0.5513134494073  0.4518973801789  0.1077660513842 1.0
C      1  0.4583231982458  0.4275039005196  0.1127003643040 1.0
C      1  0.4076498244253  0.5095502487854  0.1219222642570 1.0
C      1  0.4688625261452  0.5843202828690  0.1225513168293 1.0
C      1  0.5573525691242  0.5477406843445  0.1156499411841 1.0
C      1  0.8399257169862  0.5476575483952  0.4633745205334 1.0
C      1  0.6953931886609  0.2123345555629  0.4975209245872 1.0
C      1  0.2948923223377  0.3186066224170  0.4591114603908 1.0
C      1  0.2654311398570  0.6225058462424  0.4611664277667 1.0
C      1  0.5522011864826  0.8314951329882  0.4760453501700 1.0
C      1  0.3585823690397  0.1510184519775  0.5606978957845 1.0
C      1  0.1447289252371  0.5131408894093  0.5457328437924 1.0
C      1  0.3835659806505  0.8558770326740  0.5804388673547 1.0
C      1  0.8018101429465  0.7255992655590  0.5713655655631 1.0
C      1  0.8322225995134  0.2822502665126  0.5494204916312 1.0
C      1  0.6309891904891  0.4751932886819  0.3298249539247 1.0
C      1  0.5424111447888  0.3512104157178  0.3213742002474 1.0
C      1  0.3999094489611  0.4234912264885  0.3382907130335 1.0
C      1  0.3957754595516  0.5894299876635  0.3468703507084 1.0
C      1  0.5489759268650  0.6176988720301  0.3441075743491 1.0
C      1  0.3278493000922  0.5783237959612  0.5150893557177 1.0
C      1  0.5398889625580  0.7401510597562  0.5115319584820 1.0
C      1  0.7434945931122  0.5164260285532  0.4888502736678 1.0
C      1  0.6355031904216  0.2937510924162  0.5160491396786 1.0
C      1  0.3491961224787  0.3582039832200  0.5266050406585 1.0
C      1  0.4352600304097  0.7401043180345  0.2395800216728 1.0
C      1  0.7027984204108  0.6264369301811  0.2090860171479 1.0
C      1  0.6856205567701  0.3389508456806  0.1938259581928 1.0
C      1  0.4041249902318  0.2687619066363  0.2265840659315 1.0
C      1  0.2549833875487  0.5113385470628  0.2382376086376 1.0
C      1  0.4399543124425  0.3142061003564  0.5474588895966 1.0
C      1  0.3089104129313  0.5473112805500  0.6042831391231 1.0
C      1  0.4812042953891  0.7046964498936  0.5843105163574 1.0
C      1  0.6828120841685  0.5942080714786  0.5434825016098 1.0
C      1  0.6492256774854  0.3814905361435  0.5540398035684 1.0
C      1  0.6410933577342  0.1766409586044  0.2627327245800 1.0
C      1  0.2340048915509  0.2484388089093  0.2758103038021 1.0
C      1  0.1831537182044  0.6674150927861  0.2817353771325 1.0
C      1  0.5736188853828  0.8467680332665  0.2484053592447 1.0
C      1  0.8533434435101  0.5345078281400  0.2433612881113 1.0
C      1  0.4221420050623  0.7640682632280  0.8096781972340 1.0
C      1  0.6802015153055  0.6361657974576  0.7658295097057 1.0
C      1  0.7332890894748  0.3624043652139  0.7584404966379 1.0
C      1  0.3991975014193  0.2811625391149  0.7696485006364 1.0
C      1  0.2121817722530  0.4706762448569  0.7727752642498 1.0
C      1  0.1649229860050  0.2977822147538  0.6120229103855 1.0
C      1  0.1969296146926  0.7267798888247  0.6269613209066 1.0
C      1  0.6141413363216  0.8619588139534  0.6227711249208 1.0
C      1  0.8648532788727  0.4989672742335  0.6133008355854 1.0
C      1  0.5932738129676  0.1475182751510  0.5972140972908 1.0
C      1  0.4920053588361  0.6704746239030  0.4856194623231 1.0
C      1  0.6623653281324  0.5586725650883  0.4575103835899 1.0
C      1  0.5906682810307  0.3674888798466  0.4677969110310 1.0
C      1  0.4863789338583  0.3672975474960  0.4732672495606 1.0
C      1  0.3747267362679  0.5112627400371  0.4746271513195 1.0
C      1  0.5630901097544  0.4985787094189  0.6345187239608 1.0
C      1  0.4947185842843  0.5600736692609  0.6484465905744 1.0
C      1  0.4972671721647  0.4999321728893  0.8915340541122 1.0
C      1  0.4175057277566  0.4356499483872  0.5130553471774 1.0
END
