TITL C-100826-1855-25 -2.857 3375.00 -474.19758864 0 0 60 (D6h) n - 1
REM
REM Run started: at 2020.11.28 00:41:37 in /rds/project/t2_vol4/rds-t2-cs072/BORA/CARBON/AIRSS/Generating-Clusters/Str-Search/Higher-Symm/Only-C60/Try2-TRACK-ENABLED
REM VASP from code version vasp.5.4.4.18Apr17-6-g9f103f2a35 (build Oct 11 2019 16:45:47) gamma-only
REM
REM
REM
REM
REM ./C.cell (5f7b7a0d59291d2373303da1f58b8d66)
REM AIRSS Version 0.9.1 bugfix July 2018 build 013d7b7c2542+ Fri, 06 Jul 2018 19:26:36 +0100
REM compiler GCC version 4.8.5 20150623 (Red Hat 4.8.5-39)
REM options -cpp -mtune=generic -march=x86-64 -g -O0
REM seed 644445205 -2036679353 -1901039803 -2125682027 212346439 -442444722 -663729134 391449234 1448711720 700635024 1985148540 -109946024
REM
REM C.POTCAR (d86ddea03c3ceb6dc662c8ad6801f873)
REM 
CELL 1.54180   15.00000   15.00000   15.00000   90.00000   90.00000   90.00000
LATT -1
SFAC C  
C      1  0.5000807565085  0.4470056971965  0.6050105715416 1.0
C      1  0.4093093621202  0.4470651855968  0.4475652497316 1.0
C      1  0.5909268443448  0.4469729447026  0.4475939382516 1.0
C      1  0.5000801283230  0.5529951252500  0.6050099544720 1.0
C      1  0.4093091149696  0.5529343608876  0.4475645682984 1.0
C      1  0.5909268721918  0.5530266463303  0.4475933854156 1.0
C      1  0.5000800122270  0.4470050257430  0.3949900719935 1.0
C      1  0.4093089596463  0.4470655723067  0.5524355149575 1.0
C      1  0.5909268253959  0.4469733271355  0.5524065137017 1.0
C      1  0.5000804208944  0.5529940685318  0.3949895231079 1.0
C      1  0.4093093000773  0.5529348562815  0.5524348824044 1.0
C      1  0.5909268950913  0.5530270312444  0.5524060259089 1.0
C      1  0.6561564734423  0.3643427697611  0.4097000711863 1.0
C      1  0.4999742431643  0.3646057245477  0.6803804140551 1.0
C      1  0.3438842208234  0.3649642592218  0.4096823452968 1.0
C      1  0.6561565644918  0.6356562036953  0.4096989784993 1.0
C      1  0.4999736882879  0.6353958782020  0.6803791371900 1.0
C      1  0.3438848532786  0.6350351979230  0.4096808732374 1.0
C      1  0.6561566127190  0.3643437997014  0.5903007902121 1.0
C      1  0.4999735406938  0.3646041011121  0.3196208855852 1.0
C      1  0.3438849328267  0.3649648304351  0.5903193896234 1.0
C      1  0.6561565509759  0.6356572443944  0.5902996975928 1.0
C      1  0.4999740909454  0.6353942439665  0.3196196389710 1.0
C      1  0.3438842846393  0.6350357177984  0.5903178711857 1.0
C      1  0.6549028872159  0.3613035824549  0.3131602393708 1.0
C      1  0.5841328650464  0.3610464428032  0.7273611517046 1.0
C      1  0.2610800511818  0.3619235878302  0.4592143403671 1.0
C      1  0.6549036378706  0.6386939134507  0.3131591293812 1.0
C      1  0.5841320857270  0.6389561728830  0.7273600902357 1.0
C      1  0.2610814038063  0.6380768127909  0.4592128059413 1.0
C      1  0.6549038149784  0.3613060533916  0.6868406723845 1.0
C      1  0.5841318630010  0.3610438756923  0.2726397087432 1.0
C      1  0.2610814383241  0.3619232722835  0.5407874941495 1.0
C      1  0.6549030795657  0.6386965050224  0.6868395335331 1.0
C      1  0.5841326823569  0.6389535077914  0.2726386533854 1.0
C      1  0.2610800966900  0.6380764793659  0.5407859485625 1.0
C      1  0.4998530103393  0.7020507472204  0.4049096075392 1.0
C      1  0.5822085681923  0.7021463162945  0.5475270095571 1.0
C      1  0.4175392959756  0.7019286004632  0.5475555417644 1.0
C      1  0.4998521106055  0.2979474093793  0.4049115057978 1.0
C      1  0.5822090767464  0.2978541339335  0.5475285790813 1.0
C      1  0.4175396589827  0.2980718003280  0.5475574468742 1.0
C      1  0.4998521707614  0.7020525653117  0.5950884461371 1.0
C      1  0.5822090533130  0.7021458263777  0.4524713026609 1.0
C      1  0.4175396121527  0.7019281560690  0.4524426205511 1.0
C      1  0.4998530592984  0.2979492513847  0.5950904040028 1.0
C      1  0.5822085249690  0.2978536455767  0.4524728291066 1.0
C      1  0.4175392349117  0.2980713263349  0.4524445277788 1.0
C      1  0.7388977449538  0.3614783364718  0.5407793546799 1.0
C      1  0.3452125103507  0.3623945366826  0.6868181611534 1.0
C      1  0.4158408630930  0.3618776024013  0.2724444577290 1.0
C      1  0.7388973732495  0.6385219396360  0.5407785248092 1.0
C      1  0.3452119473230  0.6376060835976  0.6868163642427 1.0
C      1  0.4158415126438  0.6381212233281  0.2724427148387 1.0
C      1  0.7388973966139  0.3614780935250  0.4592211482103 1.0
C      1  0.3452117762262  0.3623939537129  0.3131838632983 1.0
C      1  0.4158417182244  0.3618787379296  0.7275574299171 1.0
C      1  0.7388977183802  0.6385216679259  0.4592203251539 1.0
C      1  0.3452123343158  0.6376055393431  0.3131820712045 1.0
C      1  0.4158410745350  0.6381224890466  0.7275557037333 1.0
END
