TITL C-10012-4540-19 -6.058 3375.00 -999.50283176 0 0 125 (C1) n - 1
REM
REM Run started: at 2020.12.31 23:02:08 in /gpfs/home/chem/mssmkc/CARBON/AIRSS/Generating-Clusters/Str-Search/Higher-Symm/C100-200
REM VASP from code version vasp.5.4.4.18Apr17-6-g9f103f2a35 (build Oct 11 2019 16:45:47) gamma-only
REM
REM
REM
REM
REM ./C.cell (533062f00bc710175b3da973d35f2034)
REM AIRSS Version 0.9.1 bugfix July 2018 build 013d7b7c2542+ Fri, 06 Jul 2018 19:26:36 +0100
REM compiler GCC version 6.3.0
REM options -cpp -iprefix /gpfs/warwick/csc/orac/software/Core/GCCcore/6.3.0/bin/../lib/gcc/x86_64-pc-linux-gnu/6.3.0/ -mtune=generic -march=x86-64 -g -O0
REM seed -2049868883 -454065807 -1719470338 1272399860 1518272970 1496070390 1618807376 -1401428385 -1851406652 -535121100 -121773057 1526356509
REM
REM C.POTCAR (d86ddea03c3ceb6dc662c8ad6801f873)
REM 
CELL 1.54180   15.00000   15.00000   15.00000   90.00000   90.00000   90.00000
LATT -1
SFAC C  
C      1  0.7455992200852  0.5283457351414  0.8186591005052 1.0
C      1  0.7581976229777  0.6544933239617  0.4430711283077 1.0
C      1  0.7062942844857  0.3411128592853  0.3589783097827 1.0
C      1  0.1228415281367  0.2351152476461  0.5461279020044 1.0
C      1  0.1036731445592  0.6751377494312  0.6870363001488 1.0
C      1  0.1074790746125  0.6107476664685  0.2531289990059 1.0
C      1  0.7788093904903  0.4081539411341  0.3544034646371 1.0
C      1  0.7910053206975  0.3852218150532  0.5516991995688 1.0
C      1  0.8330584884575  0.6034895957102  0.4822363102118 1.0
C      1  0.3532713639842  0.6759886662432  0.2665242218872 1.0
C      1  0.3917773244232  0.2370016901266  0.4062527418337 1.0
C      1  0.3732050980251  0.6676195981621  0.7859087078924 1.0
C      1  0.6907333959430  0.6676372270120  0.7948001997122 1.0
C      1  0.6609118616703  0.6334295773731  0.3043463835086 1.0
C      1  0.6511490063712  0.1545084740122  0.3808500690232 1.0
C      1  0.5882020454026  0.4575729591931  0.8063528972094 1.0
C      1  0.5272475476969  0.7522661308232  0.4856685741289 1.0
C      1  0.4965642431191  0.3337203280347  0.2615898347426 1.0
C      1  0.6570877511719  0.6409145473838  0.0519619677895 1.0
C      1  0.6235424856101  0.2133579849616  0.6319105998997 1.0
C      1  0.5843878798084  0.8697315907160  0.7075141042809 1.0
C      1  0.7748731917281  0.5142865126986  0.3737787587828 1.0
C      1  0.8013085057730  0.3245964192617  0.4802091758715 1.0
C      1  0.8160994920003  0.5446329325187  0.5570725214672 1.0
C      1  0.5426631213262  0.2948867703673  0.4688099895458 1.0
C      1  0.5509370776862  0.6145018347512  0.6936769684813 1.0
C      1  0.5111595899084  0.5993120580842  0.3657770432830 1.0
C      1  0.4150404550258  0.3226806575659  0.6193675773557 1.0
C      1  0.3923954712700  0.6895573928245  0.5687732599987 1.0
C      1  0.3931322784855  0.4855537698432  0.2928520219779 1.0
C      1  0.5000270643618  0.4887909819772  0.1054398466080 1.0
C      1  0.4996843812700  0.2579438399198  0.7372777294655 1.0
C      1  0.4484528183612  0.8347028250225  0.6066023038804 1.0
C      1  0.3715408753840  0.3345640181757  0.5394185100286 1.0
C      1  0.3824570300930  0.6137717299848  0.6320722680969 1.0
C      1  0.3381869278695  0.5417938033432  0.3468205814193 1.0
C      1  0.6155488180349  0.3829330714963  0.5536867682031 1.0
C      1  0.6644530296799  0.5863145610698  0.5967667624462 1.0
C      1  0.6102201672607  0.5010757740733  0.4067973133534 1.0
C      1  0.2496703254840  0.2253966161611  0.7345904370051 1.0
C      1  0.2328627540912  0.7037328014131  0.5059868868959 1.0
C      1  0.2697712443522  0.4832051628188  0.1783114898254 1.0
C      1  0.5616038935202  0.4411333940983  0.1604837003522 1.0
C      1  0.5190134945120  0.3042111607312  0.8162712533479 1.0
C      1  0.5454343312797  0.8096167599159  0.6403985092581 1.0
C      1  0.5842782446955  0.4441308263297  0.3195881178147 1.0
C      1  0.5766575343457  0.3806671677843  0.6513115431369 1.0
C      1  0.6549030668847  0.6762893228428  0.5814278429058 1.0
C      1  0.7019981469045  0.4307024607477  0.5415034625197 1.0
C      1  0.7180664465249  0.5271814423406  0.5467891600833 1.0
C      1  0.6986733219384  0.4903151895658  0.4532239943143 1.0
C      1  0.3593361866544  0.4895824972548  0.1958461302401 1.0
C      1  0.3320313809501  0.2362349865755  0.7313401516798 1.0
C      1  0.3104849958876  0.7420935014645  0.5442099719203 1.0
C      1  0.8476093735566  0.3796028148026  0.4144185902057 1.0
C      1  0.8558805115777  0.4576200728911  0.5458644397844 1.0
C      1  0.8612840960386  0.5359726248857  0.4195958603245 1.0
C      1  0.6561870610238  0.2011515168814  0.5489880335931 1.0
C      1  0.6243609097863  0.8250227761908  0.7673684516515 1.0
C      1  0.6523858857435  0.6142573685204  0.1324866688103 1.0
C      1  0.4741702883154  0.3996094718321  0.6420899892841 1.0
C      1  0.4737398581958  0.6795573465626  0.5145250409028 1.0
C      1  0.4731596265650  0.4249026300273  0.3260314375230 1.0
C      1  0.5867081902876  0.5503773737687  0.8478830285590 1.0
C      1  0.6121473843183  0.7359931877363  0.4341621015106 1.0
C      1  0.5506440953302  0.2710561047740  0.3210661584586 1.0
C      1  0.2501908045465  0.6322452480063  0.4427676221773 1.0
C      1  0.3051299189083  0.2690949572381  0.3693758248587 1.0
C      1  0.2617217916199  0.5006912439801  0.6663731816337 1.0
C      1  0.4786406199531  0.5726785990308  0.6298820773334 1.0
C      1  0.5087870283860  0.5307326347474  0.4459481646574 1.0
C      1  0.5360646415789  0.3830755077282  0.4844339806333 1.0
C      1  0.5271763421510  0.6096161441427  0.7958559691173 1.0
C      1  0.5027119032005  0.6871061141656  0.3212285295252 1.0
C      1  0.4904435539615  0.2451115945517  0.4042401865634 1.0
C      1  0.6090248017947  0.4897746393982  0.2306460945779 1.0
C      1  0.5771118325447  0.2766323572294  0.6767802223995 1.0
C      1  0.5954809402919  0.7107454334304  0.6591316790508 1.0
C      1  0.4216562020926  0.5045027106905  0.1271064843102 1.0
C      1  0.4144737351551  0.2577097792875  0.6956674162785 1.0
C      1  0.3696330242603  0.7862872064529  0.5941951272589 1.0
C      1  0.7049296215306  0.5830045338907  0.7499311194098 1.0
C      1  0.7398960790808  0.6114584802782  0.3585649189830 1.0
C      1  0.7184769288531  0.2835423103383  0.4429523087666 1.0
C      1  0.4511246348832  0.6522613929484  0.8155198064800 1.0
C      1  0.4320024460139  0.7082112117670  0.2695798775247 1.0
C      1  0.4439002333573  0.1552231605188  0.4115906071322 1.0
C      1  0.5170285355720  0.8264514451972  0.5462727284011 1.0
C      1  0.5318612265841  0.3581924744580  0.1838847893781 1.0
C      1  0.5538952919759  0.3762804067785  0.8391873432184 1.0
C      1  0.3825699642308  0.4191982523977  0.4864015189852 1.0
C      1  0.3441595790793  0.5165143408677  0.6109079962862 1.0
C      1  0.3148983106556  0.5590758394804  0.4407447010435 1.0
C      1  0.6434761575302  0.5774707109425  0.2166042104149 1.0
C      1  0.6931301311068  0.1838301414595  0.4593080682860 1.0
C      1  0.6460629175358  0.7354186199787  0.7517552611975 1.0
C      1  0.1165045073503  0.2247102521964  0.6343420448939 1.0
C      1  0.1096733499465  0.7142156065013  0.6061383415263 1.0
C      1  0.1138252278207  0.5531451977925  0.1884240389547 1.0
C      1  0.6079473449219  0.1890357124991  0.3168343107868 1.0
C      1  0.6754848721532  0.5907573583004  0.8540869682230 1.0
C      1  0.6000156777124  0.7128647305245  0.3421693130583 1.0
C      1  0.1612892220785  0.6228227119783  0.7185566735272 1.0
C      1  0.1280494510990  0.6588086211018  0.3226203654077 1.0
C      1  0.1610183435707  0.2484204325953  0.4732198220111 1.0
C      1  0.2476343910792  0.2495010309727  0.4409511118732 1.0
C      1  0.2442997830551  0.5815525255464  0.7095896354209 1.0
C      1  0.2131830893058  0.6435835431197  0.3532418254609 1.0
C      1  0.6843081407304  0.7028083525217  0.4875051419952 1.0
C      1  0.6200238960642  0.3505317353753  0.3319373324981 1.0
C      1  0.6098007621276  0.4562992443611  0.7140478797077 1.0
C      1  0.6332649365127  0.2917774238718  0.5061683147503 1.0
C      1  0.6340967723815  0.5524007338111  0.6847710062882 1.0
C      1  0.5990413538323  0.5833392698310  0.3606584031801 1.0
C      1  0.3320377749135  0.2629372523015  0.4843427618343 1.0
C      1  0.3282119879776  0.6320377185272  0.7160654523023 1.0
C      1  0.2928736572048  0.6192019128521  0.3006831567303 1.0
C      1  0.4382742940847  0.4818581954588  0.6404724753257 1.0
C      1  0.5001697303106  0.5868473763555  0.5281187901408 1.0
C      1  0.4668918341441  0.4360352975170  0.4342353089012 1.0
C      1  0.1467787940415  0.7304601811487  0.5328992290834 1.0
C      1  0.1889288729037  0.5072826147255  0.1776786528857 1.0
C      1  0.1684203183645  0.2187867115596  0.6997664963561 1.0
C      1  0.3383553820845  0.4980503519622  0.5109928545214 1.0
C      1  0.8927824117839  0.4537719735419  0.4568145082198 1.0
END
