TITL C-10682-722-52 -2.047 3375.00 -324.54932976 0 0 41 (C3) n - 1
REM
REM Run started: at 2020.12.29 11:14:22 in /gpfs/home/chem/mssmkc/CARBON/AIRSS/Generating-Clusters/Str-Search/Higher-Symm/C4-100
REM VASP from code version vasp.5.4.4.18Apr17-6-g9f103f2a35 (build Oct 11 2019 16:45:47) gamma-only
REM
REM
REM
REM
REM ./C.cell (6bd13a13d554368a30d355f37ece5b26)
REM AIRSS Version 0.9.1 bugfix July 2018 build 013d7b7c2542+ Fri, 06 Jul 2018 19:26:36 +0100
REM compiler GCC version 6.3.0
REM options -cpp -iprefix /gpfs/warwick/csc/orac/software/Core/GCCcore/6.3.0/bin/../lib/gcc/x86_64-pc-linux-gnu/6.3.0/ -mtune=generic -march=x86-64 -g -O0
REM seed -527769522 958420516 -115900465 914607117 -1657250903 303004807 -2134356501 -607892394 -679176513 1251981907 -2068416555 1350855154
REM
REM C.POTCAR (d86ddea03c3ceb6dc662c8ad6801f873)
REM 
CELL 1.54180   15.00000   15.00000   15.00000   90.00000   90.00000   90.00000
LATT -1
SFAC C  
C      1  0.6683351166887  0.5864517396631  0.4539076087485 1.0
C      1  0.6683858908218  0.4136984854247  0.4507471549103 1.0
C      1  0.6681922464177  0.4971888506929  0.6018769869529 1.0
C      1  0.3225759915969  0.3688509446321  0.5317687703720 1.0
C      1  0.3224382010105  0.5909718511931  0.6006061543244 1.0
C      1  0.3223768780312  0.5393075337234  0.3740534885185 1.0
C      1  0.6638045007930  0.4336690799011  0.3591783122530 1.0
C      1  0.6635290554334  0.4078561313634  0.6304955602449 1.0
C      1  0.6639214850926  0.6560564101138  0.5167116076856 1.0
C      1  0.2858515468439  0.6139399063859  0.5155602492302 1.0
C      1  0.2856255560624  0.4541481465439  0.3964633693501 1.0
C      1  0.2860976696676  0.4310401885300  0.5942929457411 1.0
C      1  0.4895559064118  0.2932318828887  0.5161568471973 1.0
C      1  0.4895780438909  0.6147670431990  0.6734973235801 1.0
C      1  0.4895048704483  0.5900961896938  0.3164384570771 1.0
C      1  0.6165070547278  0.6100605413329  0.3755374619435 1.0
C      1  0.6166411278172  0.3337638239646  0.4690388098044 1.0
C      1  0.6164657815846  0.5533772317624  0.6615212056695 1.0
C      1  0.2873114270807  0.6065276344042  0.4324571240080 1.0
C      1  0.2872188801153  0.3859971947911  0.4445633288549 1.0
C      1  0.2872368414891  0.5067549352420  0.6292941592022 1.0
C      1  0.5277474614099  0.6550072105630  0.3850124840726 1.0
C      1  0.5276815254456  0.3199001352345  0.4255251806295 1.0
C      1  0.5276047997537  0.5229811924573  0.6957781526040 1.0
C      1  0.4920433505797  0.4527869849057  0.6572864501964 1.0
C      1  0.4920915888060  0.6570095171795  0.4650102236795 1.0
C      1  0.4922305385594  0.3885943704915  0.3843647173090 1.0
C      1  0.6227262236386  0.6914129529669  0.5797467433050 1.0
C      1  0.6223188910668  0.4700757418122  0.2968960853264 1.0
C      1  0.6228808139746  0.3352789560641  0.6294248884767 1.0
C      1  0.5792338530180  0.5536620007804  0.3074775711746 1.0
C      1  0.5794131097099  0.3028110132786  0.5519195779826 1.0
C      1  0.5794158657380  0.6406950105825  0.6468079026003 1.0
C      1  0.4144425382351  0.5344451317180  0.3460380006720 1.0
C      1  0.4146360870257  0.3467551019345  0.5496406203690 1.0
C      1  0.4145891990281  0.6171328641195  0.6104936590894 1.0
C      1  0.4550917928914  0.4328942326084  0.5786370947568 1.0
C      1  0.4550488866776  0.5988310968855  0.5215081672156 1.0
C      1  0.4549065440835  0.4665092297772  0.4063612924065 1.0
C      1  0.4595215519307  0.4993844909723  0.5021866516454 1.0
C      1  0.6782175064023  0.4991536202221  0.5021800108201 1.0
END
