TITL C-10576-9345-3 -0.703 3375.00 -99.20416225 0 0 13 (Cs) n - 1
REM
REM Run started: at 2020.12.13 09:36:26 in /gpfs/home/chem/mssmkc/CARBON/AIRSS/Generating-Clusters/Str-Search/Higher-Symm
REM VASP from code version vasp.5.4.4.18Apr17-6-g9f103f2a35 (build Oct 11 2019 16:45:47) gamma-only
REM
REM
REM
REM
REM ./C.cell (e5ae0387ce4d49c7c0135a1433873289)
REM AIRSS Version 0.9.1 bugfix July 2018 build 013d7b7c2542+ Fri, 06 Jul 2018 19:26:36 +0100
REM compiler GCC version 6.3.0
REM options -cpp -iprefix /gpfs/warwick/csc/orac/software/Core/GCCcore/6.3.0/bin/../lib/gcc/x86_64-pc-linux-gnu/6.3.0/ -mtune=generic -march=x86-64 -g -O0
REM seed -501624872 325022516 -653149920 1122046601 -1038161215 1091619109 2144173463 -991218246 1773029486 -179674641 330086519 -1398039136
REM
REM C.POTCAR (d86ddea03c3ceb6dc662c8ad6801f873)
REM 
CELL 1.54180   15.00000   15.00000   15.00000   90.00000   90.00000   90.00000
LATT -1
SFAC C  
C      1  0.6049097048124  0.5203188217399  0.3936249423046 1.0
C      1  0.4534364138198  0.5650408082271  0.4037316029901 1.0
C      1  0.4778841189784  0.4086373027417  0.3941540978992 1.0
C      1  0.5745794008056  0.5466334954303  0.6110844862458 1.0
C      1  0.4847606281106  0.5292155253030  0.6235685601403 1.0
C      1  0.4548601921071  0.4427317061474  0.6113249220386 1.0
C      1  0.6383504313906  0.5590737084489  0.5562021700379 1.0
C      1  0.4296905758387  0.5931122843667  0.5721563687576 1.0
C      1  0.4354123774484  0.3804761207211  0.5568157849541 1.0
C      1  0.6377661199051  0.5424493217696  0.4684847803172 1.0
C      1  0.4355172552033  0.5862851042381  0.4857355530363 1.0
C      1  0.4520345818982  0.3787383548570  0.4690253698596 1.0
C      1  0.5141002996816  0.4954528460093  0.3836569614186 1.0
END
