TITL C-10682-722-95 -1.157 3375.00 -174.28714819 0 0 22 (C2h) n - 1
REM
REM Run started: at 2020.12.29 19:29:03 in /gpfs/home/chem/mssmkc/CARBON/AIRSS/Generating-Clusters/Str-Search/Higher-Symm/C4-100
REM VASP from code version vasp.5.4.4.18Apr17-6-g9f103f2a35 (build Oct 11 2019 16:45:47) gamma-only
REM
REM
REM
REM
REM ./C.cell (6bd13a13d554368a30d355f37ece5b26)
REM AIRSS Version 0.9.1 bugfix July 2018 build 013d7b7c2542+ Fri, 06 Jul 2018 19:26:36 +0100
REM compiler GCC version 6.3.0
REM options -cpp -iprefix /gpfs/warwick/csc/orac/software/Core/GCCcore/6.3.0/bin/../lib/gcc/x86_64-pc-linux-gnu/6.3.0/ -mtune=generic -march=x86-64 -g -O0
REM seed 1306199641 -1758993678 935900105 -1600849836 -1346794255 -1580427177 -1716515978 -41755303 -302065869 882015790 -1434781840 -553533680
REM
REM C.POTCAR (d86ddea03c3ceb6dc662c8ad6801f873)
REM 
CELL 1.54180   15.00000   15.00000   15.00000   90.00000   90.00000   90.00000
LATT -1
SFAC C  
C      1  0.4602473374641  0.3783797141564  0.4315746717948 1.0
C      1  0.6515024002402  0.4419638928382  0.4439965710539 1.0
C      1  0.5573847879020  0.6210872393228  0.4317693565449 1.0
C      1  0.3309250479734  0.5723314239576  0.4183508811180 1.0
C      1  0.4517226741307  0.3828131513526  0.5949695942118 1.0
C      1  0.6771196087026  0.4323232164202  0.6069050802895 1.0
C      1  0.5490466743864  0.6254682893013  0.5945516926922 1.0
C      1  0.3580166759657  0.5621096224694  0.5818103518869 1.0
C      1  0.5867377107481  0.4683626166114  0.3877302333570 1.0
C      1  0.5497098502301  0.5591673981154  0.3667688680192 1.0
C      1  0.3800801147762  0.5503847875260  0.3537783992738 1.0
C      1  0.4978901191165  0.4278943100676  0.3659711929571 1.0
C      1  0.6285721529703  0.4525035785910  0.6724148349141 1.0
C      1  0.5115382561099  0.5758290327735  0.6598824142309 1.0
C      1  0.4223581102319  0.5357154603789  0.6386577323353 1.0
C      1  0.4588331264320  0.4448599868017  0.6599307893479 1.0
C      1  0.4461837093093  0.3551663922313  0.5134078835962 1.0
C      1  0.6858259539507  0.4282720011498  0.5194400541542 1.0
C      1  0.3247418586482  0.5757621945459  0.5059847007037 1.0
C      1  0.5634360432517  0.6496346012805  0.5130313804436 1.0
C      1  0.5454694595256  0.4860543766808  0.6885296883770 1.0
C      1  0.4633811279344  0.5173875134278  0.3376396286978 1.0
END
