TITL C-107434-8238-3 -6.174 3375.00 -1093.63389693 0 0 131 (C1) n - 1
REM
REM Run started: at 2020.12.23 05:28:00 in /rds/project/t2_vol4/rds-t2-cs072/BORA/CARBON/AIRSS/Generating-Clusters/Str-Search/Higher-Symm/C100-200
REM VASP from code version vasp.5.4.4.18Apr17-6-g9f103f2a35 (build Oct 11 2019 16:45:47) gamma-only
REM
REM
REM
REM
REM ./C.cell (533062f00bc710175b3da973d35f2034)
REM AIRSS Version 0.9.1 bugfix July 2018 build 013d7b7c2542+ Fri, 06 Jul 2018 19:26:36 +0100
REM compiler GCC version 4.8.5 20150623 (Red Hat 4.8.5-39)
REM options -cpp -mtune=generic -march=x86-64 -g -O0
REM seed -1618075662 -449479492 -2067999798 -1284918344 -328073593 -585014255 234760389 171997896 -2135387484 -642895404 -1883309955 -1600902967
REM
REM C.POTCAR (d86ddea03c3ceb6dc662c8ad6801f873)
REM 
CELL 1.54180   15.00000   15.00000   15.00000   90.00000   90.00000   90.00000
LATT -1
SFAC C  
C      1  0.2219355962370  0.5464105315296  0.5112675097127 1.0
C      1  0.4947614857923  0.5474640613500  0.2150871984026 1.0
C      1  0.8329088507695  0.5453979834851  0.4784466131156 1.0
C      1  0.5237822581319  0.5471551790500  0.7980265566090 1.0
C      1  0.2167622802127  0.4531609949803  0.5129307683289 1.0
C      1  0.4967326853075  0.4543314428309  0.2117811457818 1.0
C      1  0.8123124019043  0.4525135590287  0.4877077217635 1.0
C      1  0.5259712661766  0.4572114833287  0.8049228772392 1.0
C      1  0.5997417747315  0.4804028880567  0.5104225660623 1.0
C      1  0.4565812691102  0.4343324018474  0.6040745767560 1.0
C      1  0.4226726308279  0.4507025165494  0.4594351600302 1.0
C      1  0.5605524865168  0.4783030988070  0.3818676681079 1.0
C      1  0.5972558415936  0.5752771668347  0.5396604584220 1.0
C      1  0.4607525674969  0.5338502373995  0.5909687878414 1.0
C      1  0.3956016495377  0.5489299289961  0.4490327841437 1.0
C      1  0.5334484688484  0.5728322749083  0.3926809603697 1.0
C      1  0.7798843953433  0.3758510135291  0.6336419614246 1.0
C      1  0.3834311029539  0.3794778770098  0.7906363496793 1.0
C      1  0.2210710604103  0.3744493336224  0.3635928509130 1.0
C      1  0.6389978171554  0.3696321563467  0.2354010218095 1.0
C      1  0.7795921327569  0.6167241705600  0.6240964161238 1.0
C      1  0.3802866394169  0.6192157661568  0.7891472424117 1.0
C      1  0.2199531859611  0.6226711311379  0.3613150819063 1.0
C      1  0.6411067396087  0.6242308288183  0.2391724097859 1.0
C      1  0.2553437439047  0.5445336700205  0.3138620348498 1.0
C      1  0.7010903313883  0.5464114907961  0.2589046367661 1.0
C      1  0.7480249196214  0.5489014215628  0.6822775150840 1.0
C      1  0.3286891854532  0.5486567170787  0.7524440870130 1.0
C      1  0.2562774391620  0.4509842604247  0.3165873850398 1.0
C      1  0.6988957723031  0.4466570020655  0.2586324036844 1.0
C      1  0.7485091644338  0.4459065182842  0.6885310984980 1.0
C      1  0.3290905946518  0.4479999355470  0.7529247660344 1.0
C      1  0.3821138593985  0.7866084638495  0.3219064683656 1.0
C      1  0.6687425514175  0.7726967794333  0.4257975636731 1.0
C      1  0.5810881173741  0.7569732144682  0.6655447475978 1.0
C      1  0.3400689631410  0.7565058002997  0.5995277592532 1.0
C      1  0.4128128107741  0.2411230988773  0.3332243993597 1.0
C      1  0.6553919330432  0.2245205402786  0.4350782990685 1.0
C      1  0.5895818172707  0.2351941258860  0.6816757688223 1.0
C      1  0.3419915863384  0.2518840429626  0.6085445635864 1.0
C      1  0.2479187411148  0.2805502945003  0.6005177966202 1.0
C      1  0.4061150040023  0.2796698454257  0.2426658690592 1.0
C      1  0.7393806200310  0.2716507616387  0.4322593799074 1.0
C      1  0.5878516880541  0.2743339492666  0.7758387251384 1.0
C      1  0.2515801721618  0.7169454739117  0.5937303869061 1.0
C      1  0.4006237960811  0.7259632517196  0.2493607582404 1.0
C      1  0.7547545864413  0.7274789549500  0.4226811927721 1.0
C      1  0.5821963713357  0.7213792256074  0.7597858574956 1.0
C      1  0.7532987096353  0.4043648350183  0.3280729783627 1.0
C      1  0.6742748292766  0.4078198152909  0.7411218092882 1.0
C      1  0.2732596455622  0.4121657598368  0.6796560430754 1.0
C      1  0.3294511945113  0.4149096638526  0.2601731155840 1.0
C      1  0.7708407208103  0.5894046858621  0.3166130918089 1.0
C      1  0.6738384886928  0.5905988857459  0.7319476664138 1.0
C      1  0.2762012333871  0.5833568567300  0.6768111189656 1.0
C      1  0.3255834063121  0.5791722532188  0.2547375310941 1.0
C      1  0.4397642917723  0.5840936601453  0.3698620550987 1.0
C      1  0.5662605141919  0.6262640416534  0.4680508217987 1.0
C      1  0.5392468912116  0.5913559131482  0.6233159484381 1.0
C      1  0.3841989829385  0.5763480434255  0.5439075550321 1.0
C      1  0.4672249245495  0.4131079456585  0.3740061685543 1.0
C      1  0.6447058226878  0.4560593086549  0.4326680211959 1.0
C      1  0.5285160244024  0.3972817753738  0.6572628707290 1.0
C      1  0.3766149923113  0.3983568602317  0.5429299586525 1.0
C      1  0.2261479974167  0.2917695845751  0.5052296209649 1.0
C      1  0.4972758425567  0.2942773403680  0.2319415459795 1.0
C      1  0.7748930359579  0.2991202955897  0.5145977857104 1.0
C      1  0.4971955142125  0.2948947182024  0.8096112483134 1.0
C      1  0.2267884743548  0.7117531235309  0.4994162472158 1.0
C      1  0.4971448783007  0.7079029700776  0.2463760203982 1.0
C      1  0.7854795891331  0.6987200617650  0.5079661896140 1.0
C      1  0.4937723593557  0.7051978367425  0.7983092340432 1.0
C      1  0.3211510342804  0.3251191753249  0.2430256839631 1.0
C      1  0.7431250511281  0.3136244376231  0.3439588125538 1.0
C      1  0.6601158267882  0.3301980107331  0.7849728432539 1.0
C      1  0.2322965384551  0.3326275411894  0.6736670862873 1.0
C      1  0.3215174817755  0.6711369314832  0.2452527062406 1.0
C      1  0.7564985207877  0.6825417202474  0.3352893640960 1.0
C      1  0.6558236823404  0.6689733156091  0.7709017531933 1.0
C      1  0.2340614555846  0.6594118456887  0.6615787148277 1.0
C      1  0.2965863474479  0.7698835508693  0.3610386034441 1.0
C      1  0.6230240236666  0.7583193002350  0.3401677994555 1.0
C      1  0.6582885534540  0.7580024478970  0.5983206066316 1.0
C      1  0.3986288541202  0.7605498146555  0.6753932288256 1.0
C      1  0.3192100903706  0.2387910426830  0.3738529199895 1.0
C      1  0.6130245329061  0.2341695441979  0.3458295307468 1.0
C      1  0.6597120095235  0.2328193078699  0.6079088601030 1.0
C      1  0.4056969061607  0.2414020157559  0.6769067427334 1.0
C      1  0.5476277699455  0.6293672585535  0.2169007201196 1.0
C      1  0.8250694057324  0.6165510866767  0.5361238007969 1.0
C      1  0.4702092046608  0.6180263222560  0.8280772013406 1.0
C      1  0.2053315130043  0.6278052763530  0.4564654912452 1.0
C      1  0.5496885852856  0.3719705821914  0.2067316880436 1.0
C      1  0.8166771537184  0.3812489323428  0.5429327294771 1.0
C      1  0.4726210241647  0.3842304592518  0.8334740702803 1.0
C      1  0.1998462166794  0.3727589786290  0.4582368132860 1.0
C      1  0.3680660415357  0.7787453244571  0.5098467335279 1.0
C      1  0.4606484745307  0.7931582930788  0.3750833759529 1.0
C      1  0.5353488199050  0.7189156781825  0.5050712378151 1.0
C      1  0.5230124105757  0.6923685440322  0.6028475237931 1.0
C      1  0.3779126951854  0.2891657154351  0.5227650731998 1.0
C      1  0.4725277319778  0.3094029086689  0.3886334327940 1.0
C      1  0.5207008473340  0.2198379124032  0.5340283431839 1.0
C      1  0.5420229406716  0.3119743523291  0.6468184541248 1.0
C      1  0.7380185653465  0.2853853583840  0.6026413140956 1.0
C      1  0.4104900295261  0.2838109940042  0.7620167088059 1.0
C      1  0.2656967188767  0.2976531942529  0.3196629662192 1.0
C      1  0.6674708955054  0.2891054667848  0.2904681629094 1.0
C      1  0.7386866073874  0.7071048120888  0.5946746239181 1.0
C      1  0.4042619471515  0.7148163754993  0.7568565222772 1.0
C      1  0.2561263369476  0.6982585299570  0.3139408158367 1.0
C      1  0.6771649050050  0.7007957802556  0.2871997103263 1.0
C      1  0.2889515476668  0.7701141036440  0.4535938621868 1.0
C      1  0.5336298208542  0.7626615428487  0.3185660524009 1.0
C      1  0.6232776173913  0.7710222609483  0.5075970163051 1.0
C      1  0.4882694756706  0.7758227830219  0.6403949807981 1.0
C      1  0.3045023115687  0.2570400750405  0.4620107668379 1.0
C      1  0.5189499269039  0.2489238616154  0.3221808328883 1.0
C      1  0.6166886752843  0.2109873041561  0.5215107440992 1.0
C      1  0.4977499261931  0.2274728349500  0.6332300315101 1.0
C      1  0.4218051750182  0.4464646635841  0.2807268888658 1.0
C      1  0.7492234611562  0.4575209451743  0.4090766614212 1.0
C      1  0.5843163609106  0.4486355348454  0.7210751318617 1.0
C      1  0.2916827299842  0.4432621008642  0.5828347907364 1.0
C      1  0.4163159665984  0.5470814394028  0.2793450744534 1.0
C      1  0.7927094540407  0.5441870611764  0.3915444983644 1.0
C      1  0.5815313958592  0.5523241318496  0.7134055672128 1.0
C      1  0.2972369144944  0.5484477264168  0.5812141848519 1.0
C      1  0.4552709702344  0.7728946182655  0.4676070186062 1.0
C      1  0.4654663484559  0.2696256032106  0.4810695753669 1.0
C      1  0.5014103530317  0.4670631711397  0.5221973556108 1.0
END
