TITL C-10012-4540-22 -8.207 3375.00 -1364.87705994 0 0 167 (C1) n - 1
REM
REM Run started: at 2021.01.01 01:44:42 in /gpfs/home/chem/mssmkc/CARBON/AIRSS/Generating-Clusters/Str-Search/Higher-Symm/C100-200
REM VASP from code version vasp.5.4.4.18Apr17-6-g9f103f2a35 (build Oct 11 2019 16:45:47) gamma-only
REM
REM
REM
REM
REM ./C.cell (533062f00bc710175b3da973d35f2034)
REM AIRSS Version 0.9.1 bugfix July 2018 build 013d7b7c2542+ Fri, 06 Jul 2018 19:26:36 +0100
REM compiler GCC version 6.3.0
REM options -cpp -iprefix /gpfs/warwick/csc/orac/software/Core/GCCcore/6.3.0/bin/../lib/gcc/x86_64-pc-linux-gnu/6.3.0/ -mtune=generic -march=x86-64 -g -O0
REM seed -1951261983 -1333669137 842540152 -216654708 -1482766140 -1410905707 1837797262 -1304268633 134884679 2133673498 -1275571312 -663676221
REM
REM C.POTCAR (d86ddea03c3ceb6dc662c8ad6801f873)
REM 
CELL 1.54180   15.00000   15.00000   15.00000   90.00000   90.00000   90.00000
LATT -1
SFAC C  
C      1  0.4396826829967  0.1697568094212  0.8074628860476 1.0
C      1  0.5698732784533  0.7883641666861  0.8079602524725 1.0
C      1  0.5671489343451  0.1934376409482  0.2934793587859 1.0
C      1  0.4423154899161  0.7906743387163  0.1517809707072 1.0
C      1  0.2118799779997  0.4841236587585  0.8285067353100 1.0
C      1  0.7647157232462  0.5267871467159  0.7785563868309 1.0
C      1  0.2014754873010  0.5171187384133  0.2755569821507 1.0
C      1  0.7992071198314  0.4688396405390  0.1557816481698 1.0
C      1  0.4925521135368  0.3393809251922  0.2257101609990 1.0
C      1  0.5296714476654  0.6827818730070  0.2607602921615 1.0
C      1  0.5867742738620  0.2394302125009  0.7759979747106 1.0
C      1  0.4162772306417  0.7573070881373  0.7760054848910 1.0
C      1  0.3554822370797  0.4684800144736  0.2183583788659 1.0
C      1  0.6707308953433  0.5622081875920  0.2416422780625 1.0
C      1  0.2964145246316  0.6222058694342  0.7730900538383 1.0
C      1  0.7192018088011  0.3757833925174  0.7937300101430 1.0
C      1  0.6233242309870  0.7766903329894  0.3779808686953 1.0
C      1  0.3893133349680  0.2325776587377  0.2980322520507 1.0
C      1  0.3537039883313  0.8111231674162  0.6386620790234 1.0
C      1  0.6474911535525  0.2145726758017  0.6144343475033 1.0
C      1  0.7560627305213  0.6420401439823  0.3741338406271 1.0
C      1  0.2574680994096  0.3534789062981  0.2806529985330 1.0
C      1  0.7681120345999  0.3466884395569  0.6471577926651 1.0
C      1  0.2311892668814  0.6759659430964  0.6294943845636 1.0
C      1  0.6897248913811  0.6329406530763  0.6725169598436 1.0
C      1  0.2950900942663  0.3772783849542  0.7312286381378 1.0
C      1  0.2869997819721  0.6440543792188  0.3354461991001 1.0
C      1  0.7395081587306  0.3736862867341  0.2969475343921 1.0
C      1  0.6588995317031  0.7333275107989  0.6599362715211 1.0
C      1  0.3548268608183  0.2941541780548  0.7241893632175 1.0
C      1  0.6817655260789  0.2976862878084  0.3359091944839 1.0
C      1  0.3660118769456  0.7045824331194  0.2932952381272 1.0
C      1  0.2482829602907  0.4916865102138  0.6332784332215 1.0
C      1  0.7223758351696  0.5083271260358  0.5895281890326 1.0
C      1  0.7873607513348  0.4799043481640  0.4053295305646 1.0
C      1  0.2206202940293  0.4898547900820  0.3732726979463 1.0
C      1  0.4493646599679  0.2281458802238  0.6122181518111 1.0
C      1  0.5229937420500  0.8008781414779  0.5692939552286 1.0
C      1  0.4671032644284  0.8063101967637  0.3662536103655 1.0
C      1  0.5413802711693  0.2321948953972  0.3867186146859 1.0
C      1  0.2780503859555  0.8549432043729  0.4916158700802 1.0
C      1  0.7768120253774  0.2418541733956  0.4804068720355 1.0
C      1  0.7557720262141  0.7841457855312  0.5049543655232 1.0
C      1  0.2935708062488  0.2059380098010  0.4284342245075 1.0
C      1  0.8525002043948  0.2911950157956  0.5212348774900 1.0
C      1  0.2360065202860  0.7674788685316  0.4714559338651 1.0
C      1  0.8458830561660  0.7697931801490  0.4659116721871 1.0
C      1  0.2358821869847  0.2879367864682  0.4057374601947 1.0
C      1  0.2583712804859  0.7297028311535  0.3886295314263 1.0
C      1  0.8154848291680  0.3374819567005  0.3538725049236 1.0
C      1  0.7622350156965  0.6525961381763  0.6033782882918 1.0
C      1  0.2395557873390  0.3378284365226  0.6533225565766 1.0
C      1  0.7608148496883  0.2698167450216  0.3933193871646 1.0
C      1  0.3231246939373  0.7794333086515  0.3425277169726 1.0
C      1  0.7355961407965  0.7388044015415  0.5895231451694 1.0
C      1  0.2984111838423  0.2654851761148  0.6418076871255 1.0
C      1  0.6123845529880  0.4020338326003  0.0908186994055 1.0
C      1  0.4301501574760  0.5501416280291  0.0214218707212 1.0
C      1  0.4962341407016  0.3452973010041  0.8850582486564 1.0
C      1  0.6213787873790  0.5545017211710  0.8703265572399 1.0
C      1  0.3869533141050  0.6058108813439  0.0646478610868 1.0
C      1  0.5510536133887  0.4484163183881  0.0588543318109 1.0
C      1  0.4159095806014  0.2988081592380  0.8850864598632 1.0
C      1  0.5968936780341  0.4664158422820  0.8779067673417 1.0
C      1  0.4788225417745  0.3773835206617  0.6352809436423 1.0
C      1  0.4882218476660  0.6890576248979  0.6532071660083 1.0
C      1  0.5275245555785  0.3838931648936  0.3634156319094 1.0
C      1  0.5062201691591  0.6264158366196  0.3833164894097 1.0
C      1  0.4001349695582  0.5227817758671  0.6764401746926 1.0
C      1  0.5754817636772  0.4903807331429  0.6348278306020 1.0
C      1  0.3781827460179  0.4998672178190  0.3623377266100 1.0
C      1  0.6429137682836  0.5044852565571  0.3562184704322 1.0
C      1  0.6495020513583  0.7741713353197  0.7538844925888 1.0
C      1  0.3733008110110  0.2390721907011  0.8104328341554 1.0
C      1  0.3841816226033  0.7102635385802  0.1906403457612 1.0
C      1  0.6503412789104  0.2351603889740  0.2662869162330 1.0
C      1  0.7147193105463  0.6026815309575  0.7666233701021 1.0
C      1  0.2422241594319  0.3956777565931  0.8208910278614 1.0
C      1  0.7338665610717  0.4009223449712  0.1983699474334 1.0
C      1  0.2304054020844  0.6089680761681  0.2594175910058 1.0
C      1  0.3446012507270  0.9042762287245  0.4449227965181 1.0
C      1  0.4848971197480  0.1175065165667  0.4800145083810 1.0
C      1  0.4787082102869  0.9388205871682  0.5014783391787 1.0
C      1  0.3397347709011  0.1623873476452  0.4976072125871 1.0
C      1  0.8860616699726  0.3770229007808  0.4956626262208 1.0
C      1  0.0753286841034  0.4791047323491  0.4693529478189 1.0
C      1  0.8818206300410  0.5296258158500  0.5612228309293 1.0
C      1  0.0952853411539  0.4224005990552  0.6032257009213 1.0
C      1  0.7030545131935  0.7833868142140  0.4229862490041 1.0
C      1  0.3074257525919  0.2019295310670  0.3290317635023 1.0
C      1  0.2786868694238  0.8274856872063  0.5836330459799 1.0
C      1  0.7302382414272  0.2198047104560  0.5676799291410 1.0
C      1  0.7807483253330  0.7291073169709  0.4067508713403 1.0
C      1  0.2361915431216  0.2678404210522  0.3116904263676 1.0
C      1  0.8084780089554  0.2764358799281  0.6034714295323 1.0
C      1  0.2234975344755  0.7463307129467  0.5694141649438 1.0
C      1  0.4614550803303  0.7101119950965  0.3347655583743 1.0
C      1  0.5929026403990  0.3193496894414  0.3799846487739 1.0
C      1  0.5679355117633  0.7428539310198  0.6223045133960 1.0
C      1  0.4347023955261  0.3058991781671  0.6693242357497 1.0
C      1  0.7206330873794  0.4528512854735  0.3503772460146 1.0
C      1  0.3033965113304  0.5532563165949  0.3784490479840 1.0
C      1  0.6463381696087  0.5543481126654  0.6269383946194 1.0
C      1  0.3213893140903  0.4599747947481  0.6809837691733 1.0
C      1  0.5470311656109  0.8262700601777  0.4080272420988 1.0
C      1  0.4461484996566  0.2609561125661  0.3730691977464 1.0
C      1  0.4317619099345  0.7644768766652  0.5963101041249 1.0
C      1  0.5503140228296  0.2366838846671  0.5696666255054 1.0
C      1  0.7550959237904  0.5660482803628  0.4466076072709 1.0
C      1  0.2637026185313  0.3914090090058  0.3763453445899 1.0
C      1  0.7160326737412  0.4163588498937  0.6026904664957 1.0
C      1  0.2689641517094  0.5842982351171  0.6058216407977 1.0
C      1  0.7913398028288  0.5697907453028  0.5486311062130 1.0
C      1  0.1824212496770  0.4160045860941  0.6226162588281 1.0
C      1  0.1409412246297  0.4989505263338  0.4253477111880 1.0
C      1  0.8476036910621  0.4045661947017  0.4139626160854 1.0
C      1  0.5323752613605  0.8677894201512  0.4974791038333 1.0
C      1  0.3594856907064  0.2088891489277  0.5820361132111 1.0
C      1  0.5386384062656  0.1873786338358  0.4777065218285 1.0
C      1  0.3797844640083  0.8454359280969  0.3767425759895 1.0
C      1  0.3622906487750  0.4087685235688  0.3905136433946 1.0
C      1  0.6475826246586  0.5628467210010  0.4314804709320 1.0
C      1  0.6187231517902  0.4049233374944  0.6039325952239 1.0
C      1  0.3651614475975  0.5921176329179  0.6045699393087 1.0
C      1  0.4370991600571  0.3528376761386  0.3943739409963 1.0
C      1  0.5711481965359  0.6169140317974  0.4484942127255 1.0
C      1  0.4237579625192  0.6627251214190  0.5850443860795 1.0
C      1  0.5553402964619  0.3409478129556  0.5853206371807 1.0
C      1  0.6215083590121  0.7096579325704  0.3024312600534 1.0
C      1  0.4034938574401  0.3083851822021  0.2330109178723 1.0
C      1  0.3326143418705  0.7698323566328  0.7228969082726 1.0
C      1  0.6541856857259  0.2463875652882  0.7088870861658 1.0
C      1  0.6902891411185  0.6453306773637  0.2982271691427 1.0
C      1  0.3349099628835  0.3755718104495  0.2283681618916 1.0
C      1  0.7185617448603  0.3131856637411  0.7235878217611 1.0
C      1  0.2696184720087  0.7001124871787  0.7182151834617 1.0
C      1  0.4831463938660  0.8103342193227  0.8057917725244 1.0
C      1  0.5172799343626  0.1749170349746  0.7767827369895 1.0
C      1  0.4893744883047  0.7232866794474  0.1811935570447 1.0
C      1  0.5523441387931  0.2608839092092  0.2209704357902 1.0
C      1  0.7829644012421  0.4471384840051  0.7936397566424 1.0
C      1  0.2384107299624  0.5589144989559  0.8042158433474 1.0
C      1  0.7328431872537  0.5109777655690  0.1947798907626 1.0
C      1  0.2714727102746  0.5170420695308  0.2070337284352 1.0
C      1  0.6676479851421  0.3539165865386  0.1475352149201 1.0
C      1  0.2632707584829  0.6047549512379  0.1694291412762 1.0
C      1  0.2566779454669  0.3357669850546  0.8853457372248 1.0
C      1  0.6585864188706  0.6323485974096  0.8409489197252 1.0
C      1  0.3413764303046  0.6475308157604  0.1350560363861 1.0
C      1  0.6375733147443  0.2668644144730  0.1772035827387 1.0
C      1  0.3267893686276  0.2782974590519  0.8902992832747 1.0
C      1  0.6382517609050  0.7251542264423  0.8317273510307 1.0
C      1  0.5746644723014  0.3156261445929  0.8340156077116 1.0
C      1  0.4465745644612  0.6695918740995  0.7419741391453 1.0
C      1  0.5150975933672  0.4324050179553  0.2731574435449 1.0
C      1  0.5112669780656  0.5818436652486  0.2892717016887 1.0
C      1  0.3908133696068  0.5976124669290  0.7505636310703 1.0
C      1  0.6384513630198  0.3850616128777  0.8393776367324 1.0
C      1  0.4363864653094  0.5035714182091  0.2770391621701 1.0
C      1  0.5851094257154  0.5155683700094  0.2771517269991 1.0
C      1  0.4037912329471  0.0818614877401  0.4808550149325 1.0
C      1  0.4026050656723  0.9799129437305  0.4812551568658 1.0
C      1  0.0302262559228  0.4512088570629  0.5487182723628 1.0
C      1  0.9282871241662  0.4547354336197  0.5483274522162 1.0
C      1  0.4872776445410  0.4807610892839  0.9997727406046 1.0
C      1  0.5131026247197  0.4350223539536  0.9161307597242 1.0
C      1  0.4859455268155  0.4721547701361  0.6562192918039 1.0
END
