TITL C-10682-722-87 -1.135 3375.00 -183.04645717 0 0 23 (C1) n - 1
REM
REM Run started: at 2020.12.29 18:10:26 in /gpfs/home/chem/mssmkc/CARBON/AIRSS/Generating-Clusters/Str-Search/Higher-Symm/C4-100
REM VASP from code version vasp.5.4.4.18Apr17-6-g9f103f2a35 (build Oct 11 2019 16:45:47) gamma-only
REM
REM
REM
REM
REM ./C.cell (6bd13a13d554368a30d355f37ece5b26)
REM AIRSS Version 0.9.1 bugfix July 2018 build 013d7b7c2542+ Fri, 06 Jul 2018 19:26:36 +0100
REM compiler GCC version 6.3.0
REM options -cpp -iprefix /gpfs/warwick/csc/orac/software/Core/GCCcore/6.3.0/bin/../lib/gcc/x86_64-pc-linux-gnu/6.3.0/ -mtune=generic -march=x86-64 -g -O0
REM seed 131303194 -1400494598 -642024163 -1304759425 -336385334 1560913269 -851871840 -247753684 -527422090 -1896663793 -942278465 -1028751026
REM
REM C.POTCAR (d86ddea03c3ceb6dc662c8ad6801f873)
REM 
CELL 1.54180   15.00000   15.00000   15.00000   90.00000   90.00000   90.00000
LATT -1
SFAC C  
C      1  0.6001591395945  0.6020307226089  0.4467023802243 1.0
C      1  0.4124081939410  0.6021610978912  0.4473654028084 1.0
C      1  0.3740723176491  0.5330684880236  0.5913059194178 1.0
C      1  0.6406087040450  0.5329517935411  0.5901624903730 1.0
C      1  0.5490533223737  0.6744980576460  0.4702241435247 1.0
C      1  0.4638132118081  0.6745884050806  0.4704080282410 1.0
C      1  0.4590257131058  0.4049932573761  0.5734122880635 1.0
C      1  0.5550800565752  0.4050187604071  0.5729395517624 1.0
C      1  0.4106546190051  0.4589002732135  0.3838547103524 1.0
C      1  0.6013787002118  0.4589251723688  0.3828582137520 1.0
C      1  0.4089344694104  0.3858504141690  0.4974640203674 1.0
C      1  0.6044042466649  0.3858622126068  0.4964390400292 1.0
C      1  0.3479746784480  0.4565919176443  0.4589836403331 1.0
C      1  0.6649008740286  0.4566071023690  0.4572957371688 1.0
C      1  0.4578184890294  0.5429629152379  0.3829586480879 1.0
C      1  0.5540943567894  0.5429224156451  0.3825987043812 1.0
C      1  0.4600412986575  0.3799804152641  0.4143767532964 1.0
C      1  0.5523438512941  0.3799951959871  0.4139152463297 1.0
C      1  0.5804879058675  0.4815554998974  0.6345544629251 1.0
C      1  0.4343854632948  0.4815792804264  0.6352145998962 1.0
C      1  0.3552497838340  0.5437110265633  0.5023783160541 1.0
C      1  0.6581694283724  0.5435985648927  0.5009867583333 1.0
C      1  0.5077022759998  0.5173368111400  0.6885647442781 1.0
END
