TITL C-10682-722-235 -3.457 3375.00 -623.70270205 0 0 78 (C1) n - 1
REM
REM Run started: at 2020.12.30 22:16:27 in /gpfs/home/chem/mssmkc/CARBON/AIRSS/Generating-Clusters/Str-Search/Higher-Symm/C4-100
REM VASP from code version vasp.5.4.4.18Apr17-6-g9f103f2a35 (build Oct 11 2019 16:45:47) gamma-only
REM
REM
REM
REM
REM ./C.cell (6bd13a13d554368a30d355f37ece5b26)
REM AIRSS Version 0.9.1 bugfix July 2018 build 013d7b7c2542+ Fri, 06 Jul 2018 19:26:36 +0100
REM compiler GCC version 6.3.0
REM options -cpp -iprefix /gpfs/warwick/csc/orac/software/Core/GCCcore/6.3.0/bin/../lib/gcc/x86_64-pc-linux-gnu/6.3.0/ -mtune=generic -march=x86-64 -g -O0
REM seed -920234100 32723345 -1109361870 1100551914 1645720050 -954074881 -135809813 -290285614 296567268 1017906419 -58774192 -1729477535
REM
REM C.POTCAR (d86ddea03c3ceb6dc662c8ad6801f873)
REM 
CELL 1.54180   15.00000   15.00000   15.00000   90.00000   90.00000   90.00000
LATT -1
SFAC C  
C      1  0.5017236009366  0.6373996007318  0.4209538443162 1.0
C      1  0.4310612271624  0.4943562543081  0.6353618142359 1.0
C      1  0.6388690006405  0.4149962261489  0.4980082948660 1.0
C      1  0.4992788890226  0.6345094830385  0.5681623252371 1.0
C      1  0.4980104438380  0.3488621408115  0.5661368620252 1.0
C      1  0.4922566269232  0.3475302845236  0.4180862088797 1.0
C      1  0.5740548452227  0.4949108911306  0.3550619454704 1.0
C      1  0.4238362190511  0.4904239925038  0.3489944165530 1.0
C      1  0.5795384652620  0.4886326577698  0.6368965158958 1.0
C      1  0.3517481614501  0.4190170636213  0.4913325625971 1.0
C      1  0.6402914465970  0.5681498410196  0.4919901031864 1.0
C      1  0.3599521250451  0.5663259973697  0.4962492299299 1.0
C      1  0.4279209644822  0.6350852081878  0.4968728613374 1.0
C      1  0.6427239435790  0.4939235816942  0.4245193001666 1.0
C      1  0.5046876852050  0.4175809054301  0.6369944529735 1.0
C      1  0.5727114585247  0.6379908349026  0.4926798375404 1.0
C      1  0.5670621415375  0.3481390135908  0.4955640654226 1.0
C      1  0.4203175842646  0.3475371277167  0.4900759666020 1.0
C      1  0.3608914003297  0.4955393982843  0.5675780079109 1.0
C      1  0.3531206210607  0.4907759079726  0.4190439391092 1.0
C      1  0.6473482687466  0.4902645406715  0.5655658463039 1.0
C      1  0.4958851357919  0.4185762440227  0.3486530745855 1.0
C      1  0.5026318754923  0.5645622388300  0.6349776109195 1.0
C      1  0.5020377689265  0.5656177914551  0.3538521653739 1.0
C      1  0.5384049781344  0.3957106943747  0.2604836531057 1.0
C      1  0.2659501907832  0.5336975138840  0.3957973815724 1.0
C      1  0.3935483995048  0.2574216430901  0.5264553463630 1.0
C      1  0.4712477166174  0.3933502242153  0.7285214518110 1.0
C      1  0.5214790377914  0.5895201287970  0.7361008393128 1.0
C      1  0.4868470812933  0.5915158478464  0.2531912850098 1.0
C      1  0.7475296218912  0.5192026610361  0.5808701064152 1.0
C      1  0.2599563875842  0.4838671744240  0.5968402763842 1.0
C      1  0.7470232912954  0.4673849175695  0.4169797431559 1.0
C      1  0.5910741645939  0.2466416768078  0.4790440048075 1.0
C      1  0.4052947478080  0.7379322619991  0.4814084554913 1.0
C      1  0.5977428629707  0.7300523987812  0.5263004295245 1.0
C      1  0.2641439720204  0.3975673983381  0.5344399370118 1.0
C      1  0.3994378856538  0.5295595748539  0.2603716822170 1.0
C      1  0.5271449117719  0.2569809010568  0.3918287857426 1.0
C      1  0.7267068905800  0.3828314469047  0.4669190652110 1.0
C      1  0.7352921768522  0.6046580714591  0.5070973822276 1.0
C      1  0.2590649792308  0.5947157110948  0.4827973117332 1.0
C      1  0.6067023714677  0.5259821666757  0.7250787641488 1.0
C      1  0.6022833180178  0.4812360197409  0.2551858880578 1.0
C      1  0.4080939727287  0.4792230215300  0.7382287592370 1.0
C      1  0.4806270345343  0.2488099149316  0.5914004048128 1.0
C      1  0.4703474838860  0.7296227803995  0.3971206032865 1.0
C      1  0.5146459397884  0.7357301087188  0.5944884980063 1.0
C      1  0.2691669143020  0.6046550095564  0.3359446010720 1.0
C      1  0.3335105760421  0.2657800167041  0.6009664933026 1.0
C      1  0.6090924126781  0.3350191783506  0.2663268618155 1.0
C      1  0.7366049060367  0.5953104998077  0.6485280565609 1.0
C      1  0.2657209200394  0.4107874104043  0.6717690931945 1.0
C      1  0.7426824552162  0.4004067261116  0.3346072057454 1.0
C      1  0.6640282312427  0.2512861378381  0.4015539146430 1.0
C      1  0.3334099316490  0.7350240518594  0.4080355388181 1.0
C      1  0.6617709655990  0.7302180608293  0.5947517228710 1.0
C      1  0.4015442499398  0.3314810535762  0.7284777127339 1.0
C      1  0.5946165388504  0.6628529475051  0.7282474005817 1.0
C      1  0.4084220153017  0.6659155390356  0.2605769660380 1.0
C      1  0.3381890654858  0.6021087100133  0.2662753916616 1.0
C      1  0.6013991463000  0.2624829604633  0.3314594607243 1.0
C      1  0.2666618289129  0.3372740867516  0.6049962150084 1.0
C      1  0.6687410018652  0.5955740923561  0.7195113737594 1.0
C      1  0.6776887804852  0.4067927046439  0.2657028777245 1.0
C      1  0.3342307912111  0.4074307733180  0.7353415168088 1.0
C      1  0.4037140989600  0.2586016055358  0.6640439185060 1.0
C      1  0.4024581617373  0.7298668483822  0.3331650420402 1.0
C      1  0.5905676354359  0.7313367909643  0.6645956272508 1.0
C      1  0.7314863425368  0.3202824783777  0.3992982472443 1.0
C      1  0.7322101335308  0.6651613407990  0.5874604301503 1.0
C      1  0.2656323376689  0.6704927834884  0.4099971719445 1.0
C      1  0.2050223905111  0.5580027060581  0.5586391339807 1.0
C      1  0.5545411235200  0.1930968924993  0.5549119798486 1.0
C      1  0.5663982998132  0.5583782360375  0.2020509276354 1.0
C      1  0.7947896916943  0.5317828681467  0.4864745194246 1.0
C      1  0.4463714684342  0.7935434410894  0.5528248927697 1.0
C      1  0.4518165691082  0.5487565652323  0.7943215000575 1.0
END
