TITL C-10012-4540-9 -8.943 3375.00 -1584.95084034 0 0 194 (Ci) n - 1
REM
REM Run started: at 2020.12.31 14:53:53 in /gpfs/home/chem/mssmkc/CARBON/AIRSS/Generating-Clusters/Str-Search/Higher-Symm/C100-200
REM VASP from code version vasp.5.4.4.18Apr17-6-g9f103f2a35 (build Oct 11 2019 16:45:47) gamma-only
REM
REM
REM
REM
REM ./C.cell (533062f00bc710175b3da973d35f2034)
REM AIRSS Version 0.9.1 bugfix July 2018 build 013d7b7c2542+ Fri, 06 Jul 2018 19:26:36 +0100
REM compiler GCC version 6.3.0
REM options -cpp -iprefix /gpfs/warwick/csc/orac/software/Core/GCCcore/6.3.0/bin/../lib/gcc/x86_64-pc-linux-gnu/6.3.0/ -mtune=generic -march=x86-64 -g -O0
REM seed -1818077302 -642240018 -1839147607 2063709646 762732278 1711843167 -1024672474 -62505619 -2128218137 1818085335 1199633467 1411973255
REM
REM C.POTCAR (d86ddea03c3ceb6dc662c8ad6801f873)
REM 
CELL 1.54180   15.00000   15.00000   15.00000   90.00000   90.00000   90.00000
LATT -1
SFAC C  
C      1  0.3804800265593  0.3780021823260  0.3895659299189 1.0
C      1  0.6195191963348  0.6219942956793  0.6104321915066 1.0
C      1  0.3876981748273  0.3087306443884  0.2382667638022 1.0
C      1  0.6122984244377  0.6912690402755  0.7617317946046 1.0
C      1  0.3227302993643  0.5293066733730  0.3465344831471 1.0
C      1  0.6772699525150  0.4706909950641  0.6534663779354 1.0
C      1  0.5715108031531  0.5809210808263  0.5325959998564 1.0
C      1  0.4284878073766  0.4190744665832  0.4674033508926 1.0
C      1  0.4023476802806  0.5937598843064  0.8465614498873 1.0
C      1  0.5976470952631  0.4062378205386  0.1534393494896 1.0
C      1  0.1128160320285  0.5928970188907  0.4083333953251 1.0
C      1  0.8871945355973  0.4071089944170  0.5916737323301 1.0
C      1  0.6811551394083  0.4495843249008  0.1824368394502 1.0
C      1  0.3188402108363  0.5504184424968  0.8175618795712 1.0
C      1  0.2477064436119  0.7462396674030  0.2795109032926 1.0
C      1  0.7522977431808  0.2537628626151  0.7204906064790 1.0
C      1  0.8556792593099  0.4674881434179  0.4097678594162 1.0
C      1  0.1443201329710  0.5325089304545  0.5902334205911 1.0
C      1  0.3750292615786  0.5401105842102  0.1448274521804 1.0
C      1  0.6249673043894  0.4598882225602  0.8551740310853 1.0
C      1  0.3481404502052  0.6069594767434  0.5764425893258 1.0
C      1  0.6518623549237  0.3930359663146  0.4235560989530 1.0
C      1  0.2857804245994  0.7017924310768  0.1974409555124 1.0
C      1  0.7142190487306  0.2982051749526  0.8025575826730 1.0
C      1  0.6705884868631  0.2298033644638  0.7590252383966 1.0
C      1  0.3294137113552  0.7701978431392  0.2409677570099 1.0
C      1  0.2760646941161  0.3708862029939  0.4003469430094 1.0
C      1  0.7239339031877  0.6291084382402  0.5996493889745 1.0
C      1  0.4888580300550  0.5951583628305  0.3943830523686 1.0
C      1  0.5111402920840  0.4048403804610  0.6056170268524 1.0
C      1  0.6774079080469  0.8050230651636  0.3176383408698 1.0
C      1  0.3225922791911  0.1949704360722  0.6823612431411 1.0
C      1  0.2468728818059  0.5036348993124  0.4823357925762 1.0
C      1  0.7531269563343  0.4963606637022  0.5176656875595 1.0
C      1  0.1380569369817  0.3761458698221  0.5045724632781 1.0
C      1  0.8619428380433  0.6238523494188  0.4954277521529 1.0
C      1  0.4212572984427  0.7510018112195  0.2638218575302 1.0
C      1  0.5787429725327  0.2489956951313  0.7361751270555 1.0
C      1  0.4237202850367  0.6603732202582  0.5711287432855 1.0
C      1  0.5762803124420  0.3396258444310  0.4288702293485 1.0
C      1  0.5984373077350  0.5338997252311  0.6592204451598 1.0
C      1  0.4015623024980  0.4660974757285  0.3407780003028 1.0
C      1  0.5185469518240  0.6108803491203  0.2938870743941 1.0
C      1  0.4814513901343  0.3891178802389  0.7061141787035 1.0
C      1  0.5576373536682  0.6877950235298  0.6634767985970 1.0
C      1  0.4423617931527  0.3122031626198  0.3365221914129 1.0
C      1  0.3591163089725  0.2673941409407  0.7433378467975 1.0
C      1  0.6408890574419  0.7325980553197  0.2566666348865 1.0
C      1  0.2626384570900  0.4688066282519  0.3999202679741 1.0
C      1  0.7373592381896  0.5311914597052  0.6000798912065 1.0
C      1  0.4374655861103  0.6801893557150  0.8301994622616 1.0
C      1  0.5625309980983  0.3198108757511  0.1698024272088 1.0
C      1  0.5357113870883  0.4702764774145  0.8882548295933 1.0
C      1  0.4642915508702  0.5297233956129  0.1117444703214 1.0
C      1  0.1963500253398  0.6430030921771  0.6700337847683 1.0
C      1  0.8036523592675  0.3569971944678  0.3299495845819 1.0
C      1  0.0988310379678  0.4964202057932  0.3807690777350 1.0
C      1  0.9011743050975  0.5035866762108  0.6192377393528 1.0
C      1  0.2119618153531  0.6421989389821  0.7702280627845 1.0
C      1  0.7880357519298  0.3578091318348  0.2297565923902 1.0
C      1  0.6283235569866  0.8440455486793  0.4853714667137 1.0
C      1  0.3716752170943  0.1559491407116  0.5146260538987 1.0
C      1  0.2198896361440  0.5617420720311  0.8178607188527 1.0
C      1  0.7801039899788  0.4382666835947  0.1821290616240 1.0
C      1  0.8216947775738  0.2640875079153  0.5522272836060 1.0
C      1  0.1783149586953  0.7359176764993  0.4477767212518 1.0
C      1  0.8132428222728  0.5440560781486  0.4564023964365 1.0
C      1  0.1867564352160  0.4559404997792  0.5436001678926 1.0
C      1  0.3130641767788  0.8241580171173  0.6471868431269 1.0
C      1  0.6869392157861  0.1758604383870  0.3528177256498 1.0
C      1  0.4795723335041  0.8372324993014  0.4042674171819 1.0
C      1  0.5204237147929  0.1627672377267  0.5957302369868 1.0
C      1  0.3485441679528  0.5133021939283  0.7271674848670 1.0
C      1  0.6514554999029  0.4867010450475  0.2728304664312 1.0
C      1  0.2079180675244  0.5469111124050  0.6540345598389 1.0
C      1  0.7920878394329  0.4530858159575  0.3459620102694 1.0
C      1  0.4581723415275  0.4255187817305  0.8957159650786 1.0
C      1  0.5418288923554  0.5744810801963  0.1042853317423 1.0
C      1  0.5632289748618  0.6199902415663  0.4526373730146 1.0
C      1  0.4367690896748  0.3800086361582  0.5473637300033 1.0
C      1  0.2843320189321  0.5507844761930  0.2531302452967 1.0
C      1  0.7156674882523  0.4492152960890  0.7468705408017 1.0
C      1  0.5508588945861  0.5159844321642  0.2631143390973 1.0
C      1  0.4491386267567  0.4840146030502  0.7368854107748 1.0
C      1  0.1179863855512  0.4320979231017  0.7526294630767 1.0
C      1  0.8820034809414  0.5679086443572  0.2473700428421 1.0
C      1  0.1297125809553  0.3497794047288  0.3395201125788 1.0
C      1  0.8702853051999  0.6502248242075  0.6604834639760 1.0
C      1  0.6765734443709  0.5220596869620  0.8108817006622 1.0
C      1  0.3234211574680  0.4779394037112  0.1891187246904 1.0
C      1  0.5339235153235  0.3617440746588  0.3413248917791 1.0
C      1  0.4660753717192  0.6382545798876  0.6586752114458 1.0
C      1  0.7137219149016  0.3235051607640  0.2887130768183 1.0
C      1  0.2862793891044  0.6764992069022  0.7112773776621 1.0
C      1  0.5604475906654  0.8196320876301  0.5449699591016 1.0
C      1  0.4395518418550  0.1803669755845  0.4550291091579 1.0
C      1  0.2638320978828  0.2202792273698  0.6077508924165 1.0
C      1  0.7361727872208  0.7797142144143  0.3922499615613 1.0
C      1  0.4994667091633  0.2015748203689  0.2195774997144 1.0
C      1  0.5005306664229  0.7984263446787  0.7804219502947 1.0
C      1  0.5319390290027  0.5043119344372  0.5896334395495 1.0
C      1  0.4680609812559  0.4956863044738  0.4103677671206 1.0
C      1  0.6828588457370  0.6182622195280  0.7888209133361 1.0
C      1  0.3171339534175  0.3817387099267  0.2111793129255 1.0
C      1  0.4850192224305  0.7939275217718  0.4898228456419 1.0
C      1  0.5149798403053  0.2060714859971  0.5101746690495 1.0
C      1  0.5872413163575  0.6548800907767  0.1160224133115 1.0
C      1  0.4127604494736  0.3451061434213  0.8839755873987 1.0
C      1  0.5228226608912  0.0908351451937  0.6588256993927 1.0
C      1  0.4771769033080  0.9091657490626  0.3411724219237 1.0
C      1  0.4054636731559  0.7634761832136  0.7812953211204 1.0
C      1  0.5945346678954  0.2365229761715  0.2187022763354 1.0
C      1  0.6440493484607  0.3910857515902  0.3230897388928 1.0
C      1  0.3559540623547  0.6089142924649  0.6769106175217 1.0
C      1  0.4357705911023  0.6601941926774  0.2485519742555 1.0
C      1  0.5642289382711  0.3398053318317  0.7514481321293 1.0
C      1  0.4999562929240  0.5445238242303  0.6748070640004 1.0
C      1  0.5000432900947  0.4554746829685  0.3251940403081 1.0
C      1  0.6671197620771  0.2327744374758  0.2810844801359 1.0
C      1  0.3328828175919  0.7672274656021  0.7189076226394 1.0
C      1  0.5959916738232  0.6736087171124  0.3104649079496 1.0
C      1  0.4040053805002  0.3263879936713  0.6895364452458 1.0
C      1  0.5638671454749  0.2847909984531  0.5031805484920 1.0
C      1  0.4361325240575  0.7152086931510  0.4968185415244 1.0
C      1  0.1294831357245  0.6550144121803  0.4831418398701 1.0
C      1  0.8705316941593  0.3449923034312  0.5168669099720 1.0
C      1  0.7013932781629  0.4189811580976  0.5000681840839 1.0
C      1  0.2986079146162  0.5810143918267  0.4999326373607 1.0
C      1  0.7669699294669  0.6797249754412  0.5184916706073 1.0
C      1  0.2330290811548  0.3202723988410  0.4815082076280 1.0
C      1  0.2513452776085  0.4131077907904  0.6091831140812 1.0
C      1  0.7486532246906  0.5868874377346  0.3908199772012 1.0
C      1  0.4346891432811  0.2134899468437  0.3612338145750 1.0
C      1  0.5653086614174  0.7865084902899  0.6387653936544 1.0
C      1  0.5314759138347  0.7168161057393  0.8165238917919 1.0
C      1  0.4685209856416  0.2831859441686  0.1834780906319 1.0
C      1  0.2782206332356  0.3245549143811  0.5757674326740 1.0
C      1  0.7217781475764  0.6754402771879  0.4242321900233 1.0
C      1  0.7230202876866  0.8258994633398  0.4832447931961 1.0
C      1  0.2769790010945  0.1740963363627  0.5167565896007 1.0
C      1  0.7253240862276  0.5207931849931  0.3306709905737 1.0
C      1  0.2746798079356  0.4792050843900  0.6693263049833 1.0
C      1  0.4118695287796  0.6570679327345  0.4203040611726 1.0
C      1  0.5881291603099  0.3429309572081  0.5796951871014 1.0
C      1  0.3814560351100  0.3122811895544  0.5925128480230 1.0
C      1  0.6185414910929  0.6877182778943  0.4074882844638 1.0
C      1  0.2206942318505  0.7942078745270  0.5042329677390 1.0
C      1  0.7793125534958  0.2058051484117  0.4957678570855 1.0
C      1  0.7297971680093  0.7738348893584  0.6494013666680 1.0
C      1  0.2702011572236  0.2261615631980  0.3505993685090 1.0
C      1  0.1949169307891  0.7188927662914  0.3513746597141 1.0
C      1  0.8050901842523  0.2811142304011  0.6486302135454 1.0
C      1  0.8672833221006  0.3741825939461  0.4264790510428 1.0
C      1  0.1327360887706  0.6258230045010  0.5735280254816 1.0
C      1  0.8665847179121  0.5071242567941  0.7130391536843 1.0
C      1  0.1334154508323  0.4928808271505  0.2869656129420 1.0
C      1  0.2245818436509  0.3109376093695  0.3273985783796 1.0
C      1  0.7754151586652  0.6890601471197  0.6726040574726 1.0
C      1  0.6471563483181  0.7863362950140  0.7078417660559 1.0
C      1  0.3528408866617  0.2136612658431  0.2921594379701 1.0
C      1  0.2477270538288  0.2244533742845  0.4440923667091 1.0
C      1  0.7522682911976  0.7755421878669  0.5559081326519 1.0
C      1  0.9000995408936  0.5965627877322  0.5862512116413 1.0
C      1  0.0999030785325  0.4034407475021  0.4137538513760 1.0
C      1  0.5395672025130  0.4907466866175  0.1631773255947 1.0
C      1  0.4604289345925  0.5092519017781  0.8368207292715 1.0
C      1  0.0945940012182  0.3834643044277  0.6771635606413 1.0
C      1  0.9053993892729  0.6165352615224  0.3228372944674 1.0
C      1  0.3497498544301  0.6205520684760  0.2032292028196 1.0
C      1  0.6502493833445  0.3794430070124  0.7967718476544 1.0
C      1  0.7667320531547  0.6394976727604  0.7574069827420 1.0
C      1  0.2332635638352  0.3605017024422  0.2425956567393 1.0
C      1  0.4608674497556  0.8186537648547  0.3172327249506 1.0
C      1  0.5391287708351  0.1813465798584  0.6827650598421 1.0
C      1  0.9067449577982  0.6434011309872  0.4028203429564 1.0
C      1  0.0932552802995  0.3565965668322  0.5971803007283 1.0
C      1  0.3370815187406  0.6049305746823  0.4160742951110 1.0
C      1  0.6629185522334  0.3950655981884  0.5839282721440 1.0
C      1  0.1490736450342  0.4039730195718  0.2622185955203 1.0
C      1  0.8509249733824  0.5960301694012  0.7377868634225 1.0
C      1  0.1583997722456  0.4885590139362  0.8003159848361 1.0
C      1  0.8415902014191  0.5114538184560  0.1996741954696 1.0
C      1  0.1851945123261  0.5694621332371  0.2680676172984 1.0
C      1  0.8148058966723  0.4305426888047  0.7319364965949 1.0
C      1  0.1574664996431  0.6331829671871  0.3333757788238 1.0
C      1  0.8425385430270  0.3668218241960  0.6666294660770 1.0
C      1  0.6254984343166  0.7942162221439  0.4009108799880 1.0
C      1  0.3745011640928  0.2057813205686  0.5990869233964 1.0
C      1  0.4380707876954  0.1575747186633  0.2792342573610 1.0
C      1  0.5619277054954  0.8424246494457  0.7207656561390 1.0
C      1  0.6274599963329  0.7083696951321  0.1653236666726 1.0
C      1  0.3725482398194  0.2916287747904  0.8346823840829 1.0
C      1  0.7392987134837  0.1859401905668  0.4221969516755 1.0
C      1  0.2607066660775  0.8140738766904  0.5778057855591 1.0
END
