TITL C-10682-722-142 -1.744 3375.00 -270.72799376 0 0 35 (C1) n - 1
REM
REM Run started: at 2020.12.30 03:18:57 in /gpfs/home/chem/mssmkc/CARBON/AIRSS/Generating-Clusters/Str-Search/Higher-Symm/C4-100
REM VASP from code version vasp.5.4.4.18Apr17-6-g9f103f2a35 (build Oct 11 2019 16:45:47) gamma-only
REM
REM
REM
REM
REM ./C.cell (6bd13a13d554368a30d355f37ece5b26)
REM AIRSS Version 0.9.1 bugfix July 2018 build 013d7b7c2542+ Fri, 06 Jul 2018 19:26:36 +0100
REM compiler GCC version 6.3.0
REM options -cpp -iprefix /gpfs/warwick/csc/orac/software/Core/GCCcore/6.3.0/bin/../lib/gcc/x86_64-pc-linux-gnu/6.3.0/ -mtune=generic -march=x86-64 -g -O0
REM seed -1224436883 -1894363514 2109127335 1433619224 1495061240 -13672598 1602573551 -621128325 455082738 483462582 -1081973684 -416833972
REM
REM C.POTCAR (d86ddea03c3ceb6dc662c8ad6801f873)
REM 
CELL 1.54180   15.00000   15.00000   15.00000   90.00000   90.00000   90.00000
LATT -1
SFAC C  
C      1  0.5618619483010  0.4491830133455  0.3269655563161 1.0
C      1  0.4439522638251  0.4493101228298  0.6789103211437 1.0
C      1  0.4754970951813  0.6771445553562  0.3331346204550 1.0
C      1  0.5287916203010  0.6776108650720  0.6718500327061 1.0
C      1  0.3233324614297  0.4571362578232  0.4089037403713 1.0
C      1  0.6833583446077  0.4552583791293  0.5910423846360 1.0
C      1  0.5314885482662  0.2231395461268  0.4755210476042 1.0
C      1  0.4669521574493  0.2239029105035  0.5281340350983 1.0
C      1  0.5517122065216  0.3775640760653  0.3971456700981 1.0
C      1  0.4520710782788  0.3784055043182  0.6075835564090 1.0
C      1  0.5330335767043  0.5155509797907  0.4004117154229 1.0
C      1  0.4725452864665  0.5157167591038  0.6054101992567 1.0
C      1  0.4205039697350  0.2894169230917  0.5752785581867 1.0
C      1  0.5803565164189  0.2870760199455  0.4287673356751 1.0
C      1  0.3875313790716  0.4144629574130  0.4579873768465 1.0
C      1  0.6167498936527  0.4122033806054  0.5460913818003 1.0
C      1  0.5160033997282  0.6795215568900  0.4199916177202 1.0
C      1  0.4870632075188  0.6796982930105  0.5854728597782 1.0
C      1  0.7204578943418  0.5258213443029  0.5609680718237 1.0
C      1  0.2826791430960  0.5241883686293  0.4426631423451 1.0
C      1  0.2668763093133  0.5872520817946  0.5045508891274 1.0
C      1  0.7387234152966  0.5895900413333  0.4997867752075 1.0
C      1  0.4789514794819  0.6020031938276  0.2914776553466 1.0
C      1  0.5272386258811  0.6021349977301  0.7130543132085 1.0
C      1  0.5023183634376  0.5157722906379  0.7038062775986 1.0
C      1  0.5041931544176  0.5159514198086  0.3014934292444 1.0
C      1  0.3773550663942  0.3620097384731  0.5398403742065 1.0
C      1  0.6248034598316  0.3579576364512  0.4656587954991 1.0
C      1  0.3429852103438  0.6007975358408  0.5455027796105 1.0
C      1  0.6605045809822  0.6029039843217  0.4620683536258 1.0
C      1  0.5781386570573  0.5976564065192  0.4298565056965 1.0
C      1  0.4258761637404  0.5972206081465  0.5768078549322 1.0
C      1  0.5175772449768  0.4387362103851  0.5505419490099 1.0
C      1  0.4871030917373  0.4388576708161  0.4541959970516 1.0
C      1  0.5011968862132  0.7112061705620  0.5025829269418 1.0
END
