TITL C-10682-722-141 -3.784 3375.00 -646.74150221 0 0 79 (Cs) n - 1
REM
REM Run started: at 2020.12.30 03:13:19 in /gpfs/home/chem/mssmkc/CARBON/AIRSS/Generating-Clusters/Str-Search/Higher-Symm/C4-100
REM VASP from code version vasp.5.4.4.18Apr17-6-g9f103f2a35 (build Oct 11 2019 16:45:47) gamma-only
REM
REM
REM
REM
REM ./C.cell (6bd13a13d554368a30d355f37ece5b26)
REM AIRSS Version 0.9.1 bugfix July 2018 build 013d7b7c2542+ Fri, 06 Jul 2018 19:26:36 +0100
REM compiler GCC version 6.3.0
REM options -cpp -iprefix /gpfs/warwick/csc/orac/software/Core/GCCcore/6.3.0/bin/../lib/gcc/x86_64-pc-linux-gnu/6.3.0/ -mtune=generic -march=x86-64 -g -O0
REM seed 798841872 1778624118 1239833169 1512250219 1649836632 -774938005 -544324653 44675554 1504710055 1257170394 -1026735756 1683170086
REM
REM C.POTCAR (d86ddea03c3ceb6dc662c8ad6801f873)
REM 
CELL 1.54180   15.00000   15.00000   15.00000   90.00000   90.00000   90.00000
LATT -1
SFAC C  
C      1  0.3402168433263  0.7215106789594  0.4240121805527 1.0
C      1  0.3600445886132  0.2731538474425  0.6137520398380 1.0
C      1  0.6598429812749  0.7216011276348  0.4240574407569 1.0
C      1  0.6403846698586  0.2733011412634  0.6136596584592 1.0
C      1  0.3137602334168  0.2822137394375  0.4496889810839 1.0
C      1  0.3763338568445  0.7299146836781  0.5986697108466 1.0
C      1  0.6865954910776  0.2823160880302  0.4495757744571 1.0
C      1  0.6236685391222  0.7300271472175  0.5987140387804 1.0
C      1  0.2161111191143  0.5570647400222  0.5360720213665 1.0
C      1  0.2156982348715  0.4587405929168  0.4390395921824 1.0
C      1  0.7840163172835  0.5573548216824  0.5359905399840 1.0
C      1  0.7843706358556  0.4589852463458  0.4389427213202 1.0
C      1  0.2167646804741  0.4583697130013  0.5366757543319 1.0
C      1  0.2102694805466  0.5558767013092  0.4373415926724 1.0
C      1  0.7833640428055  0.4586358718124  0.5366118199310 1.0
C      1  0.7897718140149  0.5560915594814  0.4372374144004 1.0
C      1  0.4323167652474  0.5922721701512  0.5576605091272 1.0
C      1  0.4006427352384  0.3298947486077  0.4471973083421 1.0
C      1  0.5678152998139  0.5923022308842  0.5576438441114 1.0
C      1  0.5996701177222  0.3298891866578  0.4471475363340 1.0
C      1  0.4343640799287  0.3706629041235  0.5232775780038 1.0
C      1  0.4253057492520  0.5904104760792  0.4653003462111 1.0
C      1  0.5659614568638  0.3706943637265  0.5232392711963 1.0
C      1  0.5747535523156  0.5904371543645  0.4652769613929 1.0
C      1  0.2886644828533  0.6988081436422  0.5874471629580 1.0
C      1  0.2537592895848  0.3130885556486  0.3903050425838 1.0
C      1  0.7113514315287  0.6989989894493  0.5874584220462 1.0
C      1  0.7465491218066  0.3132588192993  0.3901291691711 1.0
C      1  0.2762378015651  0.3149882103088  0.6061885879810 1.0
C      1  0.2607050763373  0.6966979320060  0.3875766861562 1.0
C      1  0.7241995049172  0.3151738175727  0.6061405262409 1.0
C      1  0.7394255492749  0.6969873069103  0.3875800937200 1.0
C      1  0.2928329499785  0.4601299071712  0.3020300524545 1.0
C      1  0.2956110219871  0.5560136351278  0.6757545568419 1.0
C      1  0.7074132510806  0.4602865759077  0.3018328183246 1.0
C      1  0.7046831000749  0.5561699180807  0.6758168711674 1.0
C      1  0.2915231396412  0.5551995428976  0.3027203838207 1.0
C      1  0.2937285093577  0.4613358747380  0.6748063591192 1.0
C      1  0.7086349248248  0.5553961151845  0.3026233032371 1.0
C      1  0.7066496117069  0.4615028174373  0.6748656706506 1.0
C      1  0.5488172591187  0.6144004442880  0.7131665284917 1.0
C      1  0.5494988287541  0.4004080234116  0.2880555234920 1.0
C      1  0.4513817429223  0.6143981329540  0.7131894672003 1.0
C      1  0.4506861309439  0.4003647056656  0.2880596956337 1.0
C      1  0.5489384222069  0.3981870591731  0.6938256794454 1.0
C      1  0.5491015068448  0.6207478792121  0.3124179452519 1.0
C      1  0.4514052250782  0.3981330306856  0.6938243602540 1.0
C      1  0.4509982041176  0.6206905840797  0.3124070072883 1.0
C      1  0.3823918272534  0.4550571175290  0.7178414532163 1.0
C      1  0.3863753762448  0.5618000125604  0.2745608580139 1.0
C      1  0.6179696486482  0.4551269631155  0.7178919444460 1.0
C      1  0.6137271445008  0.5618725841397  0.2745830234645 1.0
C      1  0.3820662632825  0.5548794958838  0.7254372056640 1.0
C      1  0.3858847486334  0.4608844125605  0.2684417472295 1.0
C      1  0.6182229552710  0.5549757529121  0.7254322065336 1.0
C      1  0.6142681279236  0.4610019774565  0.2684467754376 1.0
C      1  0.4429241255152  0.3289043099358  0.6191988555273 1.0
C      1  0.4134601494136  0.6567373475314  0.4006866688277 1.0
C      1  0.5574414206121  0.3289583667702  0.6191975308540 1.0
C      1  0.5866665545853  0.6567450417321  0.4006939024497 1.0
C      1  0.4468818526831  0.6677811442774  0.6261515827995 1.0
C      1  0.4526603035698  0.3424061751815  0.3676659390257 1.0
C      1  0.5531752519476  0.6677851197060  0.6261291819461 1.0
C      1  0.5475884138842  0.3424000836340  0.3676245620562 1.0
C      1  0.7456038416073  0.6107414120382  0.6047131061590 1.0
C      1  0.7506406660056  0.4048582699231  0.3677672631367 1.0
C      1  0.2545513320661  0.6105356874033  0.6047073883018 1.0
C      1  0.2496233924577  0.4046843222610  0.3679195704527 1.0
C      1  0.7499925544469  0.4063992456903  0.6091977269181 1.0
C      1  0.7581640628392  0.6083069370936  0.3650915594453 1.0
C      1  0.2503005783400  0.4062040885171  0.6092151016436 1.0
C      1  0.2419217374932  0.6080460612812  0.3651529701811 1.0
C      1  0.3325417949733  0.7477313674797  0.5169890172745 1.0
C      1  0.6984457664696  0.2503462493162  0.5409372619580 1.0
C      1  0.3020140973585  0.2502026022379  0.5410421570032 1.0
C      1  0.6674771145563  0.7478431979795  0.5170317054878 1.0
C      1  0.5000450295315  0.5207106889240  0.4507655779698 1.0
C      1  0.5000681217641  0.5214001933967  0.5725630544768 1.0
C      1  0.5001458747340  0.4436554158507  0.5141966528867 1.0
END
