TITL C-100826-1855-32 -2.651 3375.00 -468.84273211 0 0 60 (D3) n - 1
REM
REM Run started: at 2020.11.28 02:16:10 in /rds/project/t2_vol4/rds-t2-cs072/BORA/CARBON/AIRSS/Generating-Clusters/Str-Search/Higher-Symm/Only-C60/Try2-TRACK-ENABLED
REM VASP from code version vasp.5.4.4.18Apr17-6-g9f103f2a35 (build Oct 11 2019 16:45:47) gamma-only
REM
REM
REM
REM
REM ./C.cell (5f7b7a0d59291d2373303da1f58b8d66)
REM AIRSS Version 0.9.1 bugfix July 2018 build 013d7b7c2542+ Fri, 06 Jul 2018 19:26:36 +0100
REM compiler GCC version 4.8.5 20150623 (Red Hat 4.8.5-39)
REM options -cpp -mtune=generic -march=x86-64 -g -O0
REM seed 688774571 276703676 -1008656041 -829451184 1562484865 -668063403 -744601229 1177853052 -798191777 -584124227 -2098799871 -1251140336
REM
REM C.POTCAR (d86ddea03c3ceb6dc662c8ad6801f873)
REM 
CELL 1.54180   15.00000   15.00000   15.00000   90.00000   90.00000   90.00000
LATT -1
SFAC C  
C      1  0.6501327093552  0.3566598065922  0.6052069672046 1.0
C      1  0.6499525759736  0.4812862206975  0.3227116232844 1.0
C      1  0.6501456429486  0.6642180770167  0.5727419726703 1.0
C      1  0.3498670105951  0.6433404926050  0.6052065334010 1.0
C      1  0.3500475682737  0.5187140105365  0.3227114298595 1.0
C      1  0.3498537980096  0.3357821455530  0.5727420324356 1.0
C      1  0.6539159735401  0.3075079525890  0.5155020177543 1.0
C      1  0.6535073706898  0.5835500084265  0.3247808423073 1.0
C      1  0.6534662630096  0.6103132550074  0.6595419445200 1.0
C      1  0.3460839590150  0.6924918396294  0.5155012101118 1.0
C      1  0.3464928435203  0.4164500418182  0.3247809040523 1.0
C      1  0.3465332002429  0.3896868150435  0.6595420575501 1.0
C      1  0.4064683760220  0.5812436331476  0.2757209504539 1.0
C      1  0.4063782111505  0.6534148404771  0.6825327106277 1.0
C      1  0.4069149438971  0.2643152207241  0.5420287103929 1.0
C      1  0.5935320319787  0.4187564672286  0.2757209605862 1.0
C      1  0.5936213221727  0.3465854962526  0.6825331358139 1.0
C      1  0.5930844141673  0.7356847930813  0.5420284116038 1.0
C      1  0.5834883440520  0.5724686667935  0.5898101696601 1.0
C      1  0.5832129478075  0.3858781856567  0.5180430072815 1.0
C      1  0.5831315546885  0.5421271216951  0.3917568994605 1.0
C      1  0.4165117346181  0.4275316625856  0.5898108931377 1.0
C      1  0.4167870292984  0.6141217119449  0.5180426609356 1.0
C      1  0.4168689066012  0.4578724706009  0.3917567642978 1.0
C      1  0.4061986845499  0.2501499095717  0.4498466575903 1.0
C      1  0.4053370776476  0.6688820021630  0.3079267782514 1.0
C      1  0.4056265738148  0.5816588412681  0.7423885337405 1.0
C      1  0.5938021022857  0.7498497133864  0.4498461746180 1.0
C      1  0.5946628604049  0.3311184797837  0.3079271370591 1.0
C      1  0.5943730435319  0.4183410562735  0.7423892843992 1.0
C      1  0.6917564211386  0.5974062886763  0.5169286170358 1.0
C      1  0.6945623414995  0.4374524441920  0.5759115726504 1.0
C      1  0.6930845807033  0.4667123770786  0.4078880666158 1.0
C      1  0.3082440373822  0.4025939567315  0.5169284705456 1.0
C      1  0.3054381087379  0.5625475099275  0.5759112116381 1.0
C      1  0.3069154655189  0.5332874441354  0.4078878284569 1.0
C      1  0.4946823859814  0.2673126827762  0.5803553733701 1.0
C      1  0.4940464807806  0.5464493047973  0.2583851110267 1.0
C      1  0.4937241122786  0.6861894122113  0.6608273288409 1.0
C      1  0.5053171375723  0.7326874760405  0.5803550586943 1.0
C      1  0.5059538283649  0.4535501591282  0.2583854868561 1.0
C      1  0.5062753764197  0.3138108296353  0.6608276486578 1.0
C      1  0.3230575765868  0.4345356041797  0.4271028677489 1.0
C      1  0.3223630989181  0.5945842307979  0.4806924581974 1.0
C      1  0.3223688874036  0.4690469038332  0.5928014682815 1.0
C      1  0.6769428679157  0.5654645232198  0.4271028439448 1.0
C      1  0.6776370188652  0.4054156466449  0.4806928276455 1.0
C      1  0.6776310311454  0.5309532131375  0.5928014883633 1.0
C      1  0.4458516410978  0.3921088317590  0.3117397075855 1.0
C      1  0.4450735874870  0.7168763091197  0.5007215041986 1.0
C      1  0.4459571760588  0.3907009096336  0.6867787288735 1.0
C      1  0.5541484928690  0.6078910401920  0.3117398322184 1.0
C      1  0.5549265573562  0.2831231018815  0.5007220165010 1.0
C      1  0.5540422422072  0.6092993682280  0.6867782892735 1.0
C      1  0.4918072843590  0.5471488292940  0.7410463790165 1.0
C      1  0.4925710576226  0.2672009327126  0.4200351766204 1.0
C      1  0.4916032595352  0.6857653361106  0.3382457019095 1.0
C      1  0.5081924595390  0.4528513358106  0.7410468975460 1.0
C      1  0.5074295712537  0.7327986135473  0.4200347272769 1.0
C      1  0.5083968395395  0.3142344464185  0.3382459353493 1.0
END
