TITL C-10682-722-129 -3.362 3375.00 -567.55695316 0 0 70 (C1) n - 1
REM
REM Run started: at 2020.12.30 01:16:15 in /gpfs/home/chem/mssmkc/CARBON/AIRSS/Generating-Clusters/Str-Search/Higher-Symm/C4-100
REM VASP from code version vasp.5.4.4.18Apr17-6-g9f103f2a35 (build Oct 11 2019 16:45:47) gamma-only
REM
REM
REM
REM
REM ./C.cell (6bd13a13d554368a30d355f37ece5b26)
REM AIRSS Version 0.9.1 bugfix July 2018 build 013d7b7c2542+ Fri, 06 Jul 2018 19:26:36 +0100
REM compiler GCC version 6.3.0
REM options -cpp -iprefix /gpfs/warwick/csc/orac/software/Core/GCCcore/6.3.0/bin/../lib/gcc/x86_64-pc-linux-gnu/6.3.0/ -mtune=generic -march=x86-64 -g -O0
REM seed -652608527 -591468207 -119638900 426158509 483039414 -85361833 1255222034 1659969872 1911971161 -1362521988 -1049901141 -960215261
REM
REM C.POTCAR (d86ddea03c3ceb6dc662c8ad6801f873)
REM 
CELL 1.54180   15.00000   15.00000   15.00000   90.00000   90.00000   90.00000
LATT -1
SFAC C  
C      1  0.4510873748900  0.2069846428417  0.4422320423477 1.0
C      1  0.3964115567265  0.6927734767505  0.3974811104178 1.0
C      1  0.4422894350190  0.2488885397201  0.5255899194162 1.0
C      1  0.5360804368271  0.5178319313473  0.7383646851656 1.0
C      1  0.5160537041798  0.6745046501797  0.6609010450255 1.0
C      1  0.5315792617826  0.4504546610254  0.3116439195861 1.0
C      1  0.4254728808334  0.3960348146775  0.7104439039442 1.0
C      1  0.4080209163866  0.5724720178674  0.7252226542313 1.0
C      1  0.6065134169683  0.6709854022572  0.2692371086029 1.0
C      1  0.4585884096869  0.7545269572699  0.5366301036990 1.0
C      1  0.7541029971373  0.3003859890127  0.5601185259571 1.0
C      1  0.6024136923913  0.4786657082793  0.6734608835196 1.0
C      1  0.7149005534733  0.3659734562806  0.4152009453213 1.0
C      1  0.5879579125764  0.3292305372548  0.5042329504837 1.0
C      1  0.3604126442362  0.5569582553568  0.3191767217862 1.0
C      1  0.2752736687079  0.6178277402225  0.4802722521682 1.0
C      1  0.5450411683046  0.7296348211340  0.5115810567926 1.0
C      1  0.7435829552593  0.5306032463697  0.4967812025477 1.0
C      1  0.1968518661495  0.4741060713530  0.4981197940720 1.0
C      1  0.3424678646923  0.4533484436858  0.4380532239983 1.0
C      1  0.7153493544276  0.5958668837857  0.4294905457933 1.0
C      1  0.7307641369233  0.3500118252153  0.6233285157069 1.0
C      1  0.4459702623164  0.4813390322145  0.7452846867042 1.0
C      1  0.4836030651990  0.3225905390096  0.7173719766626 1.0
C      1  0.6893188019552  0.4509338590228  0.4598523679378 1.0
C      1  0.4442503907734  0.5911529841413  0.2884678574038 1.0
C      1  0.5279212586391  0.2885595704530  0.6536854397776 1.0
C      1  0.5287867815854  0.2788501210828  0.5626311469421 1.0
C      1  0.7327760034108  0.2931312103596  0.4667225949475 1.0
C      1  0.3744553458977  0.2995722653895  0.5687305044572 1.0
C      1  0.5029618781258  0.6076287622832  0.7253862419058 1.0
C      1  0.7195435060524  0.5700496220871  0.5809933508575 1.0
C      1  0.5554614814163  0.5402358600926  0.4405573050260 1.0
C      1  0.4252105725122  0.5477257900481  0.5491414791993 1.0
C      1  0.6742944522036  0.6526760872525  0.5607036633020 1.0
C      1  0.3386014644449  0.6147139257655  0.3971818860099 1.0
C      1  0.3041334672104  0.3560427062609  0.5638014685545 1.0
C      1  0.5317120698669  0.5671364896630  0.5359201614232 1.0
C      1  0.3802901034412  0.5749012751300  0.6295900011605 1.0
C      1  0.4391017175030  0.3516018205272  0.2682647199675 1.0
C      1  0.3690100517651  0.3957394796665  0.2842272515218 1.0
C      1  0.5041406941915  0.2197513276797  0.3792635731922 1.0
C      1  0.3906893592941  0.3864100037975  0.6145264432302 1.0
C      1  0.4400796826964  0.7237013108783  0.6258698343815 1.0
C      1  0.2019337687917  0.5580647972631  0.4905070124580 1.0
C      1  0.5605796713090  0.7044816857182  0.3446838621449 1.0
C      1  0.6126752644857  0.4155505357783  0.5208593166286 1.0
C      1  0.5767826161884  0.6643711182114  0.5807540988876 1.0
C      1  0.5205808235493  0.5338643967149  0.2593093513011 1.0
C      1  0.5888585386029  0.5935623555880  0.2397724285498 1.0
C      1  0.5680051116335  0.2818668676574  0.3495401287377 1.0
C      1  0.3387339442617  0.4648763907319  0.3356395866993 1.0
C      1  0.6385154897020  0.2992907898554  0.4225426573694 1.0
C      1  0.4522831373625  0.4476868750281  0.5579995366800 1.0
C      1  0.3832731697566  0.7356831154482  0.4810798702491 1.0
C      1  0.2663708489946  0.4136339926215  0.4985793943121 1.0
C      1  0.6493650789832  0.5317993988723  0.4136729548829 1.0
C      1  0.5054497316048  0.4698268829363  0.4033782395347 1.0
C      1  0.3488480965767  0.6845377600886  0.6247246072322 1.0
C      1  0.3212320682196  0.6145162021532  0.6907199933758 1.0
C      1  0.6937206511613  0.5127797212775  0.6522212040406 1.0
C      1  0.5541998851181  0.4726520792707  0.5794705119527 1.0
C      1  0.4660691942940  0.6766478636976  0.3364459115863 1.0
C      1  0.5971039618157  0.7185457942479  0.4337930829677 1.0
C      1  0.3133491599753  0.6946013025043  0.5329949081691 1.0
C      1  0.4385929910578  0.4274001453622  0.4594980005993 1.0
C      1  0.5296755636460  0.3521857816582  0.2954812637339 1.0
C      1  0.6793194146923  0.6757987366839  0.4677279503210 1.0
C      1  0.3580151688376  0.5495491719384  0.4739542973660 1.0
C      1  0.6929381312994  0.4237122240003  0.6689129650722 1.0
END
