TITL C-107434-8238-5 -8.097 3375.00 -1442.63304132 0 0 175 (C1) n - 1
REM
REM Run started: at 2020.12.23 07:49:26 in /rds/project/t2_vol4/rds-t2-cs072/BORA/CARBON/AIRSS/Generating-Clusters/Str-Search/Higher-Symm/C100-200
REM VASP from code version vasp.5.4.4.18Apr17-6-g9f103f2a35 (build Oct 11 2019 16:45:47) gamma-only
REM
REM
REM
REM
REM ./C.cell (533062f00bc710175b3da973d35f2034)
REM AIRSS Version 0.9.1 bugfix July 2018 build 013d7b7c2542+ Fri, 06 Jul 2018 19:26:36 +0100
REM compiler GCC version 4.8.5 20150623 (Red Hat 4.8.5-39)
REM options -cpp -mtune=generic -march=x86-64 -g -O0
REM seed 140163029 2127526650 -1885186581 1622031948 -1592264618 -1616806348 -1689113857 1902539371 -394867004 -227621144 -2005961593 -1832790788
REM
REM C.POTCAR (d86ddea03c3ceb6dc662c8ad6801f873)
REM 
CELL 1.54180   15.00000   15.00000   15.00000   90.00000   90.00000   90.00000
LATT -1
SFAC C  
C      1  0.7976983167099  0.3349300459248  0.6541949329933 1.0
C      1  0.5337020521158  0.6130298581211  0.3688466398400 1.0
C      1  0.6519823502422  0.4747207933094  0.8557505674738 1.0
C      1  0.5181578368846  0.3216637166502  0.3136214476140 1.0
C      1  0.5794344604454  0.6266126459584  0.7852154153362 1.0
C      1  0.2086922366830  0.4336070575973  0.2682239999258 1.0
C      1  0.4061276763935  0.7831951226848  0.6492015113414 1.0
C      1  0.4064666048411  0.6943380099376  0.7981352831311 1.0
C      1  0.1411293653273  0.3112097883368  0.5457989924516 1.0
C      1  0.4475901925990  0.5348216458467  0.8263390135469 1.0
C      1  0.4543160496769  0.4734277694646  0.4243178213468 1.0
C      1  0.6147741362357  0.5795891818941  0.2250029895843 1.0
C      1  0.3792956957556  0.2591995934541  0.6566575754868 1.0
C      1  0.5158435942931  0.5400859916948  0.2159625086246 1.0
C      1  0.6236016824986  0.5697964012030  0.3248730277772 1.0
C      1  0.5254557045649  0.4270198059574  0.3477112467168 1.0
C      1  0.6149129527807  0.2688519325525  0.2881459265360 1.0
C      1  0.5392671765452  0.6916484758711  0.5863726120465 1.0
C      1  0.8504031888357  0.6078844773317  0.4303979552722 1.0
C      1  0.3661002493939  0.1983088183584  0.3031081769383 1.0
C      1  0.4258894184849  0.4166861122434  0.5051697951412 1.0
C      1  0.2815382713059  0.3599406062854  0.5365225529785 1.0
C      1  0.3248265850142  0.8392748629001  0.4951491567187 1.0
C      1  0.2344848346518  0.4436532658269  0.7407400053900 1.0
C      1  0.5226192267295  0.2953838234972  0.5624858853493 1.0
C      1  0.4942310046049  0.3928038083142  0.5727357852563 1.0
C      1  0.3556277545953  0.3343093668121  0.7124165561592 1.0
C      1  0.5979850631772  0.5524421215544  0.8549518202949 1.0
C      1  0.2612389475767  0.7958581591532  0.4333647810657 1.0
C      1  0.3265951703506  0.2906016001232  0.4781227869546 1.0
C      1  0.4709395750811  0.6202631801961  0.7799178667283 1.0
C      1  0.3891066494321  0.5267245975922  0.1261957820248 1.0
C      1  0.7602552414407  0.5257660899830  0.2577736821396 1.0
C      1  0.1125216572833  0.4111199237142  0.3911461222548 1.0
C      1  0.5215928672591  0.1556849154343  0.3696137755075 1.0
C      1  0.7477341003698  0.6217796737475  0.7269441840111 1.0
C      1  0.4929224120613  0.4505948276672  0.2584195756574 1.0
C      1  0.2919934005449  0.4310937695526  0.2186941531098 1.0
C      1  0.6964395685538  0.8449083217638  0.4869294043634 1.0
C      1  0.8569645250336  0.4949559760507  0.6099039170840 1.0
C      1  0.7337692449899  0.3762633040668  0.2352297829053 1.0
C      1  0.3379942935752  0.6922623153891  0.2309933189462 1.0
C      1  0.7346109494603  0.5296530307968  0.4188444974321 1.0
C      1  0.4900083034783  0.2810036164237  0.4709423114855 1.0
C      1  0.6092126007986  0.4740507949333  0.3577102687028 1.0
C      1  0.2310752754448  0.3143388343431  0.6135113571629 1.0
C      1  0.5393203338363  0.8644246304130  0.4784062329322 1.0
C      1  0.5712271156562  0.6956321704623  0.5005399160965 1.0
C      1  0.5319269776891  0.1559533552521  0.6300970713390 1.0
C      1  0.3323957561612  0.7952241772044  0.5774258208353 1.0
C      1  0.3823230779830  0.6488127669125  0.5518982756421 1.0
C      1  0.4127644252031  0.3333885097899  0.4566879754414 1.0
C      1  0.3371896931535  0.3343374143832  0.3899674595388 1.0
C      1  0.8298819512551  0.5035089734936  0.4329084594254 1.0
C      1  0.7358211587189  0.4894959869219  0.8135451742170 1.0
C      1  0.5732894622579  0.4503196874025  0.5610792644832 1.0
C      1  0.6024890347525  0.8145811523394  0.3529011641213 1.0
C      1  0.6016387566269  0.6176726045061  0.6057407667121 1.0
C      1  0.8558212526224  0.6476530523097  0.5149266098280 1.0
C      1  0.6122479749709  0.6941068722195  0.2425801383033 1.0
C      1  0.2470624954529  0.6187638050300  0.4038580407861 1.0
C      1  0.2974087926456  0.4259707430122  0.3963216303410 1.0
C      1  0.2321574086659  0.7033967465607  0.4681073856854 1.0
C      1  0.4805522706499  0.6125782282828  0.2784645104409 1.0
C      1  0.4465528787724  0.3692255902503  0.2468013359436 1.0
C      1  0.5064794439932  0.6979137548157  0.4240027312944 1.0
C      1  0.7623144470652  0.7809219188352  0.4558947860881 1.0
C      1  0.1750085199186  0.5188845209706  0.2997308171523 1.0
C      1  0.5958164746164  0.4333913139202  0.6575511776975 1.0
C      1  0.3422036449384  0.4336320871605  0.5533431821066 1.0
C      1  0.5658735221892  0.4120015919823  0.8469036583616 1.0
C      1  0.6783597245678  0.4942110685773  0.6666725186284 1.0
C      1  0.8071177215696  0.6599902235861  0.6603785374114 1.0
C      1  0.7071502161808  0.3012818393125  0.2880812754881 1.0
C      1  0.6514227586786  0.7790876262505  0.7172703642172 1.0
C      1  0.7304737290314  0.2098343241681  0.4386814487754 1.0
C      1  0.3666055455577  0.7529363248611  0.7409327484323 1.0
C      1  0.3131417416447  0.2828321712249  0.3014684721645 1.0
C      1  0.6272717656567  0.3358917405168  0.6696262573845 1.0
C      1  0.3736772992520  0.5692504283599  0.6168646602266 1.0
C      1  0.8531827143514  0.5979346599692  0.6032343819806 1.0
C      1  0.8153320509801  0.4580521376156  0.5260087291933 1.0
C      1  0.1382947882999  0.6552560079200  0.6711732268429 1.0
C      1  0.1752305905018  0.5010907897572  0.6949541014684 1.0
C      1  0.1254324947163  0.6603533126606  0.5877196816279 1.0
C      1  0.1830486309853  0.5936030305892  0.7246693998468 1.0
C      1  0.5835071416736  0.1364264578056  0.5468553678519 1.0
C      1  0.2212460780385  0.1836355443328  0.4744889761150 1.0
C      1  0.6595037781557  0.7478518013101  0.3113182530140 1.0
C      1  0.3819431891084  0.4738950489295  0.7971818665505 1.0
C      1  0.7074834609131  0.7959559675362  0.6424167023437 1.0
C      1  0.7471408881688  0.4422500708227  0.7279791216242 1.0
C      1  0.5984899013922  0.7253649688303  0.7711885372465 1.0
C      1  0.5445582914310  0.4688507070838  0.0758186772903 1.0
C      1  0.6536155307658  0.4310568805341  0.5115077476408 1.0
C      1  0.3055521866837  0.5040457261184  0.5979527305127 1.0
C      1  0.2278679885432  0.5969540738955  0.3013916681718 1.0
C      1  0.6603989540734  0.1902306716402  0.5884048911238 1.0
C      1  0.1600149785714  0.5658387138881  0.4509600526633 1.0
C      1  0.6259145386010  0.8655087596457  0.4291666666380 1.0
C      1  0.8329156623425  0.4263703545305  0.3635724239584 1.0
C      1  0.5225900615951  0.7960462213433  0.4070743411711 1.0
C      1  0.1314059545648  0.3955336781581  0.4870449252427 1.0
C      1  0.4946804809143  0.5597265933838  0.4548293971435 1.0
C      1  0.8001503852870  0.2839759700981  0.5704007494993 1.0
C      1  0.4342291790035  0.6866123334910  0.2364814353314 1.0
C      1  0.2612468108377  0.6004076900976  0.7811613372053 1.0
C      1  0.6595411988699  0.8459329461829  0.5760107381601 1.0
C      1  0.1805911662924  0.2233105421072  0.3982065103347 1.0
C      1  0.2945052293541  0.5017003053715  0.7902921616899 1.0
C      1  0.6681632311676  0.4601109123016  0.4204496641054 1.0
C      1  0.6075873873175  0.4246936047511  0.1102279626886 1.0
C      1  0.5556537999923  0.2788674538077  0.7186137128138 1.0
C      1  0.7047403800685  0.5738672705292  0.5008910129926 1.0
C      1  0.6093441321189  0.1833221313482  0.3280207416213 1.0
C      1  0.5585881513353  0.7971148319643  0.7193771400627 1.0
C      1  0.1633490735441  0.3634607912475  0.3176794659453 1.0
C      1  0.7599750652881  0.2765214649483  0.3701298277656 1.0
C      1  0.5204807983393  0.4986576791127  0.8624030282640 1.0
C      1  0.2087342327593  0.2806690030391  0.3286088089676 1.0
C      1  0.7209322663475  0.3470700758301  0.7058037964008 1.0
C      1  0.5196418052919  0.7092568401824  0.2324925854758 1.0
C      1  0.8141873530794  0.3454855814598  0.4061066475901 1.0
C      1  0.2892459710812  0.6067864065860  0.2312079244550 1.0
C      1  0.1736264296386  0.4855676412968  0.5159044271965 1.0
C      1  0.6785160878728  0.4298827614045  0.1711621901945 1.0
C      1  0.6928700968494  0.5226571342951  0.1947360320165 1.0
C      1  0.2093675668905  0.5017378315125  0.6039384357190 1.0
C      1  0.7670610480022  0.5737580891587  0.8000319524176 1.0
C      1  0.6266844552888  0.2890754588474  0.5760569173447 1.0
C      1  0.3047486950713  0.7100403418237  0.5437715385652 1.0
C      1  0.2717495097139  0.8014453084928  0.3431675897662 1.0
C      1  0.5573955365184  0.8591021093078  0.5735957135544 1.0
C      1  0.4663609918336  0.5319253284140  0.6288269614579 1.0
C      1  0.1458127217071  0.6566721969867  0.4996826483404 1.0
C      1  0.5199074110685  0.3482454564534  0.7942671767678 1.0
C      1  0.4479641997215  0.6898787180387  0.6188148500950 1.0
C      1  0.6525831678954  0.5905233387326  0.6915913961849 1.0
C      1  0.3143660935758  0.6777507656479  0.7839169302880 1.0
C      1  0.6037251468013  0.1821174463833  0.6843920245245 1.0
C      1  0.7950500514681  0.4393497611863  0.2774993022455 1.0
C      1  0.3032873095617  0.2323452429606  0.6084299900796 1.0
C      1  0.8124034750147  0.7351543707174  0.5240527536696 1.0
C      1  0.8324133369192  0.4294354301810  0.6740778219931 1.0
C      1  0.7172279359374  0.4951183670830  0.5611876660612 1.0
C      1  0.7959234935863  0.3566760837664  0.5028566189208 1.0
C      1  0.2653936361392  0.3616255249872  0.7013729255176 1.0
C      1  0.6600313932605  0.1554723897056  0.4046043557790 1.0
C      1  0.7827630336085  0.7414377496356  0.6155000146640 1.0
C      1  0.3035807761723  0.2014735053384  0.5147643656137 1.0
C      1  0.5378065675923  0.5428138914357  0.5586350567091 1.0
C      1  0.4205857693245  0.6304584838337  0.4601511260805 1.0
C      1  0.3609382766311  0.4981210244932  0.3936965700875 1.0
C      1  0.2981170911194  0.7625931014550  0.2734580205857 1.0
C      1  0.3205479722838  0.5236517633381  0.1856344305356 1.0
C      1  0.6478776035410  0.6389244223304  0.5206880155466 1.0
C      1  0.6846510265765  0.3421454584892  0.5153173170223 1.0
C      1  0.5023750666873  0.8327240053128  0.6523414502924 1.0
C      1  0.4308428295404  0.1527813538809  0.3275704161188 1.0
C      1  0.4290923153486  0.3933037835281  0.7507553509872 1.0
C      1  0.4428066031658  0.6107796701092  0.6821873491196 1.0
C      1  0.7287200760152  0.5797945720429  0.3353424090928 1.0
C      1  0.7459905788663  0.7354811355667  0.3688369639652 1.0
C      1  0.4808413503098  0.2429671957736  0.6448546459746 1.0
C      1  0.1441871537637  0.2375252817081  0.4896157001175 1.0
C      1  0.3418675622882  0.5861709189072  0.4111413529668 1.0
C      1  0.7886715662796  0.6528862236305  0.3657113299478 1.0
C      1  0.4861596059141  0.4385415981458  0.6667900362276 1.0
C      1  0.4771432284809  0.5186230666923  0.1218446458456 1.0
C      1  0.5069837008803  0.2524759230683  0.3884818509315 1.0
C      1  0.5811041639447  0.1254147349036  0.4545457682813 1.0
C      1  0.2362254640315  0.4217069494201  0.4729951216813 1.0
C      1  0.1213863496339  0.5057288255758  0.3754364178046 1.0
C      1  0.7522001935657  0.2072191987020  0.5378475327264 1.0
C      1  0.3497108952980  0.3565774207411  0.2344741673942 1.0
END
