TITL C-10682-722-28 -4.273 3375.00 -730.44376311 0 0 89 (C2) n - 1
REM
REM Run started: at 2020.12.29 07:33:34 in /gpfs/home/chem/mssmkc/CARBON/AIRSS/Generating-Clusters/Str-Search/Higher-Symm/C4-100
REM VASP from code version vasp.5.4.4.18Apr17-6-g9f103f2a35 (build Oct 11 2019 16:45:47) gamma-only
REM
REM
REM
REM
REM ./C.cell (6bd13a13d554368a30d355f37ece5b26)
REM AIRSS Version 0.9.1 bugfix July 2018 build 013d7b7c2542+ Fri, 06 Jul 2018 19:26:36 +0100
REM compiler GCC version 6.3.0
REM options -cpp -iprefix /gpfs/warwick/csc/orac/software/Core/GCCcore/6.3.0/bin/../lib/gcc/x86_64-pc-linux-gnu/6.3.0/ -mtune=generic -march=x86-64 -g -O0
REM seed -352645887 1997267324 613339745 -837002069 1388236126 -939495804 -1987705365 -1738971855 1820543184 -1806968855 -24489463 -35850272
REM
REM C.POTCAR (d86ddea03c3ceb6dc662c8ad6801f873)
REM 
CELL 1.54180   15.00000   15.00000   15.00000   90.00000   90.00000   90.00000
LATT -1
SFAC C  
C      1  0.6501153090960  0.2866655987540  0.6068686096823 1.0
C      1  0.7127445075001  0.6487981808435  0.3930535909960 1.0
C      1  0.3502992436642  0.7113442665474  0.6069763300937 1.0
C      1  0.2877078367567  0.3494686156049  0.3930172467475 1.0
C      1  0.5771453732824  0.2336262717088  0.5718438343107 1.0
C      1  0.7659370656853  0.5760711660467  0.4279657918361 1.0
C      1  0.4232706380789  0.7645108082788  0.5720053323567 1.0
C      1  0.2345032326319  0.4222035433783  0.4279735787736 1.0
C      1  0.4958485469675  0.7423749738911  0.6272050977229 1.0
C      1  0.2564998226286  0.4949186224421  0.3726553200786 1.0
C      1  0.5045635425457  0.2556521803534  0.6271019639971 1.0
C      1  0.7439304285619  0.5033787567336  0.3726358847315 1.0
C      1  0.2007269880337  0.4462789296864  0.6201652710577 1.0
C      1  0.5524287113811  0.1998178784849  0.3798488445151 1.0
C      1  0.7996585288738  0.5513394217785  0.6200498389064 1.0
C      1  0.4480649838037  0.7983977085562  0.3798704392225 1.0
C      1  0.4902843820142  0.3729402110780  0.2207924203546 1.0
C      1  0.6264442509128  0.4891532700728  0.7790485750202 1.0
C      1  0.5102420396821  0.6251646237678  0.2208140415751 1.0
C      1  0.3740850579070  0.5087552068217  0.7791113130955 1.0
C      1  0.2671165467772  0.5756046697739  0.4164721521604 1.0
C      1  0.4236777284384  0.2660481477057  0.5834617538485 1.0
C      1  0.7332527372182  0.4227035899873  0.4164485823032 1.0
C      1  0.5768024265250  0.7321971062749  0.5835872463131 1.0
C      1  0.7514205159113  0.5687133510640  0.5319385903384 1.0
C      1  0.4307581713216  0.7501271516297  0.4680620083893 1.0
C      1  0.2490054084546  0.4294649486832  0.5319223902241 1.0
C      1  0.5697261983756  0.2481197587962  0.4679770183221 1.0
C      1  0.6808068045663  0.5302894538896  0.2990261294390 1.0
C      1  0.4688290101350  0.6793947354429  0.7008628127404 1.0
C      1  0.3196678585773  0.4680501360615  0.2990341314940 1.0
C      1  0.5315219505397  0.3186332832033  0.7007337013780 1.0
C      1  0.5203518683949  0.4520912060951  0.5830819173102 1.0
C      1  0.5473873967408  0.5191082257438  0.4168339285222 1.0
C      1  0.4799282186885  0.5463525814032  0.5829950806384 1.0
C      1  0.4529878342186  0.4791005388906  0.4168028692038 1.0
C      1  0.3017627371504  0.3484356150029  0.5459341609507 1.0
C      1  0.6507999868586  0.3007757506027  0.4538928761161 1.0
C      1  0.6987671773844  0.6497868550416  0.5460068281690 1.0
C      1  0.3496701416277  0.6974378121355  0.4539818184594 1.0
C      1  0.3037511164406  0.6756254477123  0.5331886962292 1.0
C      1  0.3235721227517  0.3026850833556  0.4667504832592 1.0
C      1  0.6966589088396  0.3225926278187  0.5331275070108 1.0
C      1  0.6768795641706  0.6955057553007  0.4668390070420 1.0
C      1  0.5078629862732  0.7105700908237  0.2511245619002 1.0
C      1  0.2886404626005  0.5061162660506  0.7487885315883 1.0
C      1  0.4926453471542  0.2875187113369  0.2510918404725 1.0
C      1  0.7118705071962  0.4914244688252  0.7487918177711 1.0
C      1  0.2663650379635  0.5886020701700  0.5155713013135 1.0
C      1  0.4106142757309  0.2654085748073  0.4844087194022 1.0
C      1  0.7339380962251  0.4096752759071  0.5155385883324 1.0
C      1  0.5898536430184  0.7328174837056  0.4845001348051 1.0
C      1  0.5320935671371  0.4610801793457  0.2127015342252 1.0
C      1  0.5382133702551  0.5309545170328  0.7871673139147 1.0
C      1  0.4684025419791  0.5370145547289  0.2127217113199 1.0
C      1  0.4623482764432  0.4671785905376  0.7871560136983 1.0
C      1  0.3035342670073  0.5139285314487  0.5553507764133 1.0
C      1  0.4852424279121  0.3026639965543  0.4445704407465 1.0
C      1  0.6967100878269  0.4843481929066  0.5553066869367 1.0
C      1  0.5152252868194  0.6955215381633  0.4446784840064 1.0
C      1  0.3702225891174  0.3403569726325  0.6078341804181 1.0
C      1  0.6587397989100  0.3693507102891  0.3922097457006 1.0
C      1  0.6303563887631  0.6579323321353  0.6079727990672 1.0
C      1  0.3416630483843  0.6289040178146  0.3922602082693 1.0
C      1  0.4692183469407  0.3904210680777  0.7292313869116 1.0
C      1  0.6089241632969  0.4679832602145  0.2705686446345 1.0
C      1  0.5312756579831  0.6077521214619  0.7293390280034 1.0
C      1  0.3915299200637  0.5303285755708  0.2705422908414 1.0
C      1  0.5781356357879  0.5813040781965  0.6417583587695 1.0
C      1  0.4183340455711  0.5765889713620  0.3584377990691 1.0
C      1  0.4224825586404  0.4170302618638  0.6415892679498 1.0
C      1  0.5820850072438  0.4217015842823  0.3584573650044 1.0
C      1  0.3354148711423  0.3758264606942  0.3119639017725 1.0
C      1  0.6237970937758  0.3342953175096  0.6879124811181 1.0
C      1  0.6650781238480  0.6225236910707  0.3119802676055 1.0
C      1  0.3765600540576  0.6636417643990  0.6880305659146 1.0
C      1  0.4841922668642  0.3838153589272  0.3804701596483 1.0
C      1  0.6155909321563  0.4833415835360  0.6194261371873 1.0
C      1  0.5162452212475  0.6143547525046  0.3805320838231 1.0
C      1  0.3847458339714  0.5149216605438  0.6194022182259 1.0
C      1  0.2233786365560  0.4585071478033  0.7001707082422 1.0
C      1  0.5402040616495  0.2222285734385  0.2997887318957 1.0
C      1  0.7772130044277  0.5389668889005  0.7000878618334 1.0
C      1  0.4603149905716  0.7758498806906  0.2998665413607 1.0
C      1  0.6474603949329  0.4293029075128  0.7028334435427 1.0
C      1  0.5701028915681  0.6461935745367  0.2970302382602 1.0
C      1  0.3528508359408  0.5686559533007  0.7029418440676 1.0
C      1  0.4303716414906  0.3519615867682  0.2969741514224 1.0
C      1  0.5001424834409  0.4991348351746  0.4999499176594 1.0
END
