TITL C-10682-722-35 -1.139 3375.00 -192.07375685 0 0 25 (C1) n - 1
REM
REM Run started: at 2020.12.29 08:46:58 in /gpfs/home/chem/mssmkc/CARBON/AIRSS/Generating-Clusters/Str-Search/Higher-Symm/C4-100
REM VASP from code version vasp.5.4.4.18Apr17-6-g9f103f2a35 (build Oct 11 2019 16:45:47) gamma-only
REM
REM
REM
REM
REM ./C.cell (6bd13a13d554368a30d355f37ece5b26)
REM AIRSS Version 0.9.1 bugfix July 2018 build 013d7b7c2542+ Fri, 06 Jul 2018 19:26:36 +0100
REM compiler GCC version 6.3.0
REM options -cpp -iprefix /gpfs/warwick/csc/orac/software/Core/GCCcore/6.3.0/bin/../lib/gcc/x86_64-pc-linux-gnu/6.3.0/ -mtune=generic -march=x86-64 -g -O0
REM seed 555452178 -191429126 -1081884681 -1701754841 -1039604524 1156416044 -1626061281 -631058603 -1166553541 127881019 -2059730445 1315903669
REM
REM C.POTCAR (d86ddea03c3ceb6dc662c8ad6801f873)
REM 
CELL 1.54180   15.00000   15.00000   15.00000   90.00000   90.00000   90.00000
LATT -1
SFAC C  
C      1  0.6111880944070  0.5436419142492  0.4132976486061 1.0
C      1  0.6133503213854  0.4029002827393  0.5016202378602 1.0
C      1  0.6240578191956  0.5488224752574  0.5830350526676 1.0
C      1  0.3849297353458  0.5443570772879  0.4040569693166 1.0
C      1  0.3769635431006  0.3962591209177  0.4914089858550 1.0
C      1  0.3825337541016  0.5486706669018  0.5766676734161 1.0
C      1  0.6118203551522  0.4520257933434  0.4134309921477 1.0
C      1  0.6122720984129  0.5929194817597  0.5013529864093 1.0
C      1  0.6246038399039  0.4472552975595  0.5831974038305 1.0
C      1  0.3851080217752  0.4500948969964  0.4042314452889 1.0
C      1  0.3770547110236  0.5978355446254  0.4909896118519 1.0
C      1  0.3821713180073  0.4457376031345  0.5770953838022 1.0
C      1  0.5468328979571  0.3885100913244  0.3755426269707 1.0
C      1  0.5626326009134  0.4476272262153  0.6570231009262 1.0
C      1  0.5433153740308  0.6510458629708  0.4637910731809 1.0
C      1  0.4516078235806  0.3889209183339  0.3709727842823 1.0
C      1  0.4606173808993  0.4487669520324  0.6431923546536 1.0
C      1  0.4452834702078  0.6544686149283  0.4589775962924 1.0
C      1  0.5460962797051  0.6068574450629  0.3750547120986 1.0
C      1  0.5620106200924  0.5479816059179  0.6566598930186 1.0
C      1  0.5444406770756  0.3444053838937  0.4642354610187 1.0
C      1  0.4509469787895  0.6059780593873  0.3703048951855 1.0
C      1  0.4601876589382  0.5462822133327  0.6433742537606 1.0
C      1  0.4462311316727  0.3406995624620  0.4596610458459 1.0
C      1  0.4674159943261  0.4970459093662  0.5483541117138 1.0
END
