TITL C-10682-722-203 -0.829 3375.00 -134.35472843 0 0 18 (Ci) n - 1
REM
REM Run started: at 2020.12.30 16:24:52 in /gpfs/home/chem/mssmkc/CARBON/AIRSS/Generating-Clusters/Str-Search/Higher-Symm/C4-100
REM VASP from code version vasp.5.4.4.18Apr17-6-g9f103f2a35 (build Oct 11 2019 16:45:47) gamma-only
REM
REM
REM
REM
REM ./C.cell (6bd13a13d554368a30d355f37ece5b26)
REM AIRSS Version 0.9.1 bugfix July 2018 build 013d7b7c2542+ Fri, 06 Jul 2018 19:26:36 +0100
REM compiler GCC version 6.3.0
REM options -cpp -iprefix /gpfs/warwick/csc/orac/software/Core/GCCcore/6.3.0/bin/../lib/gcc/x86_64-pc-linux-gnu/6.3.0/ -mtune=generic -march=x86-64 -g -O0
REM seed -2142220219 1611596338 1397570916 40433962 2070095900 -2126860370 -59730114 -69362085 -1059006662 -110127354 -855619959 -1548066644
REM
REM C.POTCAR (d86ddea03c3ceb6dc662c8ad6801f873)
REM 
CELL 1.54180   15.00000   15.00000   15.00000   90.00000   90.00000   90.00000
LATT -1
SFAC C  
C      1  0.5628878075485  0.5210923288958  0.5762468363221 1.0
C      1  0.4371121928053  0.4789076726306  0.4237531630623 1.0
C      1  0.4250234279296  0.4131635771838  0.5992923214878 1.0
C      1  0.5749765725054  0.5868364218230  0.4007076776669 1.0
C      1  0.6106844309584  0.6460627667181  0.5314755506929 1.0
C      1  0.3893155709597  0.3539372327322  0.4685244520289 1.0
C      1  0.6264066639280  0.5105336395552  0.4375734514292 1.0
C      1  0.3735933363536  0.4894663604728  0.5624265486083 1.0
C      1  0.4825453335399  0.5629112337241  0.4225252856347 1.0
C      1  0.5174546665735  0.4370887663335  0.5774747141594 1.0
C      1  0.4284677525430  0.3271720543376  0.5483036049758 1.0
C      1  0.5715322461830  0.6728279461025  0.4516963935045 1.0
C      1  0.4835734334951  0.6335469657413  0.4883406857294 1.0
C      1  0.5164265652869  0.3664530339286  0.5116593146514 1.0
C      1  0.5270573813859  0.6124351562303  0.5743254057275 1.0
C      1  0.4729426186433  0.3875648424194  0.4256745941875 1.0
C      1  0.6407827714887  0.5499186525915  0.5243581884389 1.0
C      1  0.3592172278720  0.4500813485797  0.4756418116924 1.0
END
