TITL C-10281-8146-9 -6.536 3375.00 -1135.48323438 0 0 137 (C1) n - 1
REM
REM Run started: at 2020.12.22 06:35:10 in /rds/project/t2_vol4/rds-t2-cs072/BORA/CARBON/AIRSS/Generating-Clusters/Str-Search/Higher-Symm/C100-200
REM VASP from code version vasp.5.4.4.18Apr17-6-g9f103f2a35 (build Oct 11 2019 16:45:47) gamma-only
REM
REM
REM
REM
REM ./C.cell (533062f00bc710175b3da973d35f2034)
REM AIRSS Version 0.9.1 bugfix July 2018 build 013d7b7c2542+ Fri, 06 Jul 2018 19:26:36 +0100
REM compiler GCC version 4.8.5 20150623 (Red Hat 4.8.5-39)
REM options -cpp -mtune=generic -march=x86-64 -g -O0
REM seed -25547621 -1293093384 1117719026 -495632039 -1118751441 -838151068 -1791904743 1517496439 -2120586374 1454298357 -1497408744 -189327899
REM
REM C.POTCAR (d86ddea03c3ceb6dc662c8ad6801f873)
REM 
CELL 1.54180   15.00000   15.00000   15.00000   90.00000   90.00000   90.00000
LATT -1
SFAC C  
C      1  0.6894156833066  0.5306692535267  0.1559728661692 1.0
C      1  0.7506223142346  0.5617865211328  0.8990721129132 1.0
C      1  0.3150485306456  0.4125198142233  0.9172011847633 1.0
C      1  0.2469976129425  0.5431766482073  0.1253101780961 1.0
C      1  0.6708696367780  0.7300218772077  0.3142895321799 1.0
C      1  0.6970437599704  0.2450001393588  0.6479191091165 1.0
C      1  0.3271676273849  0.7234122827904  0.6887277902659 1.0
C      1  0.2937216366968  0.2722694442550  0.3264067322037 1.0
C      1  0.7341661153190  0.6759871674864  0.3653927897334 1.0
C      1  0.7633834501661  0.2954907669534  0.5958995095425 1.0
C      1  0.2605572233756  0.6616750862363  0.6551944262656 1.0
C      1  0.2283008247569  0.3162104055734  0.3844689104167 1.0
C      1  0.2945913502631  0.4282513047324  0.3023571074683 1.0
C      1  0.3323292981695  0.5824581131338  0.7611840482265 1.0
C      1  0.7087633453951  0.3899269054640  0.7025477228680 1.0
C      1  0.6773765351248  0.5880161722880  0.2419437184068 1.0
C      1  0.6339338665231  0.1963504023031  0.5941428033924 1.0
C      1  0.6275746775437  0.7957300562122  0.3675167836828 1.0
C      1  0.3538205174813  0.2109354557766  0.3737936872722 1.0
C      1  0.3836045083635  0.7634617607410  0.6198924031719 1.0
C      1  0.2649696679273  0.4976283709301  0.0567248342499 1.0
C      1  0.2900178559818  0.4522464247137  0.9885520504244 1.0
C      1  0.7350491478077  0.5584337823248  0.9878899164777 1.0
C      1  0.7168330317383  0.5554359743929  0.0685669571151 1.0
C      1  0.3436041019427  0.3421746418910  0.7625113957991 1.0
C      1  0.2824895859329  0.6609936743869  0.2496423960589 1.0
C      1  0.6544904369935  0.3772008065944  0.2268561281651 1.0
C      1  0.7243750226517  0.6707273004686  0.7024606648816 1.0
C      1  0.5795691181659  0.4200700600643  0.4864088863486 1.0
C      1  0.5788522089734  0.6257944422779  0.5208497043729 1.0
C      1  0.4084687898770  0.4202749591459  0.5000735662996 1.0
C      1  0.4874847231535  0.5742399544426  0.5148686294249 1.0
C      1  0.8235878057418  0.4641680275378  0.6103137037003 1.0
C      1  0.7974271071792  0.5166986978967  0.3451242009523 1.0
C      1  0.1637440081389  0.4843159821192  0.3919506811941 1.0
C      1  0.1986974982344  0.5083628103697  0.6696363708362 1.0
C      1  0.7727451794619  0.5929726810641  0.7282190065343 1.0
C      1  0.7350337963755  0.3586841899852  0.2794271135420 1.0
C      1  0.2085475266801  0.6133926687089  0.2840856212996 1.0
C      1  0.2639401809452  0.3432824887483  0.7075763741169 1.0
C      1  0.7803439518317  0.3110989656657  0.4238032225351 1.0
C      1  0.7760945608002  0.6789340879567  0.5412113852714 1.0
C      1  0.2151958026783  0.3165007433695  0.5582926541152 1.0
C      1  0.2232241351443  0.6709498989160  0.4821769677381 1.0
C      1  0.3790602030965  0.6653822670481  0.7459328634457 1.0
C      1  0.3446337403786  0.3450854369846  0.2925552969142 1.0
C      1  0.6300860385179  0.6778464264222  0.2468635214942 1.0
C      1  0.6542762910863  0.3126061587735  0.7007870434161 1.0
C      1  0.6276141020502  0.5643193360757  0.4562961668068 1.0
C      1  0.6480651706661  0.4914086967831  0.5105989936454 1.0
C      1  0.3133736482163  0.5393596941034  0.5559253723494 1.0
C      1  0.3395791154263  0.4936190489790  0.4797860879112 1.0
C      1  0.8332626534898  0.4820696068328  0.4344011568593 1.0
C      1  0.8355150624643  0.5103667866914  0.5211754695239 1.0
C      1  0.1589329836842  0.4856907662580  0.5724904886347 1.0
C      1  0.1480173083851  0.5195890284836  0.4865451178117 1.0
C      1  0.1656290839813  0.5754193106429  0.3578999982936 1.0
C      1  0.2040935525426  0.4125692147114  0.6832317721784 1.0
C      1  0.8140826137056  0.5533950139014  0.6513779102090 1.0
C      1  0.7941331052310  0.4233007839846  0.3156323429907 1.0
C      1  0.1722364730017  0.3931685237216  0.5932179232899 1.0
C      1  0.1640571097684  0.6074993943402  0.4504310083932 1.0
C      1  0.8250428872339  0.3920867157055  0.4017120540253 1.0
C      1  0.8166164608346  0.5953629584354  0.5633026876936 1.0
C      1  0.4253841198649  0.5390656584337  0.2525123235703 1.0
C      1  0.4879464007089  0.4677574453911  0.7363850851896 1.0
C      1  0.5695472778869  0.5080370202732  0.7336532261498 1.0
C      1  0.5015082562150  0.4883746190730  0.2574380644929 1.0
C      1  0.4015676889203  0.6937492708940  0.4584988949214 1.0
C      1  0.3769764841212  0.1996719059212  0.5456891284323 1.0
C      1  0.6359674814653  0.8209462449792  0.5473491212545 1.0
C      1  0.6106474411399  0.2068778920035  0.4214097319954 1.0
C      1  0.5396285319784  0.6433547344417  0.2531726066783 1.0
C      1  0.5803570782807  0.3618951277878  0.6450554584548 1.0
C      1  0.4610425858589  0.6212683690933  0.6988478564984 1.0
C      1  0.4253832170254  0.3599741357227  0.3488663105941 1.0
C      1  0.3435232330856  0.7522915287024  0.4032656038684 1.0
C      1  0.3312399835597  0.2202479456731  0.6257397285105 1.0
C      1  0.6860103382504  0.7943250210295  0.6233766409434 1.0
C      1  0.6596179216900  0.2315136580374  0.3448216486205 1.0
C      1  0.3528390515150  0.5078442030238  0.3129419342786 1.0
C      1  0.4112532979479  0.5320493851956  0.7221800215667 1.0
C      1  0.6348377661767  0.4534938968542  0.6778021536453 1.0
C      1  0.5764290797437  0.5548165335737  0.2784271439648 1.0
C      1  0.6516777250969  0.7726226979560  0.4622207851769 1.0
C      1  0.6408212911617  0.2519955938936  0.5071510812382 1.0
C      1  0.3773946093567  0.6838087330727  0.5541955640031 1.0
C      1  0.3481628001682  0.2548827828191  0.4665179813568 1.0
C      1  0.7635201494461  0.5634156855976  0.8172216338408 1.0
C      1  0.6634632751061  0.4461907734840  0.1710983181277 1.0
C      1  0.2393623069183  0.5958065000088  0.1956917215146 1.0
C      1  0.3407710761920  0.3758201153231  0.8453825970492 1.0
C      1  0.4172126527009  0.2335584250449  0.6690965107226 1.0
C      1  0.3869502605734  0.7744714547635  0.3171640325885 1.0
C      1  0.5759640699391  0.2531511666468  0.3002011368017 1.0
C      1  0.6075143740468  0.7683629086586  0.6758010232784 1.0
C      1  0.5697724544167  0.3360272741201  0.2626106869864 1.0
C      1  0.6278016949396  0.6888401761728  0.7209264846971 1.0
C      1  0.4260198476570  0.3114439535622  0.7148638511642 1.0
C      1  0.3714126246926  0.6977460086722  0.2590750444584 1.0
C      1  0.6471517713614  0.5139049263563  0.6028406429242 1.0
C      1  0.5908205053592  0.5270571101096  0.3734363437923 1.0
C      1  0.3652325173474  0.5403576366392  0.3978315914791 1.0
C      1  0.3857086755002  0.5183211583316  0.6225889330128 1.0
C      1  0.4652994038768  0.1902514271517  0.5921715197540 1.0
C      1  0.4671755936461  0.8166801029961  0.3195529733394 1.0
C      1  0.5233994631186  0.2045351216096  0.3719572631627 1.0
C      1  0.5481709838267  0.7881182000629  0.5905215318913 1.0
C      1  0.4835330042431  0.3847192150143  0.6778635958785 1.0
C      1  0.4446137427524  0.6366684355204  0.2442283419271 1.0
C      1  0.5090470073226  0.4038586771408  0.3118438384316 1.0
C      1  0.5647780353558  0.6088278539939  0.7054514021581 1.0
C      1  0.7338063659823  0.2876049759731  0.3420915606677 1.0
C      1  0.7467602886684  0.7222879820004  0.6230352843447 1.0
C      1  0.2617065129423  0.2809708692970  0.6351027196066 1.0
C      1  0.2581356380325  0.7350771306280  0.4244084618427 1.0
C      1  0.5469391702008  0.8278658097475  0.3414469368346 1.0
C      1  0.5505985828945  0.1649164271952  0.5995567539979 1.0
C      1  0.4570840120249  0.8121639601429  0.6132440205951 1.0
C      1  0.4370367555514  0.1808777183084  0.3621735078373 1.0
C      1  0.5665587825428  0.4399194680460  0.3876260413955 1.0
C      1  0.6043129258471  0.5929903590406  0.6123060234719 1.0
C      1  0.4386522803025  0.4361281488017  0.5954424461217 1.0
C      1  0.4284948063638  0.6059417716601  0.4363796116412 1.0
C      1  0.2166783415476  0.4116990419719  0.3564288597302 1.0
C      1  0.2463833252962  0.5820534196250  0.7087893101910 1.0
C      1  0.7835268955583  0.3831455150885  0.6398872053631 1.0
C      1  0.7500512393732  0.5917090461228  0.3169881433697 1.0
C      1  0.5692002983376  0.7241228387357  0.5093461666281 1.0
C      1  0.5897033350893  0.3382627512305  0.5422703716677 1.0
C      1  0.4347257244905  0.6076542084969  0.5968092232703 1.0
C      1  0.4093600935545  0.3409397096198  0.4419065118392 1.0
C      1  0.7337019397015  0.7084493691002  0.4573562369282 1.0
C      1  0.7422524057191  0.2811225135884  0.5046222175946 1.0
C      1  0.2817101144255  0.6406703976425  0.5598397219027 1.0
C      1  0.2495317591841  0.2909442750162  0.4726535080457 1.0
C      1  0.4948319922528  0.4711727016428  0.5199648172323 1.0
END
