TITL C-107697-127-25 -2.58 3375.00 -407.39746128 0 0 51 (C1) n - 1
REM
REM Run started: at 2020.11.29 18:48:00 in /rds/project/t2_vol4/rds-t2-cs072/BORA/CARBON/AIRSS/Generating-Clusters/Str-Search/Higher-Symm/C10-100
REM VASP from code version vasp.5.4.4.18Apr17-6-g9f103f2a35 (build Oct 11 2019 16:45:47) gamma-only
REM
REM
REM
REM
REM ./C.cell (f39ce9773e2efe3fa5bbdf770a4156b8)
REM AIRSS Version 0.9.1 bugfix July 2018 build 013d7b7c2542+ Fri, 06 Jul 2018 19:26:36 +0100
REM compiler GCC version 4.8.5 20150623 (Red Hat 4.8.5-39)
REM options -cpp -mtune=generic -march=x86-64 -g -O0
REM seed -1049631852 -632238304 -1134371580 -1048975905 -907270092 1534793029 -361606978 -1172518314 6774005 -102908436 1472000125 -1518978484
REM
REM C.POTCAR (d86ddea03c3ceb6dc662c8ad6801f873)
REM 
CELL 1.54180   15.00000   15.00000   15.00000   90.00000   90.00000   90.00000
LATT -1
SFAC C  
C      1  0.2927104984182  0.5143422723370  0.4495127142367 1.0
C      1  0.3814987535049  0.5107759610079  0.3061177197559 1.0
C      1  0.4666858035169  0.5003832387142  0.2635830219198 1.0
C      1  0.6423436044991  0.4966560903292  0.2688080727037 1.0
C      1  0.7530828730992  0.5016446658446  0.4038492941631 1.0
C      1  0.7291858642803  0.4923206997130  0.5775589829369 1.0
C      1  0.6236612892119  0.4899315162765  0.7120467953492 1.0
C      1  0.5315987582473  0.4860545715446  0.7355561563776 1.0
C      1  0.3846992292292  0.5148335818493  0.6804235881470 1.0
C      1  0.2900459030974  0.5176263668602  0.5439240088172 1.0
C      1  0.3525949721517  0.6479535794234  0.3883036133630 1.0
C      1  0.4104128754261  0.3355682664731  0.2940940049089 1.0
C      1  0.5520476397295  0.5915609968315  0.3581708785506 1.0
C      1  0.5648148997740  0.4419032421165  0.4388132221445 1.0
C      1  0.6392452619969  0.5808975350405  0.4940120023462 1.0
C      1  0.6558461454319  0.3616089808349  0.6246927354381 1.0
C      1  0.5653394326439  0.6566960526571  0.7032718558232 1.0
C      1  0.4401679189253  0.3588267753020  0.6868320384888 1.0
C      1  0.3470147959750  0.6541663557033  0.6139544367104 1.0
C      1  0.2875573150909  0.3441773441965  0.5031062563563 1.0
C      1  0.3540638389397  0.2935621980417  0.5502086527619 1.0
C      1  0.3649372637374  0.7142913732414  0.4554803815014 1.0
C      1  0.3914990810175  0.2793927586138  0.3767432506043 1.0
C      1  0.5098317188866  0.6835256463967  0.3590225302711 1.0
C      1  0.5430711835736  0.3547573546963  0.4000062840213 1.0
C      1  0.6436167529295  0.6740041005828  0.4580213303404 1.0
C      1  0.6344564122552  0.3142132822222  0.5470613944373 1.0
C      1  0.5924066366661  0.7026101786506  0.6253966787130 1.0
C      1  0.4997095996162  0.2921796710033  0.6581621411095 1.0
C      1  0.4164803308857  0.7159526730606  0.6270978797007 1.0
C      1  0.3616264953581  0.7181341282644  0.5460897678603 1.0
C      1  0.3465552879005  0.2860486644200  0.4547678452794 1.0
C      1  0.4226363592589  0.7086082819913  0.3787187092933 1.0
C      1  0.4782083760212  0.3062325714206  0.3505862014679 1.0
C      1  0.5992707807424  0.6785710106776  0.3738333848741 1.0
C      1  0.5966528943451  0.3560975554138  0.4717019904151 1.0
C      1  0.6306806882428  0.6705296588959  0.5462276137697 1.0
C      1  0.5859753624439  0.2977220294345  0.6290373984736 1.0
C      1  0.5026435902358  0.7133813497576  0.6565005082570 1.0
C      1  0.4085083404307  0.2973577343161  0.6224212535154 1.0
C      1  0.5565536028967  0.5302338640913  0.2788834501344 1.0
C      1  0.7048237138136  0.5038551898476  0.3322074218727 1.0
C      1  0.7243984171309  0.5206954094656  0.4931151265551 1.0
C      1  0.6809472685687  0.4502119627840  0.6459824460068 1.0
C      1  0.5746514476373  0.5689836514808  0.7292672705970 1.0
C      1  0.4440042194147  0.4510082861969  0.7099320973700 1.0
C      1  0.3305264863464  0.5600895493170  0.6220904566530 1.0
C      1  0.2782892914862  0.4357810287076  0.4987763969613 1.0
C      1  0.3320343147951  0.5579950184070  0.3740634027509 1.0
C      1  0.4075212840390  0.4268219207918  0.2754839172889 1.0
C      1  0.5657757261351  0.5329797047542  0.4429199186062 1.0
END
