TITL C-10682-722-29 -2.705 3375.00 -489.46399194 0 0 61 (C1) n - 1
REM
REM Run started: at 2020.12.29 07:40:48 in /gpfs/home/chem/mssmkc/CARBON/AIRSS/Generating-Clusters/Str-Search/Higher-Symm/C4-100
REM VASP from code version vasp.5.4.4.18Apr17-6-g9f103f2a35 (build Oct 11 2019 16:45:47) gamma-only
REM
REM
REM
REM
REM ./C.cell (6bd13a13d554368a30d355f37ece5b26)
REM AIRSS Version 0.9.1 bugfix July 2018 build 013d7b7c2542+ Fri, 06 Jul 2018 19:26:36 +0100
REM compiler GCC version 6.3.0
REM options -cpp -iprefix /gpfs/warwick/csc/orac/software/Core/GCCcore/6.3.0/bin/../lib/gcc/x86_64-pc-linux-gnu/6.3.0/ -mtune=generic -march=x86-64 -g -O0
REM seed 1926303721 -392744266 -361312057 -1636742109 -536423616 1514354931 -1300447456 -1735258699 1701475896 -1546825371 707268337 1330316280
REM
REM C.POTCAR (d86ddea03c3ceb6dc662c8ad6801f873)
REM 
CELL 1.54180   15.00000   15.00000   15.00000   90.00000   90.00000   90.00000
LATT -1
SFAC C  
C      1  0.3109229413045  0.5826599633609  0.5210512292949 1.0
C      1  0.3138798593789  0.5053342900253  0.5819989782705 1.0
C      1  0.3105490960319  0.4237207657648  0.5286950704539 1.0
C      1  0.3128518675051  0.4513239798406  0.4329175971433 1.0
C      1  0.3083192791771  0.5481646681319  0.4283620211672 1.0
C      1  0.6857532376278  0.4216601538524  0.5195009021757 1.0
C      1  0.6895480189292  0.4978999122537  0.5799237615848 1.0
C      1  0.6905386637573  0.5794290665736  0.5243859654741 1.0
C      1  0.6942961747731  0.5511244946410  0.4308973600883 1.0
C      1  0.6931045317679  0.4516542291447  0.4264262182006 1.0
C      1  0.5869927146176  0.6865713648112  0.3783208429769 1.0
C      1  0.6048938650701  0.6706939025613  0.6395674039106 1.0
C      1  0.6034950694194  0.4130813521629  0.7050469929751 1.0
C      1  0.5885676750142  0.2777120930506  0.4855791783129 1.0
C      1  0.5929407307360  0.4458523144414  0.2853843580201 1.0
C      1  0.4064119570071  0.3194307566472  0.3838894562088 1.0
C      1  0.4055501862910  0.3333547520346  0.6412370911617 1.0
C      1  0.4055125639234  0.5831349985185  0.7030261035210 1.0
C      1  0.4034011588004  0.7175723479963  0.4812312934871 1.0
C      1  0.4113673868315  0.5500472724496  0.2877754991656 1.0
C      1  0.6499415844455  0.3999569202045  0.3506482025247 1.0
C      1  0.6368469704443  0.6010480504608  0.3622086004601 1.0
C      1  0.6463242288324  0.6635515916149  0.5534889274942 1.0
C      1  0.6503829894685  0.4932123301307  0.6693791661100 1.0
C      1  0.6285836312389  0.3454009272836  0.5517843618905 1.0
C      1  0.3585967801799  0.5937966289564  0.3567204717391 1.0
C      1  0.3637146591538  0.4026883355616  0.3623826245559 1.0
C      1  0.3581218695180  0.3416714636771  0.5585294732180 1.0
C      1  0.3603807646699  0.5062275608998  0.6701476312548 1.0
C      1  0.3544377376500  0.6671499137723  0.5465546021102 1.0
C      1  0.5440778660232  0.4750765505459  0.4378248864898 1.0
C      1  0.4731256824012  0.5854282561946  0.4339010636634 1.0
C      1  0.4872625684765  0.6142296769378  0.5851340691501 1.0
C      1  0.4964788992880  0.4558276779770  0.6281560397267 1.0
C      1  0.4704707369416  0.3876150814800  0.4940852254452 1.0
C      1  0.5509437403777  0.5501634523496  0.3867373916070 1.0
C      1  0.5329544277136  0.3861386237599  0.4219060957503 1.0
C      1  0.5263697610436  0.3846742680929  0.5742120986567 1.0
C      1  0.5231447446446  0.5440341120994  0.6318548886362 1.0
C      1  0.5149752377929  0.6339500723593  0.5015290133795 1.0
C      1  0.4167547978454  0.3017925784788  0.4846381034643 1.0
C      1  0.4182129554234  0.4528800518559  0.2935515510038 1.0
C      1  0.4178039198849  0.6674796196708  0.3917799870645 1.0
C      1  0.4117336877137  0.6581799989986  0.6325778590203 1.0
C      1  0.4187812322035  0.4237685494363  0.6853707718327 1.0
C      1  0.5832416408495  0.7026538868490  0.4793251777631 1.0
C      1  0.5823957141561  0.5472038024519  0.2911748284689 1.0
C      1  0.5922884982516  0.3167778275703  0.3897186283531 1.0
C      1  0.5976575029777  0.3314322349908  0.6488997769185 1.0
C      1  0.5964127653721  0.5791263687360  0.6897822203005 1.0
C      1  0.5029058302804  0.5520029841729  0.7320563789211 1.0
C      1  0.5002225357930  0.2971287791170  0.6187706843834 1.0
C      1  0.4989994254809  0.3306952519894  0.3434790927993 1.0
C      1  0.4963390568404  0.6003895230728  0.2735116559529 1.0
C      1  0.4957794645994  0.7369939757586  0.5205151289790 1.0
C      1  0.5082585366486  0.4475400138996  0.7317736571129 1.0
C      1  0.5051376177473  0.7078014035949  0.6209626936603 1.0
C      1  0.5007582950712  0.6803060766707  0.3307944700117 1.0
C      1  0.5022604096470  0.4064280480738  0.2809422504537 1.0
C      1  0.5033135772054  0.2542024975221  0.5248762323064 1.0
C      1  0.4597985777412  0.4879117544689  0.4718432937738 1.0
END
