TITL C-10682-722-243 -1.485 3375.00 -253.78309015 0 0 32 (D5h) n - 1
REM
REM Run started: at 2020.12.30 23:40:23 in /gpfs/home/chem/mssmkc/CARBON/AIRSS/Generating-Clusters/Str-Search/Higher-Symm/C4-100
REM VASP from code version vasp.5.4.4.18Apr17-6-g9f103f2a35 (build Oct 11 2019 16:45:47) gamma-only
REM
REM
REM
REM
REM ./C.cell (6bd13a13d554368a30d355f37ece5b26)
REM AIRSS Version 0.9.1 bugfix July 2018 build 013d7b7c2542+ Fri, 06 Jul 2018 19:26:36 +0100
REM compiler GCC version 6.3.0
REM options -cpp -iprefix /gpfs/warwick/csc/orac/software/Core/GCCcore/6.3.0/bin/../lib/gcc/x86_64-pc-linux-gnu/6.3.0/ -mtune=generic -march=x86-64 -g -O0
REM seed 2005135812 526972831 853520187 -686104164 1586877027 -2039233446 1581788315 -679461525 -1137486298 -1490847865 -1167868641 1828393411
REM
REM C.POTCAR (d86ddea03c3ceb6dc662c8ad6801f873)
REM 
CELL 1.54180   15.00000   15.00000   15.00000   90.00000   90.00000   90.00000
LATT -1
SFAC C  
C      1  0.5779338532996  0.5434538522994  0.6196420784753 1.0
C      1  0.6372599300025  0.5434576884482  0.4597384615122 1.0
C      1  0.5034750253323  0.5434746992563  0.3543453121759 1.0
C      1  0.3617583181923  0.5435159984859  0.4485011759110 1.0
C      1  0.4077760217634  0.5434735999638  0.6122309484196 1.0
C      1  0.5778824780108  0.4486031456246  0.6195934904675 1.0
C      1  0.6372103798398  0.4486194715956  0.4597690777360 1.0
C      1  0.5034588171046  0.4486714637131  0.3544163824340 1.0
C      1  0.3618126731566  0.4486419864895  0.4485290837890 1.0
C      1  0.4078033460722  0.4486198844487  0.6121937813700 1.0
C      1  0.4500739718396  0.3173480497294  0.4270934938077 1.0
C      1  0.4149272505563  0.3174256353959  0.5220453163327 1.0
C      1  0.4942447762168  0.3172717806979  0.5851802428499 1.0
C      1  0.5787607392948  0.3171849599122  0.5290779112914 1.0
C      1  0.5512555733426  0.3173101051348  0.4313535495064 1.0
C      1  0.4501698564872  0.6744017351744  0.4272154817022 1.0
C      1  0.4150419878562  0.6743517321830  0.5220373476086 1.0
C      1  0.4943083437962  0.6744597843357  0.5850556572639 1.0
C      1  0.5787085780960  0.6745282919591  0.5290372132443 1.0
C      1  0.5512220976183  0.6744154608294  0.4314440347054 1.0
C      1  0.4218656383454  0.5897327280121  0.3850508165761 1.0
C      1  0.3659744338643  0.5897310363164  0.5356714363712 1.0
C      1  0.4920543870007  0.5897323962661  0.6357050685116 1.0
C      1  0.6259705717057  0.5896155969433  0.5465148550032 1.0
C      1  0.5825494972594  0.5896888125141  0.3916038045709 1.0
C      1  0.4219204087184  0.4023359500327  0.3851468901605 1.0
C      1  0.3661068123194  0.4023511729984  0.5356219931399 1.0
C      1  0.4920225112401  0.4022761548068  0.6356048212340 1.0
C      1  0.6258406316935  0.4023560969456  0.5464709326545 1.0
C      1  0.5824551185412  0.4023499548654  0.3917352985057 1.0
C      1  0.4982236639134  0.3771072894053  0.4991497130025 1.0
C      1  0.4982355075203  0.6143158852170  0.4991627296671 1.0
END
