TITL C-10682-722-158 -3.522 3375.00 -591.51897988 0 0 74 (C1) n - 1
REM
REM Run started: at 2020.12.30 06:45:47 in /gpfs/home/chem/mssmkc/CARBON/AIRSS/Generating-Clusters/Str-Search/Higher-Symm/C4-100
REM VASP from code version vasp.5.4.4.18Apr17-6-g9f103f2a35 (build Oct 11 2019 16:45:47) gamma-only
REM
REM
REM
REM
REM ./C.cell (6bd13a13d554368a30d355f37ece5b26)
REM AIRSS Version 0.9.1 bugfix July 2018 build 013d7b7c2542+ Fri, 06 Jul 2018 19:26:36 +0100
REM compiler GCC version 6.3.0
REM options -cpp -iprefix /gpfs/warwick/csc/orac/software/Core/GCCcore/6.3.0/bin/../lib/gcc/x86_64-pc-linux-gnu/6.3.0/ -mtune=generic -march=x86-64 -g -O0
REM seed 341036482 -1676828213 -1896973190 2116869900 -1503826029 787395743 381767189 877561467 -890660142 -1772205478 1551645544 -916200339
REM
REM C.POTCAR (d86ddea03c3ceb6dc662c8ad6801f873)
REM 
CELL 1.54180   15.00000   15.00000   15.00000   90.00000   90.00000   90.00000
LATT -1
SFAC C  
C      1  0.6681457477863  0.3869146693581  0.6088393896652 1.0
C      1  0.5050379465453  0.3591356040654  0.6551599760408 1.0
C      1  0.5812243971782  0.4935972435823  0.7164412955221 1.0
C      1  0.7467702623516  0.5698685513641  0.3458223915042 1.0
C      1  0.7375276438122  0.4512928345671  0.5768577124732 1.0
C      1  0.5354935944883  0.6707698978803  0.2886842907197 1.0
C      1  0.4787885500056  0.3658444065557  0.5580915350964 1.0
C      1  0.6662407200331  0.3730456554009  0.3774466417538 1.0
C      1  0.3076538983651  0.4243125512755  0.3208267874841 1.0
C      1  0.3645167284696  0.6621113888078  0.6178049643004 1.0
C      1  0.5207765466260  0.7096623385455  0.3757972419677 1.0
C      1  0.3186640885874  0.5828057846496  0.3683721538465 1.0
C      1  0.4293844257642  0.3395524594455  0.4014670246529 1.0
C      1  0.7332004366806  0.5159778064625  0.4286834696197 1.0
C      1  0.3368358765873  0.3699099270264  0.7043570501474 1.0
C      1  0.7411394321394  0.5503973658328  0.5870112201450 1.0
C      1  0.6437910243865  0.4694569413399  0.4009547113678 1.0
C      1  0.4244260547289  0.7272389389964  0.3906691818417 1.0
C      1  0.5563227788655  0.3733750108294  0.4976288394154 1.0
C      1  0.2781476550999  0.5027287340367  0.3241701732261 1.0
C      1  0.3735825600635  0.6706251295554  0.3313637369806 1.0
C      1  0.7643357562036  0.4341467337511  0.4856224315241 1.0
C      1  0.4526669742635  0.6091198496084  0.7554389346138 1.0
C      1  0.3137919817390  0.5350156223945  0.6954352216159 1.0
C      1  0.2609084253212  0.4769156937369  0.5286061819132 1.0
C      1  0.3974723363692  0.3497597519969  0.4936601489317 1.0
C      1  0.6061178150072  0.3015909312502  0.3762313017113 1.0
C      1  0.4683949724634  0.5337549557317  0.4074544052415 1.0
C      1  0.1934322274160  0.3777410150464  0.6075487623790 1.0
C      1  0.5826349541501  0.5454910497717  0.5505155880209 1.0
C      1  0.4171872495803  0.7511749329571  0.4806618292068 1.0
C      1  0.4502817960603  0.3912775385638  0.2500527510794 1.0
C      1  0.4116468140219  0.5615850441564  0.3367884555009 1.0
C      1  0.3283343589191  0.3991038065083  0.5462493012403 1.0
C      1  0.6301982163500  0.2423062127343  0.4627682562400 1.0
C      1  0.3885597148121  0.3732833249134  0.3179577455464 1.0
C      1  0.4928316970071  0.5175774003814  0.7670326898398 1.0
C      1  0.6114457509970  0.6110214579849  0.4790875432111 1.0
C      1  0.4318706465608  0.4502194826746  0.7724413009449 1.0
C      1  0.5965847327327  0.5704386105731  0.1772981338477 1.0
C      1  0.5978487495084  0.0742752536957  0.4981826459483 1.0
C      1  0.5917083492342  0.4024416171928  0.6698951419425 1.0
C      1  0.5838670009071  0.4680229238994  0.4885422197191 1.0
C      1  0.3045903002022  0.6121759322634  0.5603920418112 1.0
C      1  0.6130207776105  0.6283864421218  0.2513824540717 1.0
C      1  0.3376319015990  0.4585934904612  0.7452560552196 1.0
C      1  0.6172145081481  0.1560971316051  0.4796987528212 1.0
C      1  0.4669702591125  0.4709128805579  0.2060431907117 1.0
C      1  0.4210444280724  0.7187561619240  0.5689219196678 1.0
C      1  0.5661736579250  0.5298498627478  0.4106525884029 1.0
C      1  0.5748869078739  0.5660238342678  0.6377042814494 1.0
C      1  0.6512540421693  0.3268238984097  0.5229961240475 1.0
C      1  0.4171909641525  0.4433857319316  0.5425050351892 1.0
C      1  0.4339348070446  0.3694513836074  0.7162505525121 1.0
C      1  0.5217413345442  0.3328380700886  0.4092141819882 1.0
C      1  0.7205170838068  0.5897893776950  0.6690291204180 1.0
C      1  0.3184149304545  0.5578732017828  0.4729282970488 1.0
C      1  0.7204302576996  0.3597620080809  0.4564090616371 1.0
C      1  0.5108174096876  0.6814134908420  0.7593302298323 1.0
C      1  0.5014849607436  0.7333282736466  0.5231012654986 1.0
C      1  0.6337750127184  0.6353671411562  0.6860986692358 1.0
C      1  0.3733193616369  0.6112498669914  0.7006600691815 1.0
C      1  0.7092042573890  0.5817169361118  0.5011854924565 1.0
C      1  0.6641268750215  0.5488251703857  0.7307591707593 1.0
C      1  0.4430587133715  0.6397864263474  0.2627300590268 1.0
C      1  0.2730164953901  0.5388484015099  0.6072184885525 1.0
C      1  0.2823001500927  0.3575072870422  0.6277506480689 1.0
C      1  0.5643814129183  0.6977187539064  0.4617270282364 1.0
C      1  0.6945987253321  0.6139747598224  0.2984417429808 1.0
C      1  0.5459786916329  0.5059453687707  0.1647544203534 1.0
C      1  0.1715536608200  0.4232430279590  0.5370995661962 1.0
C      1  0.4129083823086  0.5164203117296  0.4795717408296 1.0
C      1  0.4239539737516  0.5482481675254  0.2419351031078 1.0
C      1  0.5907145685814  0.7008011596076  0.7443313706977 1.0
END
