TITL C-10108-9725-4 -12.738 3375.00 -2689.16582200 0 0 322 (C2) n - 1
REM
REM Run started: at 2020.12.13 15:00:10 in /gpfs/home/chem/mssmkc/CARBON/AIRSS/Generating-Clusters/Str-Search/Higher-Symm
REM VASP from code version vasp.5.4.4.18Apr17-6-g9f103f2a35 (build Oct 11 2019 16:45:47) gamma-only
REM
REM
REM
REM
REM ./C.cell (e5ae0387ce4d49c7c0135a1433873289)
REM AIRSS Version 0.9.1 bugfix July 2018 build 013d7b7c2542+ Fri, 06 Jul 2018 19:26:36 +0100
REM compiler GCC version 6.3.0
REM options -cpp -iprefix /gpfs/warwick/csc/orac/software/Core/GCCcore/6.3.0/bin/../lib/gcc/x86_64-pc-linux-gnu/6.3.0/ -mtune=generic -march=x86-64 -g -O0
REM seed -964776278 592055318 -582138230 673011168 -1513463873 -609136322 792338433 -304349015 26970642 1381903384 970169832 -1399365436
REM
REM C.POTCAR (d86ddea03c3ceb6dc662c8ad6801f873)
REM 
CELL 1.54180   15.00000   15.00000   15.00000   90.00000   90.00000   90.00000
LATT -1
SFAC C  
C      1  0.9498310092794  0.6830346694857  0.5018273529290 1.0
C      1  0.0501733074678  0.6829930751155  0.4981259683566 1.0
C      1  0.9493582318379  0.3042911953690  0.4963558399262 1.0
C      1  0.0506662301646  0.3042567762197  0.5036712013382 1.0
C      1  0.6590945549348  0.7697550862151  0.4774680941072 1.0
C      1  0.3408368862679  0.7697770334407  0.5224919460978 1.0
C      1  0.6380899770004  0.2474146791890  0.4638805505434 1.0
C      1  0.3619339674301  0.2474019843539  0.5361408448823 1.0
C      1  0.3062133850795  0.4498077518682  0.2623859235739 1.0
C      1  0.6937985696584  0.4498983259195  0.7376332923697 1.0
C      1  0.3046946756939  0.5507611765574  0.2542382890484 1.0
C      1  0.6953179598265  0.5508484769582  0.7457792677977 1.0
C      1  0.7178575248185  0.6842798309984  0.3029189361372 1.0
C      1  0.2821051632625  0.6842673674465  0.6970478139644 1.0
C      1  0.7156770212326  0.3117058192906  0.3051261152289 1.0
C      1  0.2843544707650  0.3116958827983  0.6949033677756 1.0
C      1  0.1437297980976  0.2259971403870  0.6232178511031 1.0
C      1  0.8562729856799  0.2260269877092  0.3768376270949 1.0
C      1  0.1408552930998  0.7626634180592  0.6169359265560 1.0
C      1  0.8591096513992  0.7626737188579  0.3830160167053 1.0
C      1  0.8406260723211  0.3993958347452  0.4236008155537 1.0
C      1  0.1593874244893  0.3993682673301  0.5764363177697 1.0
C      1  0.8377738494559  0.5963890293610  0.4306148940208 1.0
C      1  0.1622161446622  0.5963521386490  0.5693900336015 1.0
C      1  0.4996473762321  0.2641975179969  0.3324519097827 1.0
C      1  0.5003996345714  0.2642036652532  0.6675688719752 1.0
C      1  0.4975473815844  0.7411430723594  0.3338382099431 1.0
C      1  0.5023963812940  0.7411570838068  0.6661139898306 1.0
C      1  0.6581811516488  0.2725882761560  0.6947238510563 1.0
C      1  0.3418596837258  0.2725207111139  0.3053099518583 1.0
C      1  0.6777615709928  0.7405104577375  0.6907368260314 1.0
C      1  0.3222241284366  0.7404049971754  0.3092037069903 1.0
C      1  0.6055813599803  0.8939029180859  0.5713914129743 1.0
C      1  0.3943573717932  0.8939010383047  0.4285638407074 1.0
C      1  0.5797973651905  0.0712502124946  0.5507370963869 1.0
C      1  0.4202101396995  0.0712367219803  0.4492757616635 1.0
C      1  0.2447912428192  0.2488542820468  0.6135680174549 1.0
C      1  0.7552230477292  0.2488911775231  0.3864609138499 1.0
C      1  0.2420328540750  0.7430290992619  0.6178886061846 1.0
C      1  0.7579290688983  0.7430348523072  0.3820795440387 1.0
C      1  0.7583030769610  0.4432618069059  0.8237255517954 1.0
C      1  0.2417041319289  0.4431868636203  0.1762835113922 1.0
C      1  0.7615331330456  0.5480384599459  0.8297200458757 1.0
C      1  0.2384755068698  0.5479539583485  0.1703252292867 1.0
C      1  0.7405753181706  0.4086566293483  0.6560480943807 1.0
C      1  0.2594290564680  0.4085721282568  0.3439721183941 1.0
C      1  0.7327520934601  0.5873566861387  0.6545789067393 1.0
C      1  0.2672496256988  0.5872690919401  0.3454359807697 1.0
C      1  0.8704513384850  0.7831474451758  0.6193671820729 1.0
C      1  0.1295621983862  0.7830830520666  0.3805743280525 1.0
C      1  0.8645261509877  0.2408408545829  0.6083031788080 1.0
C      1  0.1354962306816  0.2407601538279  0.3917549761442 1.0
C      1  0.3641908449520  0.4510257874455  0.0524860612023 1.0
C      1  0.6358518899809  0.4510272288035  0.9475365737391 1.0
C      1  0.3581701089133  0.5467521892261  0.0460600593837 1.0
C      1  0.6418619132450  0.5467585114134  0.9539670994893 1.0
C      1  0.7158941544055  0.7503085396952  0.2166658496910 1.0
C      1  0.2840762481422  0.7503054706044  0.7832842861683 1.0
C      1  0.7086838725339  0.2449426706053  0.2172279706343 1.0
C      1  0.2913544598296  0.2449571632229  0.7828111062302 1.0
C      1  0.8940220072851  0.4492435235550  0.4931627685303 1.0
C      1  0.1059913339037  0.4492058908933  0.5068695967543 1.0
C      1  0.8723922930695  0.5414509708986  0.5129309611494 1.0
C      1  0.1275729053252  0.5414105818916  0.4870946576941 1.0
C      1  0.4530467061977  0.1589522481114  0.4324441356241 1.0
C      1  0.5469466191312  0.1589642130758  0.5675532620734 1.0
C      1  0.4811099610197  0.8473663559010  0.4556527527545 1.0
C      1  0.5188394570967  0.8473613127147  0.5443118498181 1.0
C      1  0.3747469790251  0.4496970302505  0.8894846763655 1.0
C      1  0.6252700845240  0.4496743150992  0.1105139602481 1.0
C      1  0.3737764489788  0.5526770828941  0.8875559356069 1.0
C      1  0.6262189653425  0.5526555610324  0.1124395533400 1.0
C      1  0.5214380762651  0.0771560929411  0.7043850309103 1.0
C      1  0.4785822969190  0.0771329875244  0.2956379268197 1.0
C      1  0.4973836619835  0.9079222161369  0.6877221652002 1.0
C      1  0.5025782663749  0.9079076562655  0.3122750609855 1.0
C      1  0.1248258867729  0.5888460503251  0.8011718734679 1.0
C      1  0.8751388147350  0.5889287305654  0.1987629092085 1.0
C      1  0.1268739525713  0.4000338917541  0.8028825504633 1.0
C      1  0.8731739925139  0.4000673874802  0.1971522016407 1.0
C      1  0.2665455572047  0.8350736022988  0.3128552401902 1.0
C      1  0.7334892835094  0.8352250833228  0.6870767210640 1.0
C      1  0.3141093076619  0.1829950420173  0.2842730719876 1.0
C      1  0.6859294679852  0.1830593521886  0.7157688523612 1.0
C      1  0.1099515424464  0.5522049425855  0.2760499242544 1.0
C      1  0.8900308818615  0.5523235587591  0.7239892092957 1.0
C      1  0.1073618404593  0.4541998678464  0.2803280281140 1.0
C      1  0.8926840107145  0.4543118066783  0.7197056157110 1.0
C      1  0.0917582277726  0.2176194154740  0.4742206210579 1.0
C      1  0.9082471140239  0.2176855515241  0.5258306705735 1.0
C      1  0.0898870049499  0.7662663027292  0.4661963772311 1.0
C      1  0.9101299626463  0.7663183555145  0.5337422829127 1.0
C      1  0.2676416383271  0.8946200061370  0.5343034142572 1.0
C      1  0.7323098294421  0.8946259426487  0.4656508580868 1.0
C      1  0.2819939924668  0.0955480080779  0.5453775535632 1.0
C      1  0.7180297717669  0.0955909113213  0.4546896564831 1.0
C      1  0.8590379141805  0.7036447695004  0.6741302386005 1.0
C      1  0.1409930297592  0.7035378002411  0.3258823359556 1.0
C      1  0.9153518811496  0.2957050444275  0.6823201507499 1.0
C      1  0.0846810252309  0.2956314093699  0.3177236965792 1.0
C      1  0.2594666448973  0.4510508884029  0.4343347549520 1.0
C      1  0.7405198061868  0.4510993317945  0.5656727722812 1.0
C      1  0.2197717565636  0.5477577882303  0.4354597450295 1.0
C      1  0.7802021902437  0.5478045802992  0.5645453504481 1.0
C      1  0.5563995954940  0.2142345984289  0.1815333262018 1.0
C      1  0.4436558284278  0.2142478726855  0.8184983107290 1.0
C      1  0.5635332874836  0.7877478012902  0.1850677334481 1.0
C      1  0.4364324812802  0.7877687344392  0.8148718381831 1.0
C      1  0.4088803270310  0.2342639117014  0.4527909130941 1.0
C      1  0.5911514118057  0.2342602243139  0.5472327230519 1.0
C      1  0.3965860761318  0.7946742721735  0.4478452830305 1.0
C      1  0.6033499738886  0.7946645350152  0.5521013065517 1.0
C      1  0.1352115820926  0.3070177962870  0.2304911549393 1.0
C      1  0.8648103501582  0.3071169366689  0.7695417069884 1.0
C      1  0.1769412581583  0.6910334020962  0.2345377784320 1.0
C      1  0.8230203250561  0.6911414965486  0.7654571014042 1.0
C      1  0.8067718162455  0.8729744395233  0.5139702279683 1.0
C      1  0.1931871106084  0.8729720458913  0.4859596770826 1.0
C      1  0.8056608812316  0.0988473854477  0.4741640883522 1.0
C      1  0.1943512466707  0.0987850208722  0.5259388841752 1.0
C      1  0.1589156662633  0.5956247092714  0.2095960411206 1.0
C      1  0.8410780002303  0.5957441657616  0.7904563474804 1.0
C      1  0.1525419668251  0.4016024927910  0.2152066624352 1.0
C      1  0.8474674886862  0.4017128974605  0.7847873580268 1.0
C      1  0.6098926562266  0.1416899453291  0.3271493578041 1.0
C      1  0.3901445830680  0.1417048931226  0.6728868787153 1.0
C      1  0.6282387085500  0.8560291663110  0.3289521943128 1.0
C      1  0.3717192786443  0.8560735492488  0.6710200595915 1.0
C      1  0.6903714461626  0.5759123337654  0.4209692138603 1.0
C      1  0.3096079431967  0.5758816859938  0.5790272656279 1.0
C      1  0.6894457367714  0.4220209704602  0.4160690682819 1.0
C      1  0.3105662006779  0.4219911432191  0.5839489836101 1.0
C      1  0.6711179721705  0.1131088315320  0.7679046423010 1.0
C      1  0.3289229370202  0.1130795933918  0.2320815890436 1.0
C      1  0.7083137210531  0.9065150921024  0.7522458881560 1.0
C      1  0.2917266267215  0.9063669238017  0.2476986443533 1.0
C      1  0.2422401363628  0.6784720330808  0.3184032670580 1.0
C      1  0.7577620080673  0.6785820019770  0.6815866017257 1.0
C      1  0.2654855941805  0.3191759847146  0.3474718099336 1.0
C      1  0.7345547819810  0.3192594980154  0.6525798359657 1.0
C      1  0.5122094706949  0.2760615460402  0.7688206956965 1.0
C      1  0.4878390978936  0.2760403914410  0.2311973031308 1.0
C      1  0.5147064019675  0.7332890028242  0.7675091243618 1.0
C      1  0.4852539206291  0.7332724237126  0.2324389009231 1.0
C      1  0.7097615380338  0.3934577275237  0.1266177760149 1.0
C      1  0.2902572180732  0.3934802095337  0.8734066123717 1.0
C      1  0.7121770997831  0.6049862529091  0.1277827955827 1.0
C      1  0.2878099597886  0.6049951225085  0.8721834612374 1.0
C      1  0.9236646651096  0.6234779052266  0.6562697027488 1.0
C      1  0.0762988995300  0.6233802292651  0.3437385002640 1.0
C      1  0.9372667833844  0.3911947599652  0.6498045119012 1.0
C      1  0.0627810666632  0.3911259307491  0.3502194643736 1.0
C      1  0.5870872682986  0.6326717118802  0.5926335908793 1.0
C      1  0.4128869416384  0.6326480314615  0.4073345629842 1.0
C      1  0.5843368243887  0.4049573416290  0.6290455663454 1.0
C      1  0.4156915496385  0.4049246700827  0.3709719973400 1.0
C      1  0.8077880161199  0.7888954076426  0.2253236314828 1.0
C      1  0.1921362095219  0.7887988810926  0.7746287217678 1.0
C      1  0.7976380132554  0.2015801084790  0.2225221755248 1.0
C      1  0.2023932280992  0.2016154402397  0.7775198715488 1.0
C      1  0.6375239610012  0.4438232100267  0.2775434820883 1.0
C      1  0.3625125168945  0.4438238155242  0.7224737345862 1.0
C      1  0.6392002494471  0.5531925178012  0.2775501952485 1.0
C      1  0.3608000660507  0.5531933349195  0.7224492701904 1.0
C      1  0.2463036900895  0.6184567823387  0.5122531475107 1.0
C      1  0.7536755940769  0.6185015733247  0.4877326860689 1.0
C      1  0.2481182480120  0.3838804566625  0.5161203821010 1.0
C      1  0.7518867976295  0.3839159125073  0.4839031257520 1.0
C      1  0.4226604893818  0.0462840560594  0.7007784824125 1.0
C      1  0.5773492179155  0.0462515451516  0.2993022696874 1.0
C      1  0.4156054659278  0.9527298662055  0.6935214839124 1.0
C      1  0.5843663656463  0.9526948502196  0.3065133457107 1.0
C      1  0.3125437341182  0.6944454048015  0.8646519909149 1.0
C      1  0.6874349805806  0.6944345676028  0.1352924262398 1.0
C      1  0.3166912126334  0.3044354627461  0.8643012578942 1.0
C      1  0.6833546326478  0.3044094720375  0.1357171742468 1.0
C      1  0.9307053558778  0.6038596185314  0.2584586087051 1.0
C      1  0.0692606586326  0.6037354650498  0.7414642710075 1.0
C      1  0.9324535662380  0.3681188974325  0.2439749220294 1.0
C      1  0.0675712882943  0.3681517671652  0.7560148634969 1.0
C      1  0.0742107067840  0.3888596174616  0.4493687134212 1.0
C      1  0.9258442633051  0.3889130851729  0.5506483250072 1.0
C      1  0.0704554335228  0.6035432246444  0.4394356425868 1.0
C      1  0.9294728038363  0.6036328462671  0.5605687367700 1.0
C      1  0.3075582108028  0.4022385567625  0.1081315032309 1.0
C      1  0.6924773694135  0.4022597242549  0.8918755853343 1.0
C      1  0.2849664052481  0.5882051117725  0.0871207004566 1.0
C      1  0.7150157316015  0.5882739542611  0.9129018116138 1.0
C      1  0.4261882936844  0.3054519936088  0.6014806279044 1.0
C      1  0.5738451311907  0.3054612053840  0.3985487688080 1.0
C      1  0.4459104941896  0.6681559170001  0.6269347959936 1.0
C      1  0.5540441116828  0.6681442459080  0.3729907750119 1.0
C      1  0.3026647790422  0.8280669553244  0.6008370999847 1.0
C      1  0.6972834873736  0.8280502741213  0.3991439715539 1.0
C      1  0.3211518553028  0.1734599086688  0.5977681399911 1.0
C      1  0.6788823585154  0.1734840338623  0.4022644124372 1.0
C      1  0.5894222516056  0.7204125194907  0.1099290356828 1.0
C      1  0.4105502307331  0.7204539296601  0.8900455295246 1.0
C      1  0.5862279517609  0.2815666376178  0.1094826006466 1.0
C      1  0.4138148262715  0.2815894558481  0.8905291555354 1.0
C      1  0.5238167023254  0.4623097056828  0.7780239986228 1.0
C      1  0.4762114044843  0.4622473456296  0.2219909371091 1.0
C      1  0.5260490978062  0.5516740120621  0.7845000696229 1.0
C      1  0.4739541542081  0.5516089425711  0.2154932706096 1.0
C      1  0.5720730499313  0.5824755831399  0.2011234962589 1.0
C      1  0.4279182131203  0.5825053025327  0.7988726435375 1.0
C      1  0.5704336279579  0.4235728962231  0.2009204296120 1.0
C      1  0.4296143399105  0.4235983275913  0.7990957761934 1.0
C      1  0.7401883105350  0.4111678850471  0.2730943182269 1.0
C      1  0.2598491601530  0.4111578792165  0.7269313286486 1.0
C      1  0.7415776387986  0.5845879865019  0.2741836553975 1.0
C      1  0.2584139793544  0.5845750614814  0.7258043675499 1.0
C      1  0.2263704949310  0.4490526202987  0.6396958715361 1.0
C      1  0.7736483201869  0.4490786902568  0.3603270811862 1.0
C      1  0.2262383980825  0.5476890827502  0.6364608579661 1.0
C      1  0.7737624416993  0.5477183438793  0.3635398610696 1.0
C      1  0.5313662452206  0.8307412590877  0.3626350520213 1.0
C      1  0.4685909068751  0.8307759013803  0.6373348226694 1.0
C      1  0.5066128157395  0.1651462328191  0.3472729250841 1.0
C      1  0.4934045858778  0.1651560367154  0.6527451618116 1.0
C      1  0.6376100663256  0.9632444638916  0.7416306637635 1.0
C      1  0.3623678878442  0.9631907482658  0.2583340413596 1.0
C      1  0.6024408333220  0.0480802815073  0.7691830739431 1.0
C      1  0.3975677549457  0.0480327745050  0.2308034517502 1.0
C      1  0.5591948042324  0.0287785122534  0.6266111890242 1.0
C      1  0.4407774943125  0.0287747046494  0.3733910166025 1.0
C      1  0.5836393946465  0.9412188251888  0.6577399524719 1.0
C      1  0.4163246719066  0.9412144521893  0.3422429990069 1.0
C      1  0.8044618715505  0.8477560660390  0.6126022587458 1.0
C      1  0.1955653967011  0.8476730323969  0.3873276406101 1.0
C      1  0.7779306533172  0.2649566862697  0.5836830943401 1.0
C      1  0.2221010994814  0.2648619959037  0.4163612080464 1.0
C      1  0.5394343732306  0.5164156349301  0.4264191708111 1.0
C      1  0.4605513743508  0.5164090226774  0.5735698008661 1.0
C      1  0.4988414422007  0.4389464226676  0.4096793859148 1.0
C      1  0.5011771813910  0.4389586384769  0.5903268012670 1.0
C      1  0.4766263893717  0.3618773128881  0.5390293114008 1.0
C      1  0.5234031616356  0.3618834186803  0.4610000780115 1.0
C      1  0.4959006147362  0.6051163648093  0.5870653040570 1.0
C      1  0.5040706423550  0.6051058537333  0.4128680106873 1.0
C      1  0.3610138515120  0.3651282741154  0.6491454043432 1.0
C      1  0.6390148924379  0.3651432191106  0.3508770869666 1.0
C      1  0.3600537606697  0.6310697662220  0.6513369042077 1.0
C      1  0.6399263696735  0.6310853464269  0.3486382660017 1.0
C      1  0.3477051355677  0.0347864348159  0.5031001508006 1.0
C      1  0.6522823760885  0.0347982405641  0.4968905780631 1.0
C      1  0.3387711995838  0.9453857096576  0.4924570203490 1.0
C      1  0.6611707353151  0.9453907299454  0.5074954688199 1.0
C      1  0.1789632696376  0.2383561908582  0.1834816051047 1.0
C      1  0.8211188901227  0.2384295829481  0.8165818277776 1.0
C      1  0.1987820058365  0.7698594943601  0.1753531428282 1.0
C      1  0.8011395651027  0.7699709870815  0.8246159488170 1.0
C      1  0.4004090615662  0.4101998357904  0.2624928664041 1.0
C      1  0.5996172573723  0.4102635870469  0.7375225629037 1.0
C      1  0.3906500649477  0.6053231551906  0.2302735031408 1.0
C      1  0.6093547568583  0.6053982302983  0.7697144897178 1.0
C      1  0.7440757372638  0.1752517352383  0.7959745008030 1.0
C      1  0.2559812867035  0.1752176786348  0.2040486259037 1.0
C      1  0.7701745481729  0.8445938076933  0.7798831163525 1.0
C      1  0.2298257999679  0.8444740827789  0.2200586092296 1.0
C      1  0.3733533262531  0.1860887183555  0.7641568881711 1.0
C      1  0.6266963527240  0.1860551194506  0.2358684641940 1.0
C      1  0.3622277845565  0.8111915405913  0.7619723299488 1.0
C      1  0.6377243431533  0.8111577303717  0.2379911401293 1.0
C      1  0.6099712422125  0.3125792863431  0.7758935732170 1.0
C      1  0.3900582027715  0.3125283773237  0.2241347038821 1.0
C      1  0.6127191875226  0.6991608665659  0.7683637952849 1.0
C      1  0.3872717797655  0.6990854505106  0.2315813707453 1.0
C      1  0.9083384704344  0.3166343512417  0.3992870891756 1.0
C      1  0.0916730328821  0.3166141491706  0.6007419434857 1.0
C      1  0.9084984961789  0.6694194296963  0.4066748165003 1.0
C      1  0.0914912089755  0.6693857105081  0.5932812181017 1.0
C      1  0.7356815834703  0.2504977911930  0.8573283781131 1.0
C      1  0.2643559191469  0.2504629203049  0.1426535043285 1.0
C      1  0.7807354197291  0.7419412810590  0.9103850955734 1.0
C      1  0.2191907336598  0.7418448579216  0.0895697916921 1.0
C      1  0.5844800223276  0.4120776232377  0.0235301431018 1.0
C      1  0.4155300889115  0.4120870581884  0.9764747751030 1.0
C      1  0.5903104026389  0.5897241577091  0.0258265803091 1.0
C      1  0.4096826915397  0.5897380569541  0.9741709871206 1.0
C      1  0.7495361024995  0.6696443913210  0.9370961454233 1.0
C      1  0.2503796739767  0.6695276374129  0.0629012071815 1.0
C      1  0.6701696435085  0.3132239674794  0.8592214574582 1.0
C      1  0.3298627658646  0.3132013380006  0.1407911993339 1.0
C      1  0.2657396731214  0.2851435280610  0.5140920708973 1.0
C      1  0.7342659061432  0.2851854819406  0.4859470894530 1.0
C      1  0.2740414592468  0.7095138210675  0.5283079229606 1.0
C      1  0.7259155720582  0.7095302444686  0.4716620623816 1.0
C      1  0.6480724039168  0.5702809503395  0.6052698029313 1.0
C      1  0.3519227293199  0.5702270184820  0.3947392056033 1.0
C      1  0.6447186934764  0.4795417845005  0.5635338795309 1.0
C      1  0.3552758912175  0.4794885978498  0.4364709505172 1.0
C      1  0.0264047450484  0.6354271079985  0.6654732168315 1.0
C      1  0.9735770432955  0.6354910792923  0.3344487497764 1.0
C      1  0.0204831215294  0.3376575235248  0.6769364572436 1.0
C      1  0.9795236396024  0.3376443613094  0.3230904218526 1.0
C      1  0.8686535704794  0.1663351812861  0.4589703397295 1.0
C      1  0.1313485602207  0.1662739078524  0.5411023333674 1.0
C      1  0.8709221721264  0.8165980007858  0.4686607298877 1.0
C      1  0.1290475736527  0.8165837523286  0.5312752203276 1.0
C      1  0.4579224424230  0.6729673732322  0.9734449553626 1.0
C      1  0.5420422788857  0.6729460078142  0.0265606170735 1.0
C      1  0.4585410722012  0.3266794689389  0.9729626031482 1.0
C      1  0.5414609904111  0.3266748099245  0.0270497946164 1.0
C      1  0.5978524817713  0.7272308895267  0.6243158954880 1.0
C      1  0.4021023300547  0.7272063347389  0.3756451590452 1.0
C      1  0.5866660764320  0.2969972113708  0.6241645976217 1.0
C      1  0.4133854040884  0.2969900559648  0.3758591350556 1.0
C      1  0.7841295299526  0.5570571077694  0.1857536642642 1.0
C      1  0.2158573326179  0.5570342970676  0.8142241114282 1.0
C      1  0.7829508127982  0.4372696967314  0.1847234298143 1.0
C      1  0.2170671514285  0.4372687787310  0.8152900610906 1.0
C      1  0.4504367444370  0.6743602153735  0.8132380530751 1.0
C      1  0.5495352620288  0.6743240770465  0.1867458536436 1.0
C      1  0.4518925967102  0.3334490875605  0.8161851332992 1.0
C      1  0.5481314751080  0.3334367079848  0.1838078648573 1.0
C      1  0.8603594575750  0.7949311606225  0.2886086484995 1.0
C      1  0.1395670813431  0.7949334740972  0.7113501271984 1.0
C      1  0.8516640816993  0.1941138918092  0.2839079473145 1.0
C      1  0.1483343011409  0.1941252297232  0.7161692132246 1.0
C      1  0.6340218467318  0.4986693083872  0.4578195908861 1.0
C      1  0.3659628412236  0.4986383140800  0.5421887785122 1.0
END
