TITL C-10682-722-96 -3.162 3375.00 -557.77891387 0 0 69 (C1) n - 1
REM
REM Run started: at 2020.12.29 19:34:11 in /gpfs/home/chem/mssmkc/CARBON/AIRSS/Generating-Clusters/Str-Search/Higher-Symm/C4-100
REM VASP from code version vasp.5.4.4.18Apr17-6-g9f103f2a35 (build Oct 11 2019 16:45:47) gamma-only
REM
REM
REM
REM
REM ./C.cell (6bd13a13d554368a30d355f37ece5b26)
REM AIRSS Version 0.9.1 bugfix July 2018 build 013d7b7c2542+ Fri, 06 Jul 2018 19:26:36 +0100
REM compiler GCC version 6.3.0
REM options -cpp -iprefix /gpfs/warwick/csc/orac/software/Core/GCCcore/6.3.0/bin/../lib/gcc/x86_64-pc-linux-gnu/6.3.0/ -mtune=generic -march=x86-64 -g -O0
REM seed 878789347 -897860672 -380157588 -1516990906 -196980770 -1590470760 -1230260005 2032563688 -1398574324 1460463002 1635302567 108128985
REM
REM C.POTCAR (d86ddea03c3ceb6dc662c8ad6801f873)
REM 
CELL 1.54180   15.00000   15.00000   15.00000   90.00000   90.00000   90.00000
LATT -1
SFAC C  
C      1  0.5448385041396  0.4182120356863  0.5203338254331 1.0
C      1  0.5483765629956  0.5796647570486  0.5203406183944 1.0
C      1  0.4067376144433  0.5020575326597  0.5201731285007 1.0
C      1  0.4551787880188  0.4181968789739  0.4717372466657 1.0
C      1  0.4516497356220  0.5797200694005  0.4717765374776 1.0
C      1  0.5933364064646  0.5020293563954  0.4719167504814 1.0
C      1  0.7170162980229  0.5084697944995  0.6378550162748 1.0
C      1  0.3837882181762  0.6839713034775  0.6375970478373 1.0
C      1  0.3985101703635  0.3076103503831  0.6375366570911 1.0
C      1  0.2830072648681  0.5085430059052  0.3545334672747 1.0
C      1  0.6161708112810  0.6839445033468  0.3548671105586 1.0
C      1  0.6014359231559  0.3076321121679  0.3547443840410 1.0
C      1  0.4033151565417  0.4533986625251  0.2681257309909 1.0
C      1  0.5891271726123  0.4392441447583  0.2682128999013 1.0
C      1  0.5085245550514  0.6074003061146  0.2681841805502 1.0
C      1  0.5965918292879  0.4533244247118  0.7239176900864 1.0
C      1  0.4108826414337  0.4392485772450  0.7237880026867 1.0
C      1  0.4914891643541  0.6072680742522  0.7239256324239 1.0
C      1  0.5751016351398  0.7162958881851  0.4395342745736 1.0
C      1  0.2753366207819  0.4567857672962  0.4392165891323 1.0
C      1  0.6498711191236  0.3268820285466  0.4395262192403 1.0
C      1  0.4248742778757  0.7162879348604  0.5528291897864 1.0
C      1  0.7246804919242  0.4567453736211  0.5530476797583 1.0
C      1  0.3501290992185  0.3269027788717  0.5526501083232 1.0
C      1  0.6742789736674  0.4305971206085  0.6807561667757 1.0
C      1  0.4724759984566  0.6859216796747  0.6806839891017 1.0
C      1  0.3523463540939  0.3834449005067  0.6804935438297 1.0
C      1  0.3256919785721  0.4307256067446  0.3115108930292 1.0
C      1  0.5275472516953  0.6859539411620  0.3117099152175 1.0
C      1  0.6475619813240  0.3834505259414  0.3117394642805 1.0
C      1  0.3348254074104  0.6057484791510  0.6498485734976 1.0
C      1  0.4906604986250  0.3043475338066  0.6499270797758 1.0
C      1  0.6736940804783  0.5899448255398  0.6501329837035 1.0
C      1  0.6652224372822  0.6057805341112  0.3425916690646 1.0
C      1  0.5092774506618  0.3043267447543  0.3423589966483 1.0
C      1  0.3263261941811  0.5900232210528  0.3423009155831 1.0
C      1  0.4624220209818  0.5415457423858  0.3821380612167 1.0
C      1  0.4832477048121  0.4465366054317  0.3821481309244 1.0
C      1  0.5550721780692  0.5121206777740  0.3822110013134 1.0
C      1  0.5375645249725  0.5415129785977  0.6099777078338 1.0
C      1  0.5167734493708  0.4465339655722  0.6099430749643 1.0
C      1  0.4449577858683  0.5120949334875  0.6099031772651 1.0
C      1  0.4613629580701  0.2733589769291  0.4236113986590 1.0
C      1  0.7158530635321  0.5797364317827  0.4239558740837 1.0
C      1  0.3232756290854  0.6467729868793  0.4236662147098 1.0
C      1  0.5385749572208  0.2734293485536  0.5685754906773 1.0
C      1  0.2842270689398  0.5797179536516  0.5683978881272 1.0
C      1  0.6767134173786  0.6467096257776  0.5687241685749 1.0
C      1  0.5112673629118  0.3996843426716  0.6980998860622 1.0
C      1  0.5807356498713  0.5601401501785  0.6981815649280 1.0
C      1  0.4070676212413  0.5401214636460  0.6981003874179 1.0
C      1  0.4886812482491  0.3997020151627  0.2940445301946 1.0
C      1  0.4192598114719  0.5602177524365  0.2939923979123 1.0
C      1  0.5929794938391  0.5401502315517  0.2940995666578 1.0
C      1  0.3049548787205  0.4844246016203  0.5318785639564 1.0
C      1  0.6109304909898  0.3388523491915  0.5321075760084 1.0
C      1  0.5839565005561  0.6765990807051  0.5321183609908 1.0
C      1  0.6950422815028  0.4844182439121  0.4603597876004 1.0
C      1  0.3891378299258  0.3389373992636  0.4600613539539 1.0
C      1  0.4160355674533  0.6766021183717  0.4602002680339 1.0
C      1  0.3073495159742  0.4008752041740  0.5913354889243 1.0
C      1  0.6821198377704  0.3826696715795  0.5917043366507 1.0
C      1  0.5103200424944  0.7163922093622  0.5915975418006 1.0
C      1  0.6927232328484  0.4009058572403  0.4008752106722 1.0
C      1  0.3179157745797  0.3826563767464  0.4005222803637 1.0
C      1  0.4895842067796  0.7164801095973  0.4007624140816 1.0
C      1  0.4999200329194  0.2332001955368  0.4961537147523 1.0
C      1  0.2689043069504  0.6334831628757  0.4960341855552 1.0
C      1  0.7311908873049  0.6333159633676  0.4965026171424 1.0
END
