TITL C-10712-1074-4 -8.973 3375.00 -1440.92949092 0 0 177 (C1) n - 1
REM
REM Run started: at 2020.12.27 04:21:16 in /gpfs/home/chem/mssmkc/CARBON/AIRSS/Generating-Clusters/Str-Search/Higher-Symm/C100-200
REM VASP from code version vasp.5.4.4.18Apr17-6-g9f103f2a35 (build Oct 11 2019 16:45:47) gamma-only
REM
REM
REM
REM
REM ./C.cell (533062f00bc710175b3da973d35f2034)
REM AIRSS Version 0.9.1 bugfix July 2018 build 013d7b7c2542+ Fri, 06 Jul 2018 19:26:36 +0100
REM compiler GCC version 6.3.0
REM options -cpp -iprefix /gpfs/warwick/csc/orac/software/Core/GCCcore/6.3.0/bin/../lib/gcc/x86_64-pc-linux-gnu/6.3.0/ -mtune=generic -march=x86-64 -g -O0
REM seed 1486852137 -1015362116 480691592 470471060 823310915 1036674993 -1565707056 -1084318530 -1772861831 -611318338 516412143 -1159502758
REM
REM C.POTCAR (d86ddea03c3ceb6dc662c8ad6801f873)
REM 
CELL 1.54180   15.00000   15.00000   15.00000   90.00000   90.00000   90.00000
LATT -1
SFAC C  
C      1  0.7130658020492  0.3872994120078  0.8433985093442 1.0
C      1  0.7256059511687  0.5489371051810  0.1622495640697 1.0
C      1  0.3919220771909  0.4159051570356  0.8721557530886 1.0
C      1  0.4409733480920  0.5967478216735  0.1258296977157 1.0
C      1  0.6741665600245  0.4953937428335  0.6454646060100 1.0
C      1  0.6686338609604  0.4327274106228  0.3785983648319 1.0
C      1  0.3319557083225  0.5266047096080  0.6449102338229 1.0
C      1  0.3289269259285  0.4278955303103  0.3556548331531 1.0
C      1  0.5472251069599  0.7902475971528  0.5964554899953 1.0
C      1  0.5288078313459  0.2465482400547  0.3955700564020 1.0
C      1  0.4566003312025  0.7713630045524  0.5968593743335 1.0
C      1  0.4380346263943  0.2527387479751  0.3941327868393 1.0
C      1  0.4681806092979  0.5962784575498  0.5917887563984 1.0
C      1  0.4420116879343  0.5016281220072  0.4536593598304 1.0
C      1  0.5616209160852  0.6045374801105  0.5986002480285 1.0
C      1  0.5409580285526  0.4786279791461  0.4515927638320 1.0
C      1  0.1283476650266  0.5263391036617  0.4399189643709 1.0
C      1  0.1016491817180  0.4720718817141  0.4958368263072 1.0
C      1  0.8417698411155  0.5122056259464  0.5065330428192 1.0
C      1  0.8463096339716  0.4442936404495  0.5569246685555 1.0
C      1  0.6837626207662  0.5269987386268  0.4112389732696 1.0
C      1  0.6630643602722  0.4435643149198  0.5665991976122 1.0
C      1  0.2763350431710  0.5585203006743  0.4927817677728 1.0
C      1  0.3111903586253  0.4764987605072  0.5585712806913 1.0
C      1  0.4804596389051  0.8314296179770  0.2925737184192 1.0
C      1  0.4147296996729  0.1885156350689  0.7014174899091 1.0
C      1  0.5655941257795  0.8394362403339  0.2969076226155 1.0
C      1  0.4961437913881  0.1726650455476  0.7021351716337 1.0
C      1  0.5704837416180  0.6902085786374  0.0723127041921 1.0
C      1  0.5003926979470  0.2925430460112  0.9061957642968 1.0
C      1  0.6594627156723  0.6838823725050  0.0844663277812 1.0
C      1  0.5901100996692  0.2861761369412  0.8980246667743 1.0
C      1  0.4207765732783  0.7631079048691  0.5006519846241 1.0
C      1  0.3975538550722  0.2635086679453  0.4901486669393 1.0
C      1  0.5907046950483  0.7932150444178  0.5014125880035 1.0
C      1  0.5647410409835  0.2551781063673  0.4902503255683 1.0
C      1  0.5781341744307  0.6395875649701  0.2944498134301 1.0
C      1  0.5274986169030  0.3565080556102  0.7100653369179 1.0
C      1  0.4813725390961  0.6372426205500  0.2908448857309 1.0
C      1  0.4335585882021  0.3724025701469  0.7096973676883 1.0
C      1  0.3985708871928  0.2711796533565  0.1505828236858 1.0
C      1  0.4327553754760  0.6945994169166  0.8022019835430 1.0
C      1  0.5556696118839  0.2804660386675  0.1937207839790 1.0
C      1  0.5956600762974  0.6806060902667  0.8178508122319 1.0
C      1  0.3087509474739  0.7733885857665  0.3237416040047 1.0
C      1  0.2667142440269  0.2258924197039  0.6228077987997 1.0
C      1  0.7373941860446  0.7767793113450  0.3390338070663 1.0
C      1  0.6724784476246  0.1903877631494  0.6427693357690 1.0
C      1  0.6621451043748  0.2754041420530  0.4893411746106 1.0
C      1  0.6896863750181  0.7779867413956  0.5098751375634 1.0
C      1  0.3026520088694  0.2908985990444  0.4755365204329 1.0
C      1  0.3262558670862  0.7307124858247  0.4959912145695 1.0
C      1  0.8052301879828  0.2775860624584  0.4433839597462 1.0
C      1  0.7766570801775  0.7056075282950  0.6002739876169 1.0
C      1  0.1591378796939  0.2871275470514  0.4269393097451 1.0
C      1  0.1832734206465  0.7064789354216  0.5406161693166 1.0
C      1  0.3941478342440  0.5126538540642  0.1048145708806 1.0
C      1  0.3941006446288  0.4973287348794  0.9337280749991 1.0
C      1  0.6110875290522  0.4648964248613  0.0526718464093 1.0
C      1  0.6132369685883  0.4950162871665  0.9582295360586 1.0
C      1  0.8026388741258  0.3842096862732  0.3124352759814 1.0
C      1  0.7972952343081  0.5748164963445  0.7080112151447 1.0
C      1  0.1796194171071  0.3825693580780  0.2954816386725 1.0
C      1  0.1417800055061  0.5846097947518  0.6539468253554 1.0
C      1  0.4102359649324  0.1824994692540  0.1529288248900 1.0
C      1  0.5060019168241  0.7344637766192  0.8138400251207 1.0
C      1  0.4898117719398  0.2305300615946  0.1718993627514 1.0
C      1  0.5960118388341  0.7677054554614  0.8275829686431 1.0
C      1  0.1937868835042  0.6842379424239  0.4466246170215 1.0
C      1  0.1579576708293  0.3223813185053  0.5156357122020 1.0
C      1  0.7939421919646  0.6763582899670  0.4975950547564 1.0
C      1  0.8013154833205  0.2873090884500  0.5381136342137 1.0
C      1  0.4555599572273  0.5313138324737  0.2880676655808 1.0
C      1  0.4499676845272  0.5403311072076  0.7504232292212 1.0
C      1  0.5476808174654  0.4935466724160  0.2876796818018 1.0
C      1  0.5529285407291  0.5310064412143  0.7477631942882 1.0
C      1  0.4317918243520  0.9190819461432  0.6253741138945 1.0
C      1  0.4350180784409  0.1020407469352  0.3834399209983 1.0
C      1  0.5283652620767  0.9388911565065  0.6268590102349 1.0
C      1  0.5297163618964  0.0915494304575  0.3867670382218 1.0
C      1  0.7184416696016  0.5355628618641  0.2662890441210 1.0
C      1  0.7533646009415  0.4048348063731  0.7581797591563 1.0
C      1  0.2684831498534  0.5299029525319  0.2509136458109 1.0
C      1  0.1840784876385  0.5061400298880  0.6854386806849 1.0
C      1  0.4264416964818  0.3306566992993  0.9024396337414 1.0
C      1  0.4941699303992  0.6583151399932  0.0790674611833 1.0
C      1  0.6657427993453  0.3114361747810  0.8739892007924 1.0
C      1  0.7126460153663  0.6303003969518  0.1196958250326 1.0
C      1  0.3416170663996  0.2395441842423  0.6693914844209 1.0
C      1  0.4066500221355  0.7871032958155  0.3203719090367 1.0
C      1  0.5688227069780  0.1935056166325  0.6385119983937 1.0
C      1  0.6405249183792  0.7946362760604  0.3228242699110 1.0
C      1  0.4379220081972  0.9323407522332  0.5307559529558 1.0
C      1  0.4327535711387  0.0960198359043  0.4790924537939 1.0
C      1  0.5316184469198  0.9701100319991  0.5259619641741 1.0
C      1  0.5299715533820  0.0691489828683  0.4903370842287 1.0
C      1  0.8176637911371  0.3636203700995  0.5975330698305 1.0
C      1  0.8170259907557  0.5868712185047  0.4566495096514 1.0
C      1  0.1275361232289  0.4030175756813  0.5551945565771 1.0
C      1  0.2039219975583  0.5849132902566  0.4182903085680 1.0
C      1  0.1429327698342  0.6512905980305  0.6046197319333 1.0
C      1  0.1387971517685  0.3350135367129  0.3481760807500 1.0
C      1  0.8023878634404  0.6475719496808  0.6707031925743 1.0
C      1  0.8309042583054  0.3359209599932  0.3733649398216 1.0
C      1  0.2630746943182  0.4276973871649  0.2751617235669 1.0
C      1  0.2760986800875  0.5297707832910  0.7199801144557 1.0
C      1  0.7200297242376  0.4307406044267  0.2839099558529 1.0
C      1  0.7363974815616  0.5025203476348  0.7346856267646 1.0
C      1  0.4556403678650  0.5634866878207  0.9063090921800 1.0
C      1  0.4427177422260  0.4271886846510  0.1032721318973 1.0
C      1  0.5506858273511  0.5502685553594  0.9089690680322 1.0
C      1  0.5406505537899  0.4179169555940  0.0979493042814 1.0
C      1  0.2460687046864  0.3013042621704  0.5597682299033 1.0
C      1  0.2749513446188  0.7313072813461  0.4096142361993 1.0
C      1  0.7129773052321  0.2466350039225  0.5693992848878 1.0
C      1  0.7524689973834  0.7505698878283  0.4361361750693 1.0
C      1  0.6849403918029  0.4706795523079  0.1247264960949 1.0
C      1  0.6850762978633  0.4731043878613  0.8886173965296 1.0
C      1  0.3162586789799  0.5010710217368  0.1650910501086 1.0
C      1  0.3174836598989  0.4868301817711  0.8792388307191 1.0
C      1  0.4387345946947  0.5969251239876  0.2163088740852 1.0
C      1  0.4388371259461  0.4399495375121  0.7827404864099 1.0
C      1  0.6180564592470  0.5597443877155  0.2698762752503 1.0
C      1  0.5384253003777  0.4316131590885  0.7669059989160 1.0
C      1  0.6990143239190  0.6786795370917  0.5382308068948 1.0
C      1  0.6668722396841  0.3807976738052  0.4792554409100 1.0
C      1  0.3369284855319  0.6266542715512  0.5025450739785 1.0
C      1  0.3286828677402  0.3825599652969  0.4356129338011 1.0
C      1  0.4312029291970  0.1756093996754  0.5271841113980 1.0
C      1  0.4476849622538  0.8583757283615  0.4706989771567 1.0
C      1  0.5321836574874  0.1704228621871  0.5432983428729 1.0
C      1  0.5420100756037  0.8779160308486  0.4708134991504 1.0
C      1  0.4314163214082  0.6008537517951  0.4989421418288 1.0
C      1  0.3872520373289  0.4298949532853  0.5036765582962 1.0
C      1  0.6113451568246  0.6325522196560  0.5158341646254 1.0
C      1  0.5805010465761  0.4145499783356  0.5189582390072 1.0
C      1  0.5904497538582  0.3616460041034  0.1698691355841 1.0
C      1  0.6002711775506  0.5830889894720  0.8245929842428 1.0
C      1  0.3815614700839  0.3623525190939  0.1466214689376 1.0
C      1  0.4065063605888  0.6036287700813  0.8232603197347 1.0
C      1  0.5787209221115  0.3031967420611  0.6461507453165 1.0
C      1  0.6180113189130  0.6995524445986  0.3585861221236 1.0
C      1  0.3709552577225  0.3436844849815  0.6428683131515 1.0
C      1  0.4240282698906  0.6888447756385  0.3514118765451 1.0
C      1  0.7513689185788  0.5864838755741  0.3700882403677 1.0
C      1  0.7625997562929  0.3490959166221  0.6800505818724 1.0
C      1  0.2620552556125  0.5924452728378  0.3215509094510 1.0
C      1  0.1829104336317  0.4274390910473  0.6348080894956 1.0
C      1  0.5990074002600  0.5509787236640  0.6623091397892 1.0
C      1  0.5709951714427  0.4427645125528  0.3613822726110 1.0
C      1  0.4183966979351  0.5584944552971  0.6588338483648 1.0
C      1  0.4009441530607  0.4932988262789  0.3600381933102 1.0
C      1  0.5664651551327  0.7043570036497  0.4522548837213 1.0
C      1  0.5328217422453  0.3326963263796  0.5530440654284 1.0
C      1  0.4659548941593  0.6875189483424  0.4473036109708 1.0
C      1  0.4284749367393  0.3429786459699  0.5508855154330 1.0
C      1  0.2437639907719  0.2386280006260  0.4128542924586 1.0
C      1  0.2621351839944  0.7599730631509  0.5684740715138 1.0
C      1  0.7197990077351  0.2321238333565  0.4175746130803 1.0
C      1  0.7332259608431  0.7988463422607  0.5991870203894 1.0
C      1  0.2745460748979  0.3873520518786  0.6086376469523 1.0
C      1  0.3199951818675  0.6719351878854  0.3381082187748 1.0
C      1  0.6849991505070  0.2902255365185  0.6574797281188 1.0
C      1  0.7147063138044  0.6815020484044  0.3672335179068 1.0
C      1  0.6813865130549  0.8507239759925  0.6500355034800 1.0
C      1  0.6737479728154  0.1808134534901  0.3614793370097 1.0
C      1  0.3022778061106  0.8069807270853  0.6341996162029 1.0
C      1  0.2923975905148  0.1867103527425  0.3587336355818 1.0
C      1  0.3906754947155  0.8298373891148  0.6415129674411 1.0
C      1  0.3826117866186  0.1803186000023  0.3518177701016 1.0
C      1  0.5914917972140  0.8646484063075  0.6450557795206 1.0
C      1  0.5827799007717  0.1697243871318  0.3596429771417 1.0
C      1  0.6873803300615  0.5347488110587  0.8201379233264 1.0
C      1  0.6718461016524  0.4050568184438  0.1929220397118 1.0
C      1  0.3133596697022  0.5510568630731  0.8093678094325 1.0
C      1  0.3100220704906  0.4107936563318  0.1861286303904 1.0
C      1  0.6135007050017  0.5511397804363  0.4613433731038 1.0
END
