TITL C-100826-1855-35 -2.819 3375.00 -481.35657184 0 0 60 (C1) n - 1
REM
REM Run started: at 2020.11.28 03:29:46 in /rds/project/t2_vol4/rds-t2-cs072/BORA/CARBON/AIRSS/Generating-Clusters/Str-Search/Higher-Symm/Only-C60/Try2-TRACK-ENABLED
REM VASP from code version vasp.5.4.4.18Apr17-6-g9f103f2a35 (build Oct 11 2019 16:45:47) gamma-only
REM
REM
REM
REM
REM ./C.cell (5f7b7a0d59291d2373303da1f58b8d66)
REM AIRSS Version 0.9.1 bugfix July 2018 build 013d7b7c2542+ Fri, 06 Jul 2018 19:26:36 +0100
REM compiler GCC version 4.8.5 20150623 (Red Hat 4.8.5-39)
REM options -cpp -mtune=generic -march=x86-64 -g -O0
REM seed 1770125076 -1002930303 1766481210 -1566443478 -224272371 -605066686 -845763880 -1715226233 -1717502815 -1330926243 181783626 636532024
REM
REM C.POTCAR (d86ddea03c3ceb6dc662c8ad6801f873)
REM 
CELL 1.54180   15.00000   15.00000   15.00000   90.00000   90.00000   90.00000
LATT -1
SFAC C  
C      1  0.2505415530741  0.5168355920387  0.4680936123633 1.0
C      1  0.4445303234259  0.7551084360841  0.4680076840713 1.0
C      1  0.7224875486735  0.6383750665629  0.4789897472174 1.0
C      1  0.6923890902036  0.3389772029682  0.4621383252311 1.0
C      1  0.3873332871637  0.2540379703217  0.4816841623641 1.0
C      1  0.7502627265539  0.5060361257119  0.4481564910019 1.0
C      1  0.5615437091701  0.2969988753557  0.4494017356337 1.0
C      1  0.2779247005210  0.3430043813226  0.4824413563881 1.0
C      1  0.3113482378799  0.6448053755835  0.4419578799549 1.0
C      1  0.5806158258099  0.7415607589051  0.4555858651793 1.0
C      1  0.5898133909946  0.5800817555530  0.3120692437731 1.0
C      1  0.5896918010215  0.4789481816853  0.3118034767734 1.0
C      1  0.4985056178585  0.4525261615909  0.3042346196058 1.0
C      1  0.4407826266997  0.5347859846697  0.2979583160382 1.0
C      1  0.4985634004754  0.6127899533193  0.3057348657062 1.0
C      1  0.4153417044824  0.4866868317271  0.4025097085245 1.0
C      1  0.4807084424275  0.5405525615116  0.4578576792880 1.0
C      1  0.5581560846662  0.4870261522672  0.4622103827333 1.0
C      1  0.5257806489755  0.3933487864529  0.4585820357198 1.0
C      1  0.4567842142808  0.3994651722524  0.3843478168476 1.0
C      1  0.6314391263506  0.3041694002169  0.5266261471475 1.0
C      1  0.3323008013974  0.2990447429459  0.5504325117957 1.0
C      1  0.2753489774834  0.5946326962584  0.5232898241008 1.0
C      1  0.5140184286956  0.7402897938886  0.5310577333682 1.0
C      1  0.7315244578241  0.5594836437376  0.5311020337555 1.0
C      1  0.4511405339409  0.4405954901914  0.7561816130795 1.0
C      1  0.4286151411015  0.5344937580526  0.7517981518769 1.0
C      1  0.5129195844636  0.5847492227520  0.7396225271077 1.0
C      1  0.5876869285607  0.5188685569270  0.7403935450019 1.0
C      1  0.5490443414993  0.4275697839498  0.7467744171483 1.0
C      1  0.4330070526683  0.4298090420093  0.5985672038258 1.0
C      1  0.4139771001267  0.5248845016008  0.5946244934606 1.0
C      1  0.4925645058194  0.5736508008383  0.5556359531278 1.0
C      1  0.5737353468532  0.5072728696476  0.5574004860854 1.0
C      1  0.5248453399114  0.4128680384954  0.5657555900040 1.0
C      1  0.3720654086019  0.3541767523207  0.6187461951067 1.0
C      1  0.3264365875608  0.5737468258489  0.6039360175850 1.0
C      1  0.5096045723185  0.6673941693282  0.5969672624661 1.0
C      1  0.6646044505019  0.5319087888464  0.5980140565319 1.0
C      1  0.5901615496033  0.3473490813462  0.6075268827869 1.0
C      1  0.6551516088391  0.4112420717812  0.3470687709948 1.0
C      1  0.4128292648579  0.3109834456016  0.3843908541033 1.0
C      1  0.3527937756079  0.5213312949137  0.3363289650059 1.0
C      1  0.4587604672469  0.6926499927191  0.3457521717278 1.0
C      1  0.6628271462958  0.6286104915512  0.3544586891465 1.0
C      1  0.7230272104708  0.4232907791944  0.4206966356411 1.0
C      1  0.4717020587549  0.2505066866529  0.4351508432925 1.0
C      1  0.2503192031234  0.4275606582615  0.4808738713615 1.0
C      1  0.3825796703211  0.6992089073775  0.4188799316389 1.0
C      1  0.6537644377694  0.6912794297992  0.4343348156799 1.0
C      1  0.4044894715135  0.3864400127196  0.6929021718004 1.0
C      1  0.3661847199900  0.5598634568153  0.6813896789027 1.0
C      1  0.5172538404778  0.6576443836054  0.6853237549305 1.0
C      1  0.6579426076488  0.5332581421788  0.6862241526520 1.0
C      1  0.5865782432261  0.3603332098668  0.6962468634423 1.0
C      1  0.3243244437896  0.2822259433513  0.4087461810548 1.0
C      1  0.2914484972267  0.5659017342685  0.3901536055982 1.0
C      1  0.5076857494637  0.7576501025714  0.3928775917698 1.0
C      1  0.7367120104169  0.5873240010630  0.3964405357996 1.0
C      1  0.6354808033195  0.3237860706220  0.3835427656805 1.0
END
