TITL C-10682-722-22 -0.826 3375.00 -122.64791046 0 0 16 (C1) n - 1
REM
REM Run started: at 2020.12.29 06:53:14 in /gpfs/home/chem/mssmkc/CARBON/AIRSS/Generating-Clusters/Str-Search/Higher-Symm/C4-100
REM VASP from code version vasp.5.4.4.18Apr17-6-g9f103f2a35 (build Oct 11 2019 16:45:47) gamma-only
REM
REM
REM
REM
REM ./C.cell (6bd13a13d554368a30d355f37ece5b26)
REM AIRSS Version 0.9.1 bugfix July 2018 build 013d7b7c2542+ Fri, 06 Jul 2018 19:26:36 +0100
REM compiler GCC version 6.3.0
REM options -cpp -iprefix /gpfs/warwick/csc/orac/software/Core/GCCcore/6.3.0/bin/../lib/gcc/x86_64-pc-linux-gnu/6.3.0/ -mtune=generic -march=x86-64 -g -O0
REM seed 1390487503 1715667931 -841275735 21656809 1568224618 1304923444 1735682079 -1089253782 -374355049 545193493 -431374637 -758675128
REM
REM C.POTCAR (d86ddea03c3ceb6dc662c8ad6801f873)
REM 
CELL 1.54180   15.00000   15.00000   15.00000   90.00000   90.00000   90.00000
LATT -1
SFAC C  
C      1  0.3475730847301  0.5008722508395  0.3262551461867 1.0
C      1  0.5787970604813  0.5004639663837  0.3171677373530 1.0
C      1  0.6566596226879  0.5123948513129  0.5601368058545 1.0
C      1  0.4982779438153  0.4942923344792  0.6663334380571 1.0
C      1  0.3547305591993  0.4994889731279  0.5715442241411 1.0
C      1  0.4075164377370  0.5027152434969  0.6428345866220 1.0
C      1  0.5810496023518  0.4721115602625  0.6243355992491 1.0
C      1  0.6206811121629  0.4933637741494  0.4723928224581 1.0
C      1  0.5068821568774  0.5036290493759  0.2653140689030 1.0
C      1  0.3226031109050  0.4969711938478  0.4074485198871 1.0
C      1  0.4384071294054  0.5137382433160  0.7349850483063 1.0
C      1  0.4241324370014  0.4984463721293  0.2832218855435 1.0
C      1  0.6332163613870  0.5030478874424  0.3812817687230 1.0
C      1  0.6733780971373  0.4986137799890  0.6505285421416 1.0
C      1  0.3198974181290  0.4997353606012  0.4944879443437 1.0
C      1  0.5763748659919  0.4372023592464  0.5312162622302 1.0
END
