TITL C-10682-722-161 -3.879 3375.00 -664.31464142 0 0 82 (C1) n - 1
REM
REM Run started: at 2020.12.30 07:34:26 in /gpfs/home/chem/mssmkc/CARBON/AIRSS/Generating-Clusters/Str-Search/Higher-Symm/C4-100
REM VASP from code version vasp.5.4.4.18Apr17-6-g9f103f2a35 (build Oct 11 2019 16:45:47) gamma-only
REM
REM
REM
REM
REM ./C.cell (6bd13a13d554368a30d355f37ece5b26)
REM AIRSS Version 0.9.1 bugfix July 2018 build 013d7b7c2542+ Fri, 06 Jul 2018 19:26:36 +0100
REM compiler GCC version 6.3.0
REM options -cpp -iprefix /gpfs/warwick/csc/orac/software/Core/GCCcore/6.3.0/bin/../lib/gcc/x86_64-pc-linux-gnu/6.3.0/ -mtune=generic -march=x86-64 -g -O0
REM seed -990418094 -391795153 -1170983875 336060681 -1750128366 -1819604970 -837341616 1490787355 -214858951 530573338 661739422 2112117798
REM
REM C.POTCAR (d86ddea03c3ceb6dc662c8ad6801f873)
REM 
CELL 1.54180   15.00000   15.00000   15.00000   90.00000   90.00000   90.00000
LATT -1
SFAC C  
C      1  0.5162214760340  0.3533214621401  0.4363751963690 1.0
C      1  0.5429315439879  0.6295241487491  0.3900774172713 1.0
C      1  0.5395435837368  0.5205249173161  0.6513900303383 1.0
C      1  0.6538848636527  0.5177218775516  0.7968768015055 1.0
C      1  0.6046573671663  0.2236716117525  0.3349145828545 1.0
C      1  0.6297370889080  0.7843310122218  0.3613502386372 1.0
C      1  0.5784081209601  0.2077394423991  0.6027760529933 1.0
C      1  0.6279451041455  0.5451367836054  0.2238049824834 1.0
C      1  0.6057119990569  0.7557952869610  0.6784004491731 1.0
C      1  0.5009003084930  0.1811776505649  0.5507486622324 1.0
C      1  0.5483222544854  0.6010189216473  0.2191953120521 1.0
C      1  0.5314564356251  0.7206351371395  0.7322323469373 1.0
C      1  0.5523081745092  0.4899475298543  0.2381348395473 1.0
C      1  0.5346230719351  0.7384189020313  0.6162815750632 1.0
C      1  0.5192384590540  0.2654870397206  0.6562724899600 1.0
C      1  0.7207441434987  0.4413313915442  0.4421853342867 1.0
C      1  0.7670679914569  0.6473738174169  0.5140764583258 1.0
C      1  0.7039363949247  0.4089967552469  0.5298385632269 1.0
C      1  0.2004509672892  0.5093051019295  0.4102221123283 1.0
C      1  0.1935612606247  0.5253979083960  0.5758838826289 1.0
C      1  0.2387681474425  0.3752598614315  0.5045518770692 1.0
C      1  0.5473088520718  0.6330418744175  0.7654526175346 1.0
C      1  0.5075162619562  0.1932620632405  0.4584457075708 1.0
C      1  0.5432023616204  0.6663440374158  0.2905220453983 1.0
C      1  0.6720013872910  0.1956310535323  0.4707946218337 1.0
C      1  0.7084909918790  0.6599043116842  0.2960903742192 1.0
C      1  0.7118547138443  0.6595178003573  0.7474778360226 1.0
C      1  0.6371620022877  0.7168223105186  0.2966780142962 1.0
C      1  0.6427987533189  0.6111291085291  0.7852350945522 1.0
C      1  0.5963633737205  0.1802215335161  0.4184898623099 1.0
C      1  0.1986627817878  0.5645413253342  0.4851013829796 1.0
C      1  0.2305230095273  0.4386764421211  0.5740634378611 1.0
C      1  0.2154869882472  0.4124922067212  0.4212505856184 1.0
C      1  0.3337665645232  0.5707086695551  0.3095987081788 1.0
C      1  0.3447712574811  0.6144869202229  0.6627748165003 1.0
C      1  0.3311538241814  0.3310070481995  0.5133861641569 1.0
C      1  0.4249195960216  0.4382050390409  0.3119473467815 1.0
C      1  0.4169256585877  0.6755224005879  0.5332369143800 1.0
C      1  0.4178095971069  0.3787436591856  0.6510577029733 1.0
C      1  0.5360001729948  0.5325585532107  0.4017503658424 1.0
C      1  0.5331984090927  0.5636495808490  0.5690627148884 1.0
C      1  0.4823186906529  0.4201089928306  0.4933707362219 1.0
C      1  0.3726432136726  0.4621969702289  0.6808889685144 1.0
C      1  0.3621568725971  0.3821960660071  0.3554988096716 1.0
C      1  0.3576459441792  0.6459137098886  0.4635382820902 1.0
C      1  0.4640836904349  0.6727917812455  0.3454281962296 1.0
C      1  0.4931575875059  0.5646705425088  0.7280636449507 1.0
C      1  0.4607915446007  0.2735832057441  0.4279706351973 1.0
C      1  0.3977777816367  0.5471488643139  0.7127495993657 1.0
C      1  0.3735464994128  0.3091900318483  0.4237264967479 1.0
C      1  0.3778460454824  0.6411943541266  0.3649631825444 1.0
C      1  0.2621462516163  0.5138519649038  0.3345271747257 1.0
C      1  0.2880912790381  0.5716210917733  0.5949492044727 1.0
C      1  0.3959694884393  0.4116313138847  0.5467308176647 1.0
C      1  0.5832468461223  0.6856897278913  0.4671278849606 1.0
C      1  0.5825091229298  0.4279320623547  0.6732642739732 1.0
C      1  0.5794224472491  0.3759583367262  0.3582976503081 1.0
C      1  0.6256083206367  0.4488403023988  0.7610719490637 1.0
C      1  0.5841300126365  0.2958800565424  0.2974767319514 1.0
C      1  0.5854236659153  0.7825559039240  0.4335521925342 1.0
C      1  0.4390785092763  0.2318928361196  0.6098172122867 1.0
C      1  0.4747980323982  0.5387678044855  0.2040900781198 1.0
C      1  0.4565912004751  0.7428327504998  0.6707306753927 1.0
C      1  0.5107460891584  0.3552168586222  0.6734827027996 1.0
C      1  0.5239903647923  0.4553428870645  0.3269037499431 1.0
C      1  0.5190288882591  0.6682741347298  0.5444973079922 1.0
C      1  0.4011355516803  0.5178307149415  0.2604448298180 1.0
C      1  0.3918105856350  0.6884079577765  0.6281004470762 1.0
C      1  0.3723040764785  0.2942399910787  0.6025866277353 1.0
C      1  0.7165433974901  0.6881031688818  0.5842170142740 1.0
C      1  0.6859042190102  0.3226098430942  0.5694891547135 1.0
C      1  0.7101026959336  0.4959933325644  0.3552462106264 1.0
C      1  0.6896188541882  0.7125051715235  0.6732925907439 1.0
C      1  0.6581599100982  0.2323960984210  0.5565096567844 1.0
C      1  0.6944389414421  0.5660786294345  0.2922588432908 1.0
C      1  0.3216322204872  0.4728894602759  0.5970745212731 1.0
C      1  0.2751783882082  0.4167330942813  0.3449988398118 1.0
C      1  0.2805077943324  0.6110262117784  0.5040210618964 1.0
C      1  0.6695458632857  0.4140008782386  0.3716532587361 1.0
C      1  0.6748895241940  0.6720986844781  0.5046774489812 1.0
C      1  0.6552564658349  0.4002505970486  0.6090251661074 1.0
C      1  0.5264148080553  0.5058873176609  0.4898671512281 1.0
END
