TITL C-100826-1855-20 -2.677 3375.00 -471.10654772 0 0 60 (Td) n - 1
REM
REM Run started: at 2020.11.27 22:46:36 in /rds/project/t2_vol4/rds-t2-cs072/BORA/CARBON/AIRSS/Generating-Clusters/Str-Search/Higher-Symm/Only-C60/Try2-TRACK-ENABLED
REM VASP from code version vasp.5.4.4.18Apr17-6-g9f103f2a35 (build Oct 11 2019 16:45:47) gamma-only
REM
REM
REM
REM
REM ./C.cell (5f7b7a0d59291d2373303da1f58b8d66)
REM AIRSS Version 0.9.1 bugfix July 2018 build 013d7b7c2542+ Fri, 06 Jul 2018 19:26:36 +0100
REM compiler GCC version 4.8.5 20150623 (Red Hat 4.8.5-39)
REM options -cpp -mtune=generic -march=x86-64 -g -O0
REM seed -1852861057 2101624360 451829035 1463098391 -398803069 891305818 950198284 -1945955973 -1269299447 1114870819 1658326668 1558899542
REM
REM C.POTCAR (d86ddea03c3ceb6dc662c8ad6801f873)
REM 
CELL 1.54180   15.00000   15.00000   15.00000   90.00000   90.00000   90.00000
LATT -1
SFAC C  
C      1  0.3853269107491  0.3117053755136  0.4563463158424 1.0
C      1  0.3117093713373  0.4563467968718  0.3853325162613 1.0
C      1  0.4563469906167  0.3853313143663  0.3117082153113 1.0
C      1  0.6146695420588  0.3117078046921  0.5436531153365 1.0
C      1  0.6146670168924  0.6882903678047  0.4563468702751 1.0
C      1  0.3853308139942  0.6882918451663  0.5436534828849 1.0
C      1  0.6882935352819  0.4563466359408  0.6146715706735 1.0
C      1  0.6882945027801  0.5436533606698  0.3853276008762 1.0
C      1  0.3117079621958  0.5436531446879  0.6146690953218 1.0
C      1  0.5436532820686  0.3853318929246  0.6882908282691 1.0
C      1  0.5436536730060  0.6146700664148  0.3117076865366 1.0
C      1  0.4563464848178  0.6146712434953  0.6882934725808 1.0
C      1  0.4563468580911  0.3117096161757  0.3853328229559 1.0
C      1  0.3853308721597  0.4563470317934  0.3117079072003 1.0
C      1  0.3117055720258  0.3853271239193  0.4563462580952 1.0
C      1  0.5436531486180  0.3117076486738  0.6146694886330 1.0
C      1  0.4563466684878  0.6882930060209  0.6146709492898 1.0
C      1  0.5436533397852  0.6882943461178  0.3853277872060 1.0
C      1  0.6146716832455  0.4563464484883  0.6882938018895 1.0
C      1  0.3853317561887  0.5436531655858  0.6882910064308 1.0
C      1  0.6146705713416  0.5436536537894  0.3117072226962 1.0
C      1  0.6882913059208  0.3853316281095  0.5436534736065 1.0
C      1  0.3117074792814  0.6146700783928  0.5436532495689 1.0
C      1  0.6882902116902  0.6146668197458  0.4563467938515 1.0
C      1  0.5557255684224  0.3764349093976  0.3065594627130 1.0
C      1  0.3764350580046  0.3065601706975  0.5557254433528 1.0
C      1  0.3065594826814  0.5557253000061  0.3764351291731 1.0
C      1  0.4442745538045  0.3764351857945  0.6934402215751 1.0
C      1  0.4442745711704  0.6235647205281  0.3065598993651 1.0
C      1  0.5557256193530  0.6235648693969  0.6934402649555 1.0
C      1  0.6235652145784  0.3065598490733  0.4442747390060 1.0
C      1  0.6235650508955  0.6934404860674  0.5557253384887 1.0
C      1  0.3764351783901  0.6934402563645  0.4442744206759 1.0
C      1  0.6934400696047  0.5557251574500  0.6235649576765 1.0
C      1  0.6934402885333  0.4442748379849  0.3764347891659 1.0
C      1  0.3065593188224  0.4442745662196  0.6235650471530 1.0
C      1  0.3065602250220  0.3764351229843  0.5557254701082 1.0
C      1  0.5557252985597  0.3065595189333  0.3764350457709 1.0
C      1  0.3764349006650  0.5557254859546  0.3065594559397 1.0
C      1  0.6934403209342  0.3764352104930  0.4442743818126 1.0
C      1  0.3065599477621  0.6235651051294  0.4442746725868 1.0
C      1  0.6934404817276  0.6235649572635  0.5557254066467 1.0
C      1  0.4442745647356  0.3065593550120  0.6235651326203 1.0
C      1  0.5557252006738  0.6934400576763  0.6235649774009 1.0
C      1  0.4442747971270  0.6934402997675  0.3764347472440 1.0
C      1  0.6235648623683  0.5557255231727  0.6934402704242 1.0
C      1  0.3764351396631  0.4442746001145  0.6934403168395 1.0
C      1  0.6235647635065  0.4442746494345  0.3065598502216 1.0
C      1  0.3978805594865  0.4671918716644  0.4671910581528 1.0
C      1  0.5328078145233  0.3978805691213  0.5328071246104 1.0
C      1  0.4671911074047  0.6021196795167  0.5328082484319 1.0
C      1  0.6021195756376  0.4671909856473  0.5328079050211 1.0
C      1  0.6021191382577  0.5328085518408  0.4671934383467 1.0
C      1  0.3978806533939  0.5328077494676  0.5328072307945 1.0
C      1  0.5328087433773  0.5328090173283  0.3978802524817 1.0
C      1  0.4671919661189  0.3978803803466  0.4671908396286 1.0
C      1  0.5328084102635  0.6021191323748  0.4671934511220 1.0
C      1  0.4671930792874  0.4671929177394  0.3978802041334 1.0
C      1  0.5328073056986  0.4671912460051  0.6021196065845 1.0
C      1  0.4671916169102  0.5328072886711  0.6021196681832 1.0
END
