TITL C-10012-4540-26 -5.45 3375.00 -922.13167985 0 0 114 (C1) n - 1
REM
REM Run started: at 2021.01.01 05:20:43 in /gpfs/home/chem/mssmkc/CARBON/AIRSS/Generating-Clusters/Str-Search/Higher-Symm/C100-200
REM VASP from code version vasp.5.4.4.18Apr17-6-g9f103f2a35 (build Oct 11 2019 16:45:47) gamma-only
REM
REM
REM
REM
REM ./C.cell (533062f00bc710175b3da973d35f2034)
REM AIRSS Version 0.9.1 bugfix July 2018 build 013d7b7c2542+ Fri, 06 Jul 2018 19:26:36 +0100
REM compiler GCC version 6.3.0
REM options -cpp -iprefix /gpfs/warwick/csc/orac/software/Core/GCCcore/6.3.0/bin/../lib/gcc/x86_64-pc-linux-gnu/6.3.0/ -mtune=generic -march=x86-64 -g -O0
REM seed -825909308 1179306250 -527440015 1834728777 -684933197 2100204538 1081937700 -2088985504 -1191842233 -269538923 -1673870988 -1538348099
REM
REM C.POTCAR (d86ddea03c3ceb6dc662c8ad6801f873)
REM 
CELL 1.54180   15.00000   15.00000   15.00000   90.00000   90.00000   90.00000
LATT -1
SFAC C  
C      1  0.6122502836853  0.6870789052402  0.6394261354198 1.0
C      1  0.3556597309134  0.5213255331359  0.4293943433313 1.0
C      1  0.2839525544365  0.6186193848547  0.2922254583805 1.0
C      1  0.5675862736389  0.6110536456080  0.7654011482417 1.0
C      1  0.4203099786268  0.3771735250801  0.1810485790610 1.0
C      1  0.4118312956462  0.2831105509433  0.2066593523338 1.0
C      1  0.7666907185538  0.5205934205279  0.6646469159084 1.0
C      1  0.5338854492890  0.1937353780717  0.2993511236829 1.0
C      1  0.2406808772219  0.3927282006712  0.3754140782106 1.0
C      1  0.4660518414041  0.3459609120867  0.4333330924044 1.0
C      1  0.4034411802068  0.5209615339550  0.3388633741845 1.0
C      1  0.4296304365983  0.3660235811947  0.7341573393299 1.0
C      1  0.4661851622592  0.7789467076951  0.3146526780891 1.0
C      1  0.3421200974157  0.5702871920961  0.6972270304800 1.0
C      1  0.3739816267073  0.5105843134358  0.6205005195887 1.0
C      1  0.3711686522638  0.1770603179069  0.6297737160411 1.0
C      1  0.4902965520381  0.6384196214725  0.7189261067148 1.0
C      1  0.2446072526095  0.6042886547159  0.6772508764778 1.0
C      1  0.4780053727480  0.2257140714882  0.2456285852078 1.0
C      1  0.4603561267297  0.6269014158057  0.2677279039415 1.0
C      1  0.2315649732533  0.5390661865253  0.5120250011216 1.0
C      1  0.4519897690846  0.1852947086448  0.6775621396022 1.0
C      1  0.3221435692601  0.7375577248522  0.4182237982945 1.0
C      1  0.5630304930811  0.5435200454749  0.8277238611439 1.0
C      1  0.3988694368102  0.7863747508952  0.3896142137741 1.0
C      1  0.6529721131403  0.7089020649238  0.5518194241045 1.0
C      1  0.2528347893457  0.7382642021198  0.5781455896052 1.0
C      1  0.6445913906050  0.4855917421240  0.2303613322699 1.0
C      1  0.4674960452689  0.8329401783522  0.4428311125421 1.0
C      1  0.5667871283637  0.4677374055206  0.4651681503314 1.0
C      1  0.3532139966633  0.7258762099079  0.6990785659942 1.0
C      1  0.6616845936750  0.6540484264770  0.2669646664977 1.0
C      1  0.7153938748945  0.2401467605268  0.5078860118611 1.0
C      1  0.2664844419077  0.7015674845032  0.6620029755927 1.0
C      1  0.2386576812743  0.5364701289153  0.3205733816401 1.0
C      1  0.7170336728093  0.2936520107051  0.6534422958727 1.0
C      1  0.2598899481626  0.5688648380645  0.4210125320383 1.0
C      1  0.4632865116814  0.8778432204627  0.6898035117018 1.0
C      1  0.7174639727668  0.5458119904309  0.3625539699794 1.0
C      1  0.5662344044596  0.4569679406163  0.8237182381961 1.0
C      1  0.2737988574117  0.3776723727802  0.5964905080395 1.0
C      1  0.7397637923930  0.4313725383090  0.6675711805744 1.0
C      1  0.5926019106253  0.2112787691150  0.3707165717890 1.0
C      1  0.6097225474620  0.6223452181016  0.5073704049712 1.0
C      1  0.2194696773014  0.5515788397346  0.5990241834905 1.0
C      1  0.5714180465814  0.4840604650119  0.1660009995266 1.0
C      1  0.7597016782076  0.4793454400040  0.4157428579383 1.0
C      1  0.2797954007744  0.6604370244186  0.3769429967675 1.0
C      1  0.6465731879868  0.6402851539069  0.7116809848308 1.0
C      1  0.7393988399524  0.6095823088272  0.7000626285393 1.0
C      1  0.5209862903858  0.6586855364619  0.6302936472780 1.0
C      1  0.5601973793266  0.5328267015114  0.3871037825382 1.0
C      1  0.3863883932781  0.4212692255292  0.3254195044720 1.0
C      1  0.8539104600202  0.5980764057846  0.5276029682906 1.0
C      1  0.5014697463237  0.4220578532060  0.5982340040877 1.0
C      1  0.6162905729611  0.3020870063349  0.4055791467363 1.0
C      1  0.4271589811090  0.5484259564910  0.5319067977808 1.0
C      1  0.2592086284462  0.2486582879648  0.2925290542805 1.0
C      1  0.4651629616879  0.2788023376078  0.6979364558584 1.0
C      1  0.6562355355674  0.2160319390922  0.4353363112446 1.0
C      1  0.2311606450039  0.3071932432995  0.3502453103169 1.0
C      1  0.6120711782188  0.7839097486165  0.3985360824278 1.0
C      1  0.4968376108952  0.7149979243189  0.2536532994046 1.0
C      1  0.6789076289847  0.3607178604212  0.3575455799493 1.0
C      1  0.4107186984213  0.8005151063523  0.6726876187307 1.0
C      1  0.5185356392543  0.3810130819196  0.7955825707320 1.0
C      1  0.2805451544327  0.4767436152793  0.5789008055260 1.0
C      1  0.6892832428856  0.5608846035743  0.2704818246291 1.0
C      1  0.5320613541827  0.2762485954912  0.6313011901152 1.0
C      1  0.2462765768525  0.4503150095018  0.2919086478521 1.0
C      1  0.2853676375358  0.7511800496025  0.5029677798792 1.0
C      1  0.7828921691159  0.6796702260957  0.6561090139007 1.0
C      1  0.6826507790015  0.3642288490685  0.7152642484412 1.0
C      1  0.5919352059838  0.7130828659230  0.2514364618344 1.0
C      1  0.7518126350131  0.7219769040904  0.5776729081810 1.0
C      1  0.6926929975101  0.2156101121214  0.5995163851845 1.0
C      1  0.3307925730644  0.3727648632650  0.7600980560222 1.0
C      1  0.6402094517166  0.5818513717594  0.4183453207973 1.0
C      1  0.3314342696057  0.4159648454612  0.4140731300407 1.0
C      1  0.6357932420601  0.4043360946355  0.2882668294512 1.0
C      1  0.2705005794847  0.5389971870579  0.7563120696684 1.0
C      1  0.7508887989208  0.3835730145037  0.4183637590160 1.0
C      1  0.4939535584085  0.5590475585551  0.3321566206809 1.0
C      1  0.5493500660451  0.3437974870110  0.5725538232999 1.0
C      1  0.5163572641148  0.8142399484146  0.5234304754958 1.0
C      1  0.7444909370081  0.5098988150618  0.5070693083541 1.0
C      1  0.4709649298232  0.3748968746432  0.3432895719269 1.0
C      1  0.5585299628686  0.3543276163717  0.4720596557715 1.0
C      1  0.5301029099493  0.8238550619109  0.3704209543728 1.0
C      1  0.2674429426914  0.4457618506233  0.7525498541898 1.0
C      1  0.4349352767171  0.4353621014082  0.6589653086775 1.0
C      1  0.5442079869983  0.1789974583581  0.6356809437719 1.0
C      1  0.3260907521021  0.3160289173473  0.5458828459224 1.0
C      1  0.6034867478926  0.7805921121312  0.4970613935603 1.0
C      1  0.3325722550852  0.2277544674531  0.5767091697939 1.0
C      1  0.3233672315309  0.2940090296478  0.2425191608138 1.0
C      1  0.5049266796728  0.6210457515719  0.5464653369432 1.0
C      1  0.3950919770708  0.6472885751320  0.7246409102989 1.0
C      1  0.8332609960737  0.6759572363569  0.5715605935572 1.0
C      1  0.5075374465587  0.4221192241852  0.1934927486057 1.0
C      1  0.6481958160417  0.7327083208823  0.3246193264971 1.0
C      1  0.6278401566166  0.1532181032916  0.6232011300856 1.0
C      1  0.7536209196251  0.3316886679691  0.5035600584460 1.0
C      1  0.6482950740729  0.5290078041660  0.5067304646347 1.0
C      1  0.3749686920728  0.5948273961762  0.2730434452368 1.0
C      1  0.4974854520050  0.4834357981683  0.5299562880174 1.0
C      1  0.6092784941882  0.3788532832940  0.7708653271097 1.0
C      1  0.7576107046114  0.3593902824049  0.5979788298960 1.0
C      1  0.2655014250913  0.3721536170824  0.6918659384777 1.0
C      1  0.8052676069286  0.5326574913790  0.5740961205594 1.0
C      1  0.3316730284538  0.3966325883916  0.2421780162750 1.0
C      1  0.3778503396902  0.3504142907898  0.4701003032859 1.0
C      1  0.4736471209635  0.8249309725400  0.6103353131701 1.0
C      1  0.5391604235818  0.3873818587015  0.2800277519440 1.0
END
