TITL C-10012-4540-12 -5.902 3375.00 -1071.67305697 0 0 131 (C1) n - 1
REM
REM Run started: at 2020.12.31 18:08:46 in /gpfs/home/chem/mssmkc/CARBON/AIRSS/Generating-Clusters/Str-Search/Higher-Symm/C100-200
REM VASP from code version vasp.5.4.4.18Apr17-6-g9f103f2a35 (build Oct 11 2019 16:45:47) gamma-only
REM
REM
REM
REM
REM ./C.cell (533062f00bc710175b3da973d35f2034)
REM AIRSS Version 0.9.1 bugfix July 2018 build 013d7b7c2542+ Fri, 06 Jul 2018 19:26:36 +0100
REM compiler GCC version 6.3.0
REM options -cpp -iprefix /gpfs/warwick/csc/orac/software/Core/GCCcore/6.3.0/bin/../lib/gcc/x86_64-pc-linux-gnu/6.3.0/ -mtune=generic -march=x86-64 -g -O0
REM seed 1316014720 -935982327 1605073707 -385028203 -880119011 1644101715 153835982 -236713620 1268843436 -1828090853 -521809870 -1674916355
REM
REM C.POTCAR (d86ddea03c3ceb6dc662c8ad6801f873)
REM 
CELL 1.54180   15.00000   15.00000   15.00000   90.00000   90.00000   90.00000
LATT -1
SFAC C  
C      1  0.2490521144972  0.3418074122076  0.3612587834618 1.0
C      1  0.2930774109556  0.3416099345991  0.6962649142570 1.0
C      1  0.6226548135902  0.3424554030958  0.7577977346012 1.0
C      1  0.7848967330819  0.3412174794312  0.4638029920635 1.0
C      1  0.5540194116007  0.3410286180453  0.2189018416754 1.0
C      1  0.7517537223695  0.3411427760577  0.3622544300807 1.0
C      1  0.7092615932396  0.3434617974322  0.6948120986546 1.0
C      1  0.3790346788861  0.3422301162824  0.7594634352863 1.0
C      1  0.2166938786749  0.3427761358765  0.4634804691678 1.0
C      1  0.4476062994704  0.3411491395511  0.2190693663843 1.0
C      1  0.4486328351766  0.5967876531965  0.6556010310594 1.0
C      1  0.6349761801325  0.5970840754873  0.5986727077093 1.0
C      1  0.6353047101738  0.5968198718909  0.4050366158301 1.0
C      1  0.4509805728293  0.5969133128787  0.3431941036034 1.0
C      1  0.3352360257448  0.5966683678724  0.4976631554597 1.0
C      1  0.5549188116160  0.6002024238054  0.6573694438833 1.0
C      1  0.3678507888609  0.5996245231072  0.5975028043982 1.0
C      1  0.3657634824731  0.5964927027088  0.4036974815533 1.0
C      1  0.5502714885802  0.5967145700375  0.3437647435086 1.0
C      1  0.6667411448719  0.5968458124906  0.4990305334896 1.0
C      1  0.7375910247831  0.2825505190432  0.5239316505121 1.0
C      1  0.5969225884536  0.2825766849372  0.2828973195666 1.0
C      1  0.3238716856619  0.2834889039102  0.3411062346010 1.0
C      1  0.2960755440191  0.2836459407107  0.6193883789291 1.0
C      1  0.5510974140754  0.2831666565448  0.7321670858116 1.0
C      1  0.2656334698588  0.2851419511594  0.5244358749530 1.0
C      1  0.4044877949121  0.2824278827376  0.2824777947365 1.0
C      1  0.6775057549478  0.2826093615580  0.3413008565236 1.0
C      1  0.7062972871919  0.2839386437524  0.6181562293632 1.0
C      1  0.4513355718442  0.2833960431383  0.7325329685130 1.0
C      1  0.4091207882843  0.5599233413089  0.8460908770431 1.0
C      1  0.8029276384858  0.5593491489176  0.6935148723598 1.0
C      1  0.7781195449049  0.5585381873354  0.2745621134726 1.0
C      1  0.3725077498493  0.5584855756189  0.1666840316374 1.0
C      1  0.1428620377185  0.5596890207540  0.5191289250175 1.0
C      1  0.5923424359028  0.5594013744693  0.8450839077539 1.0
C      1  0.2018139158705  0.5586855678760  0.6920409620631 1.0
C      1  0.2232379572024  0.5591736671564  0.2726281546984 1.0
C      1  0.6297246799452  0.5582321033950  0.1675116157703 1.0
C      1  0.8592806627543  0.5588493545105  0.5194054135934 1.0
C      1  0.1628277314942  0.4731122478225  0.6588051682884 1.0
C      1  0.5481466258139  0.4740122072680  0.8713230847176 1.0
C      1  0.8710597636580  0.4725451557421  0.5695127902329 1.0
C      1  0.6809433242835  0.4728949768280  0.1716958750104 1.0
C      1  0.2435673855760  0.4732447178597  0.2259290205976 1.0
C      1  0.8410262271419  0.4729909377172  0.6599584363786 1.0
C      1  0.4530695827410  0.4738639045359  0.8726973833700 1.0
C      1  0.1317838580127  0.4733806899482  0.5688395451103 1.0
C      1  0.3210487968602  0.4728895583795  0.1708499657484 1.0
C      1  0.7578054843928  0.4730179386759  0.2274420286026 1.0
C      1  0.4038887929084  0.4171337186932  0.1821116236188 1.0
C      1  0.1648676300016  0.4176971406138  0.4921097116811 1.0
C      1  0.3907837887726  0.4177180168852  0.8169196419300 1.0
C      1  0.7688621176118  0.4176488754456  0.7030039657622 1.0
C      1  0.7741726849869  0.4170780714125  0.3095011095126 1.0
C      1  0.5978104911660  0.4169729411205  0.1825295786340 1.0
C      1  0.8349423550753  0.4170801362064  0.4938642959458 1.0
C      1  0.6085058796153  0.4182691739024  0.8131689815169 1.0
C      1  0.2365030878660  0.4178776078228  0.6987284761975 1.0
C      1  0.2261519560035  0.4174527819285  0.3081397266103 1.0
C      1  0.7699496377616  0.5040208029234  0.3596459151081 1.0
C      1  0.4502952487348  0.5039308157265  0.2017920137376 1.0
C      1  0.1986482883005  0.5047564971979  0.4546749009705 1.0
C      1  0.3654958158939  0.5049269131214  0.7731738551369 1.0
C      1  0.7197268391930  0.5046745826456  0.7133398416883 1.0
C      1  0.2303655260994  0.5046429396725  0.3580060029338 1.0
C      1  0.5516074893045  0.5037087803354  0.2023042572226 1.0
C      1  0.8022849080152  0.5043174452210  0.4558662953179 1.0
C      1  0.6355015064453  0.5051764173097  0.7707385895577 1.0
C      1  0.2854908179004  0.5045501100584  0.7105701805962 1.0
C      1  0.5452931227730  0.4450502179185  0.6321150804523 1.0
C      1  0.6509631262434  0.4370208189740  0.5010024744431 1.0
C      1  0.5448251188808  0.4381223077176  0.3633359253996 1.0
C      1  0.3778800136028  0.4359808126120  0.4124733587466 1.0
C      1  0.3904001381463  0.4435064519962  0.5805970738709 1.0
C      1  0.4529200523558  0.4288368947102  0.6495094760814 1.0
C      1  0.3472134178218  0.4324450777950  0.4968495337281 1.0
C      1  0.4549583619066  0.4380172154479  0.3620619416983 1.0
C      1  0.6201966853809  0.4378256045170  0.4164970058630 1.0
C      1  0.6274220575545  0.4319770137692  0.5897780016228 1.0
C      1  0.8221359455396  0.6390493587898  0.5520790563239 1.0
C      1  0.6496998782329  0.6386245533669  0.2128176058207 1.0
C      1  0.2732266754508  0.6391298891807  0.2682062504168 1.0
C      1  0.2113105254624  0.6395196716697  0.6443537133678 1.0
C      1  0.5496407287441  0.6402695842190  0.8203850680653 1.0
C      1  0.1805357234187  0.6395416267240  0.5518263898376 1.0
C      1  0.3525656877243  0.6389714523997  0.2116234692833 1.0
C      1  0.7286007898777  0.6387978515611  0.2697833600205 1.0
C      1  0.7923409915585  0.6394036692296  0.6450593420000 1.0
C      1  0.4524763228581  0.6399599923812  0.8198572158904 1.0
C      1  0.6273601274690  0.2338551667861  0.4099356229558 1.0
C      1  0.4541607648227  0.2340553844061  0.3514502951253 1.0
C      1  0.3458727414531  0.2351482657677  0.4981918674034 1.0
C      1  0.4513804674400  0.2342938326940  0.6474872957968 1.0
C      1  0.6253771748255  0.2350521752901  0.5921936807346 1.0
C      1  0.3739580405096  0.2347872221847  0.4100035695239 1.0
C      1  0.5469211154908  0.2341662841155  0.3517124657220 1.0
C      1  0.6560593086862  0.2341841526167  0.4980290414070 1.0
C      1  0.5504838924370  0.2346691456846  0.6471153799430 1.0
C      1  0.3764975754879  0.2347553548890  0.5927034352441 1.0
C      1  0.6656348086712  0.5092092413543  0.3650479384475 1.0
C      1  0.4222738505808  0.5097609453473  0.3016911524650 1.0
C      1  0.2860832549730  0.5084115902652  0.5126936743235 1.0
C      1  0.4473095357972  0.5099602336547  0.7100061743450 1.0
C      1  0.6836543748176  0.5091333536698  0.6156151425869 1.0
C      1  0.3345538613325  0.5092074578356  0.3628334192936 1.0
C      1  0.5789271372046  0.5090862202250  0.3028084844179 1.0
C      1  0.7161811884478  0.5102081710337  0.5134454281612 1.0
C      1  0.5548955991197  0.5134428935220  0.7060203923315 1.0
C      1  0.3223833914318  0.5122928189839  0.6129914561777 1.0
C      1  0.3285223512392  0.6769664320212  0.3491310625051 1.0
C      1  0.3046242917890  0.6787813313849  0.6165629654408 1.0
C      1  0.5523718445065  0.6795496312813  0.7226672379691 1.0
C      1  0.7293870894048  0.6772300605535  0.5200440327000 1.0
C      1  0.5903878886656  0.6765809120048  0.2904330042657 1.0
C      1  0.6730449902027  0.6768411765412  0.3502869536792 1.0
C      1  0.6982725288841  0.6775850124540  0.6173237518543 1.0
C      1  0.4504105542432  0.6782698516147  0.7221547508189 1.0
C      1  0.2730497324825  0.6773465886986  0.5193517980261 1.0
C      1  0.4115514558075  0.6769043426093  0.2896568609089 1.0
C      1  0.6607948052052  0.7532268767440  0.4990403667324 1.0
C      1  0.5493864107631  0.7530545542366  0.3481092771839 1.0
C      1  0.3713794309198  0.7532902227575  0.4060530018303 1.0
C      1  0.3721893072883  0.7544071547906  0.5934257850947 1.0
C      1  0.5512874316607  0.7548589996902  0.6509518029183 1.0
C      1  0.3415277621525  0.7533903619536  0.4982066805122 1.0
C      1  0.4524549466683  0.7531211454542  0.3476499924549 1.0
C      1  0.6304368149887  0.7531577294759  0.4069276443520 1.0
C      1  0.6304279578717  0.7538448360272  0.5942017127041 1.0
C      1  0.4511164042373  0.7542129647116  0.6506504715615 1.0
C      1  0.4820843413670  0.4887773817818  0.5615559723674 1.0
END
