TITL C-10682-722-51 -0.201 3375.00 -25.77493635 0 0 5 (Td) n - 1
REM
REM Run started: at 2020.12.29 11:10:24 in /gpfs/home/chem/mssmkc/CARBON/AIRSS/Generating-Clusters/Str-Search/Higher-Symm/C4-100
REM VASP from code version vasp.5.4.4.18Apr17-6-g9f103f2a35 (build Oct 11 2019 16:45:47) gamma-only
REM
REM
REM
REM
REM ./C.cell (6bd13a13d554368a30d355f37ece5b26)
REM AIRSS Version 0.9.1 bugfix July 2018 build 013d7b7c2542+ Fri, 06 Jul 2018 19:26:36 +0100
REM compiler GCC version 6.3.0
REM options -cpp -iprefix /gpfs/warwick/csc/orac/software/Core/GCCcore/6.3.0/bin/../lib/gcc/x86_64-pc-linux-gnu/6.3.0/ -mtune=generic -march=x86-64 -g -O0
REM seed -1529701478 950097189 -1754260946 -111816016 -1399881133 -105757597 316573626 1350772903 -1654300904 158339043 -1453298040 191756236
REM
REM C.POTCAR (d86ddea03c3ceb6dc662c8ad6801f873)
REM 
CELL 1.54180   15.00000   15.00000   15.00000   90.00000   90.00000   90.00000
LATT -1
SFAC C  
C      1  0.4466070056202  0.4468701174708  0.5616600733590 1.0
C      1  0.5572782313284  0.5575364822418  0.5615679999222 1.0
C      1  0.5573619552281  0.4468791297194  0.4508395297405 1.0
C      1  0.4466264211395  0.5576222250608  0.4508511706702 1.0
C      1  0.5018850866838  0.5021313455073  0.5061560263081 1.0
END
