TITL C-10012-4540-57 -8.096 3375.00 -1393.61782367 0 0 171 (C1) n - 1
REM
REM Run started: at 2021.01.02 03:07:37 in /gpfs/home/chem/mssmkc/CARBON/AIRSS/Generating-Clusters/Str-Search/Higher-Symm/C100-200
REM VASP from code version vasp.5.4.4.18Apr17-6-g9f103f2a35 (build Oct 11 2019 16:45:47) gamma-only
REM
REM
REM
REM
REM ./C.cell (533062f00bc710175b3da973d35f2034)
REM AIRSS Version 0.9.1 bugfix July 2018 build 013d7b7c2542+ Fri, 06 Jul 2018 19:26:36 +0100
REM compiler GCC version 6.3.0
REM options -cpp -iprefix /gpfs/warwick/csc/orac/software/Core/GCCcore/6.3.0/bin/../lib/gcc/x86_64-pc-linux-gnu/6.3.0/ -mtune=generic -march=x86-64 -g -O0
REM seed -990418094 1549287027 -94718114 116706223 1634818195 1914532999 -2058127994 18662833 789744073 -719377416 247373173 656021784
REM
REM C.POTCAR (d86ddea03c3ceb6dc662c8ad6801f873)
REM 
CELL 1.54180   15.00000   15.00000   15.00000   90.00000   90.00000   90.00000
LATT -1
SFAC C  
C      1  0.1892964674766  0.3124272701607  0.6311886126400 1.0
C      1  0.8079001080131  0.3092060563672  0.6276758738192 1.0
C      1  0.4527798303554  0.3931663337699  0.5754684276930 1.0
C      1  0.5453088827188  0.3926866303702  0.5751343872417 1.0
C      1  0.7678985508517  0.5380440782281  0.4437016458688 1.0
C      1  0.2295975055401  0.5403240904639  0.4429539459623 1.0
C      1  0.7338335445836  0.2976102957106  0.7987286638232 1.0
C      1  0.2647708626647  0.3003912839998  0.8005841743900 1.0
C      1  0.1870938670143  0.3229285672391  0.5389365082200 1.0
C      1  0.8107948647395  0.3183827272912  0.5349665493479 1.0
C      1  0.5986003471995  0.3965852649025  0.7671546962852 1.0
C      1  0.4006380049985  0.3974402947581  0.7678293464203 1.0
C      1  0.7704833935867  0.3743535856493  0.7628941030905 1.0
C      1  0.2281138268222  0.3773282786840  0.7652560118523 1.0
C      1  0.6508660963823  0.9566509100893  0.6309680485999 1.0
C      1  0.3495492103600  0.9567832994897  0.6314961161253 1.0
C      1  0.4003304297864  0.2140777084553  0.3958067869453 1.0
C      1  0.5917943516126  0.2149444850747  0.3908568955256 1.0
C      1  0.5494149872090  0.3156743709745  0.7787423258976 1.0
C      1  0.4494015386101  0.3161577689003  0.7792795744536 1.0
C      1  0.1305263655895  0.4859619024576  0.5614993890814 1.0
C      1  0.8677460488106  0.4818393843288  0.5600331719974 1.0
C      1  0.5467670359376  0.1323869230061  0.5194983853394 1.0
C      1  0.4491228649592  0.1323207920332  0.5206496971525 1.0
C      1  0.7758266087828  0.6313968512609  0.7376311626901 1.0
C      1  0.2246684405592  0.6337223759215  0.7392422731505 1.0
C      1  0.7304034208743  0.2505578848837  0.6452684567400 1.0
C      1  0.2664890396239  0.2527462580459  0.6478264424800 1.0
C      1  0.3245837026415  0.4126985462577  0.3620022455350 1.0
C      1  0.6760091273729  0.4117579909553  0.3632789776987 1.0
C      1  0.3129572920453  0.2271916345575  0.5699664009703 1.0
C      1  0.6831233016012  0.2253414420708  0.5678021066459 1.0
C      1  0.5465407211673  0.6891460406997  0.4589228039255 1.0
C      1  0.4519844164226  0.6889178949852  0.4587761650616 1.0
C      1  0.6528379124058  0.7188749059520  0.5769940672132 1.0
C      1  0.3462167378973  0.7186413771004  0.5778492558366 1.0
C      1  0.3580372612394  0.2596179585816  0.2454904840704 1.0
C      1  0.6332896490714  0.2688996274776  0.2365978203976 1.0
C      1  0.6835683586454  0.4745822821824  0.6598303620224 1.0
C      1  0.3155545178024  0.4757580879914  0.6609141676004 1.0
C      1  0.5422655950182  0.2913266817005  0.4337401112135 1.0
C      1  0.4521104545811  0.2909494404666  0.4354749478043 1.0
C      1  0.8276238149941  0.4083429605591  0.5125794772430 1.0
C      1  0.1706387420461  0.4121141309283  0.5148221456842 1.0
C      1  0.2733759843638  0.5533794117522  0.6325622858135 1.0
C      1  0.7260117659470  0.5521920501661  0.6316028880683 1.0
C      1  0.2488258674097  0.4477816718775  0.4814779305187 1.0
C      1  0.7487754294628  0.4451027457892  0.4818669419123 1.0
C      1  0.1200342968912  0.6506052538472  0.5152898934480 1.0
C      1  0.8821184757551  0.6457225965200  0.5101077037997 1.0
C      1  0.2053821813626  0.5124516533000  0.3450863260372 1.0
C      1  0.7951717887961  0.5110173553540  0.3463136413546 1.0
C      1  0.6168878365436  0.6367047541097  0.4103491237356 1.0
C      1  0.3809104957049  0.6369417275364  0.4102073445278 1.0
C      1  0.1670444729481  0.3904896506477  0.6897269998420 1.0
C      1  0.8309527875750  0.3866567816176  0.6868961605587 1.0
C      1  0.6913648208073  0.2443283128894  0.7336149630393 1.0
C      1  0.3064037901431  0.2461303462619  0.7357271673388 1.0
C      1  0.5825386174058  0.1401870354673  0.4369314205835 1.0
C      1  0.4102158608240  0.1373826879537  0.4393179415434 1.0
C      1  0.2237696271350  0.3487109561419  0.2485995662466 1.0
C      1  0.7751049264422  0.3490091646378  0.2469105522221 1.0
C      1  0.3662881797472  0.7417593264941  0.7409611310088 1.0
C      1  0.6348327865603  0.7409625824233  0.7402512121530 1.0
C      1  0.5925550006675  0.6489519366820  0.3157784367624 1.0
C      1  0.4032690367027  0.6489611077695  0.3137408548610 1.0
C      1  0.5478670257983  0.8386370530998  0.4911123682163 1.0
C      1  0.4499602030848  0.8384337244527  0.4930230586646 1.0
C      1  0.5990114000407  0.8130975576735  0.3239540375756 1.0
C      1  0.3906490650433  0.8136421849780  0.3283793997300 1.0
C      1  0.6896736061400  0.7950583259514  0.3016773527299 1.0
C      1  0.3007616710442  0.7946484175145  0.3051757639747 1.0
C      1  0.4393651288439  0.7402650516634  0.2800409314850 1.0
C      1  0.5486356328513  0.7363374442305  0.2821841927884 1.0
C      1  0.5912636945964  0.7528940525959  0.5157487463807 1.0
C      1  0.4078640960030  0.7522474988911  0.5169367697603 1.0
C      1  0.7942604277546  0.5732893746786  0.2808315738268 1.0
C      1  0.2095537672927  0.5713410258057  0.2768980879989 1.0
C      1  0.4578647336024  0.7551591309802  0.7657286658383 1.0
C      1  0.5434369776348  0.7548615599364  0.7656785425121 1.0
C      1  0.7344401438893  0.7343392825010  0.2636786280899 1.0
C      1  0.2636951123478  0.7325820924473  0.2601988891669 1.0
C      1  0.2920768960112  0.4899001530191  0.1599251737500 1.0
C      1  0.7242803762302  0.4949403093518  0.1551841771706 1.0
C      1  0.6603960841728  0.2361464049582  0.3251969276812 1.0
C      1  0.3275043481409  0.2341441446721  0.3349010659700 1.0
C      1  0.3249183446023  0.6135301669466  0.5646950619865 1.0
C      1  0.6742204163514  0.6129900673715  0.5643194293289 1.0
C      1  0.4040265057507  0.4551835936219  0.3483326533484 1.0
C      1  0.5984916672978  0.4563275447549  0.3501755287572 1.0
C      1  0.2642720767442  0.2811047083914  0.4866090175971 1.0
C      1  0.7308392982196  0.2780975277541  0.4831102740940 1.0
C      1  0.7527868689175  0.5705226512785  0.1902952511261 1.0
C      1  0.2542076803720  0.5645559516571  0.1885099724833 1.0
C      1  0.4549429181296  0.6059526164438  0.6636063927477 1.0
C      1  0.5446007052512  0.6057487046628  0.6636099089941 1.0
C      1  0.8721533022151  0.7383618081249  0.4854033780260 1.0
C      1  0.1307385124237  0.7454268306200  0.5058231190356 1.0
C      1  0.3516644158557  0.5978528300685  0.8124664485142 1.0
C      1  0.6489382112625  0.5969947321951  0.8116046412149 1.0
C      1  0.2311170260983  0.6504121285205  0.2328352091181 1.0
C      1  0.7729672773509  0.6538250702863  0.2384706786260 1.0
C      1  0.4596853722269  0.6354745737237  0.1720346135009 1.0
C      1  0.5569951517166  0.6260334723466  0.1611507074559 1.0
C      1  0.3465931318370  0.8718320671621  0.6401587453945 1.0
C      1  0.6533287024919  0.8717292825631  0.6399699530077 1.0
C      1  0.4136781039467  0.3722127220073  0.4846383471448 1.0
C      1  0.5836395546577  0.3709913845258  0.4838796207911 1.0
C      1  0.7959566791288  0.3169840774466  0.3295527643104 1.0
C      1  0.1974994607763  0.3213222652677  0.3323572451820 1.0
C      1  0.4495352240218  0.4715419504523  0.7241797755770 1.0
C      1  0.5498974014105  0.4711536292114  0.7239612634469 1.0
C      1  0.4514660143866  0.2372266519240  0.2328598889622 1.0
C      1  0.5316049977022  0.2778427852291  0.2126452436870 1.0
C      1  0.7399993439894  0.2558155551486  0.3767615543843 1.0
C      1  0.2511657314735  0.2595598263698  0.3834293146433 1.0
C      1  0.5952990640961  0.2382505298878  0.7388732980612 1.0
C      1  0.4025121074579  0.2391357757293  0.7399454999057 1.0
C      1  0.3099160490728  0.4230937656529  0.7456014242990 1.0
C      1  0.6893451929734  0.4214809342566  0.7443495658869 1.0
C      1  0.4127415887889  0.5618808858193  0.5817633881431 1.0
C      1  0.5864214650502  0.5616132418659  0.5819429818284 1.0
C      1  0.5596716647028  0.4972268830630  0.2668796934554 1.0
C      1  0.4491402900376  0.4948844470156  0.2658117926647 1.0
C      1  0.5810977147436  0.4341174753709  0.1940927271590 1.0
C      1  0.4323809907964  0.4227465011981  0.1977843725450 1.0
C      1  0.3021294947644  0.3259874108782  0.1990653798423 1.0
C      1  0.6962965065040  0.3315182902406  0.1953388557465 1.0
C      1  0.4213435033157  0.5879825510502  0.2486198499728 1.0
C      1  0.5881134837065  0.5882691402081  0.2474357517876 1.0
C      1  0.8476116228041  0.5613144735418  0.5073647180241 1.0
C      1  0.1507328777888  0.5645554122010  0.5080281816469 1.0
C      1  0.8075717321837  0.5639030942042  0.6867182081965 1.0
C      1  0.1923990211160  0.5664959801289  0.6883319855365 1.0
C      1  0.1400808054664  0.4798112281357  0.6576911314991 1.0
C      1  0.8588522106997  0.4759719304076  0.6557867606586 1.0
C      1  0.3766033037509  0.5711939080226  0.9022316206713 1.0
C      1  0.6243503297037  0.5703322827127  0.9014222965423 1.0
C      1  0.5494216197509  0.4548564926428  0.4351220460318 1.0
C      1  0.4503128497219  0.4548882766804  0.4347192198309 1.0
C      1  0.4073942197805  0.4664659763901  0.6287377681693 1.0
C      1  0.5914904874307  0.4658496668303  0.6283871935529 1.0
C      1  0.5798727130611  0.5639793749505  0.7500554328431 1.0
C      1  0.4199377157487  0.5644720203623  0.7503437839427 1.0
C      1  0.4470890484032  0.8530714342144  0.3940021291989 1.0
C      1  0.5458515551810  0.8529838722294  0.3918786265249 1.0
C      1  0.4555348130956  0.5354435842685  0.4976676228725 1.0
C      1  0.5437258156881  0.5350721214292  0.4980531195439 1.0
C      1  0.6691726625040  0.4206925073663  0.1625033504023 1.0
C      1  0.3415833130152  0.4115886672487  0.1683049924574 1.0
C      1  0.3434097457238  0.7812621106199  0.6528329487194 1.0
C      1  0.6565428180805  0.7811013660481  0.6520529902831 1.0
C      1  0.5480059534421  0.5825967595978  0.8476511470755 1.0
C      1  0.4526214601078  0.5830159206515  0.8480364207158 1.0
C      1  0.2331705966025  0.4173494304682  0.3218987204907 1.0
C      1  0.7670234875085  0.4161887716717  0.3220827928298 1.0
C      1  0.6983121913467  0.6713140685339  0.7701760182752 1.0
C      1  0.3026721683899  0.6725461475523  0.7713858788336 1.0
C      1  0.6899478211875  0.6035497519505  0.4614462857893 1.0
C      1  0.3083601624703  0.6047470594099  0.4614533812765 1.0
C      1  0.3162772690445  0.3793336608606  0.4595424155856 1.0
C      1  0.6814661762052  0.3759173520115  0.4597510633052 1.0
C      1  0.4425298688021  0.7312228691021  0.1740749540437 1.0
C      1  0.5385731147101  0.7170997899531  0.1841385640438 1.0
C      1  0.3982366757738  0.1792899338958  0.5881617747768 1.0
C      1  0.5981010193771  0.1781218428799  0.5870687258293 1.0
C      1  0.5484602347199  0.1958252177853  0.6678545615373 1.0
C      1  0.4485871069461  0.1964543687127  0.6683860027895 1.0
C      1  0.9536545318256  0.7058988628475  0.5185162857601 1.0
C      1  0.0461726873369  0.7088510414728  0.5218470233953 1.0
C      1  0.5123126605545  0.3712847880730  0.1905547222741 1.0
END
