TITL C-10108-9725-13 -11.541 3375.00 -2827.03538767 0 0 341 (C1) n - 1
REM
REM Run started: at 2020.12.14 04:30:34 in /gpfs/home/chem/mssmkc/CARBON/AIRSS/Generating-Clusters/Str-Search/Higher-Symm
REM VASP from code version vasp.5.4.4.18Apr17-6-g9f103f2a35 (build Oct 11 2019 16:45:47) gamma-only
REM
REM
REM
REM
REM ./C.cell (e5ae0387ce4d49c7c0135a1433873289)
REM AIRSS Version 0.9.1 bugfix July 2018 build 013d7b7c2542+ Fri, 06 Jul 2018 19:26:36 +0100
REM compiler GCC version 6.3.0
REM options -cpp -iprefix /gpfs/warwick/csc/orac/software/Core/GCCcore/6.3.0/bin/../lib/gcc/x86_64-pc-linux-gnu/6.3.0/ -mtune=generic -march=x86-64 -g -O0
REM seed 1527687236 -269108667 633150718 -1639774878 -1383392868 -376924054 1925023394 1348552543 1787025272 -742318031 -790306307 -1441094468
REM
REM C.POTCAR (d86ddea03c3ceb6dc662c8ad6801f873)
REM 
CELL 1.54180   15.00000   15.00000   15.00000   90.00000   90.00000   90.00000
LATT -1
SFAC C  
C      1  0.7074239664120  0.7509668835986  0.1543873144205 1.0
C      1  0.7375700115342  0.7204443331452  0.8436623874903 1.0
C      1  0.0816254222965  0.7483052730798  0.5233005140530 1.0
C      1  0.7001583944301  0.2551025326928  0.1404817247952 1.0
C      1  0.7386628266702  0.2787751219202  0.8726888067834 1.0
C      1  0.0805373249973  0.2382950153103  0.5178714689262 1.0
C      1  0.4878849856423  0.6909988416152  0.3943977451067 1.0
C      1  0.5314465304539  0.6017115737018  0.5388504014448 1.0
C      1  0.3965262723712  0.6798910749114  0.5327928221306 1.0
C      1  0.4925065663332  0.3056043025723  0.3946856742071 1.0
C      1  0.5315752158845  0.3945894114665  0.5388080342530 1.0
C      1  0.4024167876586  0.3057475439321  0.5376370252627 1.0
C      1  0.9288237375139  0.5431142617378  0.8003553894807 1.0
C      1  0.0616354007162  0.5190289906158  0.6827454346245 1.0
C      1  0.6173665281537  0.5632544345668  0.0361862487490 1.0
C      1  0.9223074199723  0.4482300378144  0.8005324316525 1.0
C      1  0.0628249714016  0.4277364976142  0.6907367658252 1.0
C      1  0.5963276970743  0.4081057823514  0.0166218743529 1.0
C      1  0.6526033800821  0.5612181847795  0.6422404644799 1.0
C      1  0.2942596983930  0.5350864120482  0.5382404708626 1.0
C      1  0.5493135974674  0.5476189438155  0.3148974894754 1.0
C      1  0.6497876215313  0.4541885723777  0.6372972338781 1.0
C      1  0.3008102174175  0.4344933410155  0.5413499379319 1.0
C      1  0.5448449784213  0.4452662425025  0.3159626694500 1.0
C      1  0.2569909015385  0.1585518451053  0.7721505089939 1.0
C      1  0.4512564931351  0.1837342985526  0.1129012234621 1.0
C      1  0.8734192696505  0.1539247344135  0.6079844181052 1.0
C      1  0.2588804071913  0.8121389053156  0.7699772760012 1.0
C      1  0.4521239336654  0.7315518922742  0.1067914514728 1.0
C      1  0.8802935341463  0.8533974198157  0.5984553714908 1.0
C      1  0.3612099994824  0.7477321299090  0.1141890297058 1.0
C      1  0.9396499690812  0.7943896113425  0.6412297449785 1.0
C      1  0.1906953972108  0.7607098522644  0.8108078143477 1.0
C      1  0.3987394100555  0.2278465310585  0.0633493965986 1.0
C      1  0.9398971946261  0.2065573700312  0.6461017087279 1.0
C      1  0.1994926788826  0.2173889383021  0.8146585203485 1.0
C      1  0.3603051555093  0.0441030965854  0.5173821030688 1.0
C      1  0.5609886664384  0.0501027673198  0.3966447011319 1.0
C      1  0.6028341261987  0.0443623524434  0.6258769359149 1.0
C      1  0.3615978870945  0.9424457714130  0.5186991017220 1.0
C      1  0.5609725090813  0.9483535739141  0.3968112602804 1.0
C      1  0.6040613951510  0.9445323059598  0.6255236642990 1.0
C      1  0.2330842199127  0.5828754937394  0.0405097266659 1.0
C      1  0.9415407827209  0.5951452208303  0.5487004912911 1.0
C      1  0.2181725936159  0.5409733551645  0.8782897160066 1.0
C      1  0.2206172499686  0.4912486293067  0.0465487935041 1.0
C      1  0.9376253324329  0.4080267977523  0.5492765666600 1.0
C      1  0.2225690213820  0.4454356140621  0.8835139890643 1.0
C      1  0.5235181594041  0.9036695741758  0.5745001196611 1.0
C      1  0.3976574600871  0.9006858027169  0.4322892773997 1.0
C      1  0.5830239664954  0.9074929997649  0.4859087096519 1.0
C      1  0.5235175336233  0.0844621859505  0.5725887783700 1.0
C      1  0.3945461606716  0.0889699050968  0.4330860415931 1.0
C      1  0.5843635741368  0.0884025092104  0.4861218924452 1.0
C      1  0.8153512834715  0.7605371035932  0.4097346842742 1.0
C      1  0.4298823638772  0.6884070087083  0.8575969094026 1.0
C      1  0.2245766282481  0.7220769392911  0.3395543823624 1.0
C      1  0.7948453480989  0.2633292873053  0.3671664297273 1.0
C      1  0.4649827576850  0.2975073108751  0.8150409721401 1.0
C      1  0.2751529567365  0.2475722295929  0.3044383751459 1.0
C      1  0.1433178307380  0.4320280163842  0.7524256214178 1.0
C      1  0.5020424991876  0.4422891724214  0.0307468825668 1.0
C      1  0.8997669467443  0.4477617004715  0.6995702899282 1.0
C      1  0.1348646173144  0.5363273040367  0.7493277601333 1.0
C      1  0.5088701684124  0.5493253081159  0.0309373058391 1.0
C      1  0.9181540634683  0.5505486570286  0.6980403717341 1.0
C      1  0.1585902337988  0.6852175382327  0.8264532030677 1.0
C      1  0.2903246514812  0.7001198436160  0.0772690394441 1.0
C      1  0.9451033453180  0.7148678408896  0.6613794653979 1.0
C      1  0.1721210803297  0.2931203096033  0.8372680184717 1.0
C      1  0.3933820408963  0.3137204486801  0.0314078067850 1.0
C      1  0.9410953511539  0.2892993952017  0.6589532418366 1.0
C      1  0.6462890443912  0.9098388854235  0.1613264918978 1.0
C      1  0.7637209331191  0.8783989920280  0.7917583511432 1.0
C      1  0.1315699587365  0.8845270092995  0.6175326018553 1.0
C      1  0.6495076008563  0.0935180215324  0.1631291085605 1.0
C      1  0.7555356752433  0.1183533312823  0.8047264304431 1.0
C      1  0.1263828461102  0.0983842641520  0.6064388154564 1.0
C      1  0.6433137618155  0.5892453755002  0.9433922444179 1.0
C      1  0.0276363282189  0.6155920148374  0.3996477568874 1.0
C      1  0.8633193400327  0.6854077690558  0.1508633418718 1.0
C      1  0.6381967809171  0.4195334064110  0.9309164302247 1.0
C      1  0.0252689650408  0.4071840157794  0.4112306629114 1.0
C      1  0.8363693758957  0.3480226193838  0.1455989427645 1.0
C      1  0.6226050163591  0.0764035837307  0.7225724371200 1.0
C      1  0.2672919152948  0.0759816413759  0.5388395480394 1.0
C      1  0.6244826404654  0.0896943008760  0.3264448167231 1.0
C      1  0.6240656301314  0.9126777926739  0.7230905429675 1.0
C      1  0.2677098478991  0.9109082763800  0.5397060305428 1.0
C      1  0.6232701593912  0.9117392758786  0.3258461901783 1.0
C      1  0.6357032284851  0.4033833188048  0.5454858988993 1.0
C      1  0.3784106280609  0.3893914763227  0.5857704878992 1.0
C      1  0.4629947197151  0.3947287089730  0.3449183225923 1.0
C      1  0.6364599370319  0.5988320437065  0.5460886934078 1.0
C      1  0.3712127536221  0.5931785192574  0.5793025240010 1.0
C      1  0.4704887381320  0.6034020367514  0.3403974173975 1.0
C      1  0.0906698019665  0.3554929612144  0.6391500776146 1.0
C      1  0.5658133020761  0.3180371219768  0.0636891908467 1.0
C      1  0.8404627340917  0.3992654474440  0.8181861401624 1.0
C      1  0.0693941287694  0.6071094853092  0.6335604497355 1.0
C      1  0.6025978724255  0.6579857227908  0.0715006495844 1.0
C      1  0.8501395987829  0.5970256746476  0.8087985254691 1.0
C      1  0.8718208991457  0.4600352063527  0.4985683382720 1.0
C      1  0.3194534646233  0.4372996750309  0.7248499341472 1.0
C      1  0.3760578413336  0.4581401050841  0.2059109782286 1.0
C      1  0.8678228474880  0.5507262018078  0.5042572641355 1.0
C      1  0.3162782437280  0.5290273753890  0.7168185644565 1.0
C      1  0.3837995797578  0.5624450120525  0.2009659956533 1.0
C      1  0.5709847266511  0.2019356526672  0.2259225380217 1.0
C      1  0.7565661559149  0.2325416129488  0.6971319303370 1.0
C      1  0.2252980559718  0.2200309424525  0.6103291739429 1.0
C      1  0.5683146131563  0.7942340458361  0.2231764632994 1.0
C      1  0.7707942627259  0.7689316085660  0.6794151227271 1.0
C      1  0.2241424977135  0.7549282629433  0.6108051457790 1.0
C      1  0.1683833508216  0.6409147392474  0.3080770839395 1.0
C      1  0.8283355725063  0.6028179464433  0.2723886063838 1.0
C      1  0.4823284916685  0.5986940776174  0.8679242347390 1.0
C      1  0.1454219740330  0.4288306160533  0.3035272653413 1.0
C      1  0.8439783619499  0.4402101732122  0.2606990355585 1.0
C      1  0.4992019588994  0.3905845233143  0.8575423449670 1.0
C      1  0.4685104346040  0.3615879960170  0.0818096872831 1.0
C      1  0.8077570439686  0.4264956952109  0.7363029256268 1.0
C      1  0.1796950922474  0.3724293388714  0.6750687627830 1.0
C      1  0.4998647931172  0.6422949396886  0.0882885218850 1.0
C      1  0.8279984532221  0.5836372595468  0.7208615258263 1.0
C      1  0.1639565969398  0.5985172890697  0.6720320811479 1.0
C      1  0.7069554312673  0.6386429945482  0.7841775730436 1.0
C      1  0.1626399714469  0.5924622907973  0.5078586705473 1.0
C      1  0.6347648137236  0.6049609106068  0.2196502967097 1.0
C      1  0.6382192950897  0.3987437725085  0.7679844729370 1.0
C      1  0.1796037607884  0.3684748984407  0.5079726056548 1.0
C      1  0.6165721928848  0.3783967236185  0.2187396032910 1.0
C      1  0.4201650766189  0.1969619970500  0.2727976570892 1.0
C      1  0.7286759282734  0.1398604365244  0.5487353489022 1.0
C      1  0.3728353135317  0.1738250141376  0.6684065279330 1.0
C      1  0.4126437175464  0.7393781464838  0.2592185722510 1.0
C      1  0.7303019286118  0.8576392973085  0.5421705802301 1.0
C      1  0.3836900826195  0.7703771047649  0.6808303238698 1.0
C      1  0.3044719754637  0.5865566565040  0.8721463857440 1.0
C      1  0.2268339810824  0.6359771392510  0.1279017695866 1.0
C      1  0.8900468877535  0.6912354786623  0.3935700189933 1.0
C      1  0.3117693486967  0.4036193980907  0.8979390044887 1.0
C      1  0.2144387659018  0.4257238117845  0.1275527801105 1.0
C      1  0.9382192739584  0.3773503464801  0.3704733027853 1.0
C      1  0.6658037520400  0.0539387935327  0.5444128412909 1.0
C      1  0.4397103501978  0.0386444543019  0.5788725590118 1.0
C      1  0.4599463384750  0.0422329989138  0.3838357114163 1.0
C      1  0.6665126352628  0.9408788302131  0.5417259121051 1.0
C      1  0.4388109812350  0.9483962743447  0.5828376511339 1.0
C      1  0.4606485468049  0.9518536250505  0.3833947473720 1.0
C      1  0.9273082472816  0.9669480219289  0.4872135255800 1.0
C      1  0.3356871980451  0.9445272340223  0.8507992796351 1.0
C      1  0.2690291650238  0.9395048920309  0.2058935308311 1.0
C      1  0.9379744666519  0.0508464901131  0.4893454822675 1.0
C      1  0.3351269870553  0.0278281279611  0.8465133007068 1.0
C      1  0.2713997068545  0.0276197324024  0.2051185009479 1.0
C      1  0.7126473885560  0.0484834477443  0.7665700721044 1.0
C      1  0.1982050652197  0.0415164730823  0.6070066673916 1.0
C      1  0.6190381617574  0.0472042935679  0.2353595239589 1.0
C      1  0.7146550880272  0.9478042392436  0.7637116795401 1.0
C      1  0.1994242188725  0.9445862703986  0.6090657585792 1.0
C      1  0.6169034943527  0.9545873769434  0.2350203269417 1.0
C      1  0.5916415648627  0.2554096642818  0.9936973329759 1.0
C      1  0.0677544577164  0.2887852152567  0.2970254486948 1.0
C      1  0.8961355154762  0.3107648245474  0.2185505620366 1.0
C      1  0.6297347149683  0.6940786388532  0.9743168565500 1.0
C      1  0.0272373524484  0.7362960977573  0.2873772872852 1.0
C      1  0.9237727247259  0.7289961923799  0.2358440700987 1.0
C      1  0.3950253253111  0.1792283941325  0.4308416746642 1.0
C      1  0.5795470909139  0.1920484800364  0.4857158844545 1.0
C      1  0.5122392205823  0.1863573898208  0.5710943445602 1.0
C      1  0.3898507279533  0.8123795454262  0.4269286060224 1.0
C      1  0.5786739504385  0.8035789677818  0.4838222284424 1.0
C      1  0.5136662362543  0.8000012476018  0.5701983707958 1.0
C      1  0.6454491877481  0.3374407893143  0.1332514830914 1.0
C      1  0.7773186188625  0.3690866743585  0.8840422508342 1.0
C      1  0.0852899876970  0.3364551464615  0.5417818912045 1.0
C      1  0.6585726375659  0.6682847458234  0.1520034280891 1.0
C      1  0.7738300074411  0.6201398340538  0.8610386808328 1.0
C      1  0.0841681600361  0.6463592621246  0.5384321077651 1.0
C      1  0.4815906048719  0.1901642361406  0.2028127400079 1.0
C      1  0.7836651644177  0.1631564261550  0.6303352956235 1.0
C      1  0.2781654688585  0.1737422662668  0.6799502563450 1.0
C      1  0.4877989615655  0.7671181803241  0.1951966276042 1.0
C      1  0.7918004220074  0.8416455553794  0.6190944410638 1.0
C      1  0.2821076881214  0.7861400018390  0.6841829638457 1.0
C      1  0.1113820752623  0.2194985890958  0.3475966408677 1.0
C      1  0.8477249907528  0.2288103893510  0.2262811900742 1.0
C      1  0.5710359933517  0.2222562479050  0.9108560706157 1.0
C      1  0.0811696609455  0.8016958584645  0.3511354748979 1.0
C      1  0.8455785832056  0.7950862203047  0.2394970260268 1.0
C      1  0.5808654446311  0.7533008175681  0.9060363163823 1.0
C      1  0.6563686119059  0.7805136470937  0.5485806577921 1.0
C      1  0.4197407480052  0.7665230891382  0.5853084557287 1.0
C      1  0.4013872546329  0.7428320116097  0.3603759033088 1.0
C      1  0.6531952150633  0.2169472247497  0.5530823930774 1.0
C      1  0.4183576793020  0.2142070921783  0.5884343031734 1.0
C      1  0.4366375126673  0.2290082042956  0.3634890904995 1.0
C      1  0.5852063507735  0.8202234561568  0.7171927807734 1.0
C      1  0.2622786826472  0.8094525944115  0.5200175360185 1.0
C      1  0.5914538464100  0.8134845874118  0.3181605388625 1.0
C      1  0.5833895948431  0.1672553885687  0.7161166903041 1.0
C      1  0.2650074162102  0.1775837567948  0.5198061899448 1.0
C      1  0.5980269491210  0.1869567129797  0.3190471096685 1.0
C      1  0.1035110471013  0.6811578184707  0.2382170596600 1.0
C      1  0.8808150356478  0.6713785523926  0.2987392974815 1.0
C      1  0.4686195349866  0.5381639032897  0.9422742375016 1.0
C      1  0.1151393891769  0.3563570711683  0.2436411647535 1.0
C      1  0.9126199386809  0.3807460228066  0.2782916828242 1.0
C      1  0.4711885037876  0.4469266173524  0.9382373782362 1.0
C      1  0.7006385435542  0.6888967352282  0.5413991732027 1.0
C      1  0.3290788006499  0.6162090097362  0.6693249199771 1.0
C      1  0.4308444167420  0.6365106841064  0.2533779297540 1.0
C      1  0.6797965155268  0.3117652091611  0.5738668020561 1.0
C      1  0.3438165815174  0.3547330062778  0.6752413989637 1.0
C      1  0.4021481957951  0.3731369724806  0.2632920021706 1.0
C      1  0.4567970277329  0.4477405635151  0.7875762635247 1.0
C      1  0.2347721921189  0.4680963524262  0.2920184049984 1.0
C      1  0.7959561610667  0.4644041784244  0.3470440205998 1.0
C      1  0.4522592475732  0.5473219537709  0.7868657411880 1.0
C      1  0.2443379075161  0.5717630920955  0.2911382128808 1.0
C      1  0.7891857669714  0.5630427356343  0.3555629151508 1.0
C      1  0.5028832927123  0.7673784521597  0.8590579023521 1.0
C      1  0.1764993738606  0.8027342856432  0.3578374090078 1.0
C      1  0.8082178998029  0.8188294791975  0.3267314279666 1.0
C      1  0.5038328244533  0.2173634965669  0.8414162769235 1.0
C      1  0.2010630531657  0.2008678082605  0.3539831310755 1.0
C      1  0.8162016163200  0.1919035877036  0.3185423979951 1.0
C      1  0.6462997890980  0.1839607004205  0.1658334711511 1.0
C      1  0.7575720378707  0.2116424787665  0.7937644757367 1.0
C      1  0.1309173927874  0.1858833358767  0.5846823667289 1.0
C      1  0.6453803920540  0.8190264376412  0.1645876644428 1.0
C      1  0.7714559110775  0.7885027498384  0.7767716376603 1.0
C      1  0.1334417478950  0.7976450905717  0.5899250763091 1.0
C      1  0.2249141233807  0.3914932037201  0.5889299833079 1.0
C      1  0.5385462265391  0.4388459529999  0.2129338623396 1.0
C      1  0.7187182245018  0.4021654110766  0.7026358342129 1.0
C      1  0.2128653073249  0.5727907682794  0.5870354379694 1.0
C      1  0.5513753471477  0.5447473550362  0.2120647893606 1.0
C      1  0.7375832590179  0.6121755905358  0.6892132727211 1.0
C      1  0.5461046026584  0.0393503784020  0.7800870699131 1.0
C      1  0.2219952888810  0.0478236269998  0.4519539958530 1.0
C      1  0.7153592563500  0.0509760653253  0.3537520235972 1.0
C      1  0.5464453844986  0.9465616579871  0.7808567896105 1.0
C      1  0.2203333534877  0.9436644391709  0.4547667942065 1.0
C      1  0.7147577638416  0.9589016828080  0.3535064009075 1.0
C      1  0.1071883213548  0.4509795761781  0.3829914818531 1.0
C      1  0.8122376307149  0.4389465350356  0.1696203584447 1.0
C      1  0.5979038387153  0.3968470768593  0.8542531176684 1.0
C      1  0.1109536407828  0.5968668326136  0.3725501236451 1.0
C      1  0.8186286320768  0.5997197892425  0.1774676132063 1.0
C      1  0.5791881351460  0.6005867903125  0.8700706971363 1.0
C      1  0.3372092041256  0.6601221758394  0.9125627495178 1.0
C      1  0.1397836684547  0.6750343063793  0.1573160470333 1.0
C      1  0.9912023252314  0.7039405287951  0.3833906526724 1.0
C      1  0.3227836571595  0.3656707796149  0.9833483388746 1.0
C      1  0.1384119271280  0.3732949689923  0.1571076206436 1.0
C      1  0.0134620390754  0.3087739159292  0.3775039898343 1.0
C      1  0.2890677111062  0.6548279814510  0.9980866921067 1.0
C      1  0.9649770119443  0.6224951287373  0.6433343363095 1.0
C      1  0.1516571937233  0.5912891091895  0.8323171410721 1.0
C      1  0.2549597339420  0.4079295615889  0.0364204477649 1.0
C      1  0.9243727820310  0.3766720534912  0.6381393999200 1.0
C      1  0.1648405953561  0.3858177115992  0.8383726671276 1.0
C      1  0.0141759422933  0.3912697150746  0.5053567953816 1.0
C      1  0.6649394657714  0.4205925370530  0.0822242988659 1.0
C      1  0.7300542038994  0.4507384697120  0.9174562279276 1.0
C      1  0.0097640201245  0.6051724255597  0.4929769897624 1.0
C      1  0.6913614089122  0.5075119344694  0.0872686374849 1.0
C      1  0.7302278040588  0.5484559654246  0.9136394999687 1.0
C      1  0.4116339978563  0.8407915162113  0.7468331793325 1.0
C      1  0.3443943015110  0.7853228908713  0.2027661768298 1.0
C      1  0.8002730024916  0.8542184273636  0.4632330108914 1.0
C      1  0.4083598943633  0.1358964572956  0.7465946090385 1.0
C      1  0.3272248391853  0.1821157154955  0.2582666129250 1.0
C      1  0.7985684479580  0.1300133812738  0.4710393085321 1.0
C      1  0.3179912893741  0.3314664895229  0.3086046342594 1.0
C      1  0.7755487493517  0.3394354623869  0.4047285010563 1.0
C      1  0.4327318345450  0.3213230186054  0.7217366565278 1.0
C      1  0.3099991648287  0.6942405675790  0.3624767145516 1.0
C      1  0.7517052715430  0.6777348001165  0.4472744436023 1.0
C      1  0.4034477154223  0.6730333351853  0.7197122865973 1.0
C      1  0.5047824684826  0.8432239552334  0.7808519934880 1.0
C      1  0.2116204073256  0.8533251745985  0.4311784206809 1.0
C      1  0.7784636345944  0.8917587408753  0.3733903446624 1.0
C      1  0.5025156918047  0.1378367201363  0.7754255006236 1.0
C      1  0.2217094510705  0.1401680048515  0.4282175143462 1.0
C      1  0.7863505566700  0.1135985176187  0.3767027230303 1.0
C      1  0.6357595397870  0.5970477311456  0.3132603959424 1.0
C      1  0.5798620418536  0.6025549025054  0.7048176756564 1.0
C      1  0.2478616291499  0.5663296894806  0.4507781815427 1.0
C      1  0.6342948746810  0.3989415668236  0.3077194723938 1.0
C      1  0.5826659949622  0.4146430589700  0.7003216290057 1.0
C      1  0.2543663900498  0.3934195651509  0.4574628770173 1.0
C      1  0.2950295621928  0.4110462652721  0.3666339555569 1.0
C      1  0.7069903627132  0.4090614641829  0.3763864084582 1.0
C      1  0.4866924397702  0.4064052109456  0.6983694515966 1.0
C      1  0.3051271444303  0.5958877959111  0.3721017566778 1.0
C      1  0.6993727021967  0.6021729940091  0.3887657394548 1.0
C      1  0.4809057004366  0.5958074966202  0.6998499582593 1.0
C      1  0.3363976279088  0.1108575656916  0.8065504055594 1.0
C      1  0.2913334318685  0.1066117285657  0.2204573172019 1.0
C      1  0.8807829830882  0.1182307197649  0.5165075543849 1.0
C      1  0.3377140750163  0.8663583842879  0.7997864714468 1.0
C      1  0.2989551464567  0.8619164171776  0.2140166366130 1.0
C      1  0.8842068795162  0.8915852416727  0.5087487064074 1.0
C      1  0.6741476318373  0.7561119044351  0.9127496521991 1.0
C      1  0.0459357689049  0.7703222035071  0.4376798979041 1.0
C      1  0.8020173347988  0.7584946235557  0.1632914356521 1.0
C      1  0.6597411746639  0.2509705654720  0.9229548464502 1.0
C      1  0.0551552053320  0.2317703386495  0.4289385300031 1.0
C      1  0.7898514678839  0.2636463450051  0.1517136827681 1.0
C      1  0.7479988451857  0.6923358931552  0.6335012741567 1.0
C      1  0.2386687613706  0.6552187398997  0.6382918034677 1.0
C      1  0.4761759132672  0.5978277766961  0.1752906827887 1.0
C      1  0.7256080220612  0.3133644859327  0.6554298640400 1.0
C      1  0.2526107401611  0.3128031806556  0.6453269108873 1.0
C      1  0.4508412485098  0.3968434137042  0.1764456866618 1.0
C      1  0.3525675622095  0.5404298108617  0.8054298778720 1.0
C      1  0.2813372226830  0.5724785513323  0.1952499516737 1.0
C      1  0.8336477425039  0.6121511742900  0.4351535979116 1.0
C      1  0.3572250620498  0.4374953098440  0.8157018000901 1.0
C      1  0.2748420331203  0.4663632344552  0.1973252192776 1.0
C      1  0.8505774709320  0.4082255783683  0.4168775330488 1.0
C      1  0.6710101945595  0.4539256907604  0.4627075437052 1.0
C      1  0.4652540559723  0.4415003556648  0.6049884811256 1.0
C      1  0.3888436891793  0.4560657794229  0.3812066786431 1.0
C      1  0.6682570216077  0.5441949629151  0.4665503105420 1.0
C      1  0.4640905080298  0.5524614253160  0.6046416389012 1.0
C      1  0.3929918659374  0.5469231742660  0.3764606533111 1.0
C      1  0.5839101775790  0.2090234887425  0.6338531578945 1.0
C      1  0.3564125934841  0.2209555021678  0.5083264605743 1.0
C      1  0.5683261676215  0.2339726941492  0.3930207711379 1.0
C      1  0.5883810821566  0.7788701493143  0.6333594687022 1.0
C      1  0.3543924468901  0.7698386630277  0.5079284188910 1.0
C      1  0.5625578943380  0.7645777548801  0.3911135496863 1.0
C      1  0.7725867911301  0.5213082228657  0.1362624984195 1.0
C      1  0.1534852822303  0.5298623523660  0.4301442709786 1.0
C      1  0.6173551292550  0.6143192005327  0.7882131718705 1.0
C      1  0.4829606337943  0.3340830688406  0.4892993608614 1.0
C      1  0.4803046311126  0.6557402762858  0.4863665390022 1.0
END
