TITL C-10682-722-227 -3.094 3375.00 -538.60906601 0 0 65 (C1) n - 1
REM
REM Run started: at 2020.12.30 21:22:37 in /gpfs/home/chem/mssmkc/CARBON/AIRSS/Generating-Clusters/Str-Search/Higher-Symm/C4-100
REM VASP from code version vasp.5.4.4.18Apr17-6-g9f103f2a35 (build Oct 11 2019 16:45:47) gamma-only
REM
REM
REM
REM
REM ./C.cell (6bd13a13d554368a30d355f37ece5b26)
REM AIRSS Version 0.9.1 bugfix July 2018 build 013d7b7c2542+ Fri, 06 Jul 2018 19:26:36 +0100
REM compiler GCC version 6.3.0
REM options -cpp -iprefix /gpfs/warwick/csc/orac/software/Core/GCCcore/6.3.0/bin/../lib/gcc/x86_64-pc-linux-gnu/6.3.0/ -mtune=generic -march=x86-64 -g -O0
REM seed 1032447850 73257648 -1932660386 906053334 -644068171 -1975037672 1650160531 209843304 617926496 1401254117 -953024612 -1167664795
REM
REM C.POTCAR (d86ddea03c3ceb6dc662c8ad6801f873)
REM 
CELL 1.54180   15.00000   15.00000   15.00000   90.00000   90.00000   90.00000
LATT -1
SFAC C  
C      1  0.6007715316996  0.6222142264626  0.6493100863627 1.0
C      1  0.2813150615318  0.5085578474101  0.6860779249342 1.0
C      1  0.5738225153799  0.3454480779430  0.6641067494017 1.0
C      1  0.3120879291710  0.5715171508660  0.7310614253978 1.0
C      1  0.5920133323050  0.4350844419845  0.6975516278525 1.0
C      1  0.5270299382782  0.5983771101725  0.7008410312860 1.0
C      1  0.4685075461545  0.7951051624652  0.4694566266938 1.0
C      1  0.3265583842813  0.3721234744223  0.4633327525163 1.0
C      1  0.7500071690454  0.3805794456493  0.4322807738321 1.0
C      1  0.6389500340301  0.3253906147039  0.5945915321858 1.0
C      1  0.5747133573756  0.6911731919792  0.5847331133444 1.0
C      1  0.2812202977678  0.4590572879579  0.6071990248792 1.0
C      1  0.6080663876971  0.2697989684489  0.5211513686383 1.0
C      1  0.6102984570502  0.6836466730423  0.4953358010807 1.0
C      1  0.2753921412221  0.5148404613957  0.5269140922199 1.0
C      1  0.3328226249500  0.3744220477683  0.6118936514963 1.0
C      1  0.7003641353963  0.4007229972953  0.5905503899657 1.0
C      1  0.4842534247743  0.7152071113521  0.6054407552259 1.0
C      1  0.6897878860545  0.6365955576243  0.4871173765294 1.0
C      1  0.2659728880051  0.6095858760951  0.5358305356323 1.0
C      1  0.5328486760679  0.2164634701728  0.5331267866958 1.0
C      1  0.4665955659774  0.2387809713889  0.4635863007473 1.0
C      1  0.7212891471651  0.5645883965871  0.4300781550361 1.0
C      1  0.2911556505775  0.6755239742100  0.4715846531457 1.0
C      1  0.5043582206974  0.3020141432435  0.4027428853418 1.0
C      1  0.6722249843255  0.5074741648376  0.3695635318201 1.0
C      1  0.3246426272422  0.6647792263384  0.3866667965109 1.0
C      1  0.4247217352443  0.7610400764310  0.5452684551269 1.0
C      1  0.3332362499975  0.3149467914932  0.5363559362845 1.0
C      1  0.7548027984555  0.4266444738451  0.5168200776717 1.0
C      1  0.4392733633873  0.5070933378933  0.4833400512086 1.0
C      1  0.5816155031540  0.4971697071880  0.3778526288591 1.0
C      1  0.4901579025267  0.6371308177050  0.3838181576499 1.0
C      1  0.4150530444082  0.3764741446078  0.6586978946395 1.0
C      1  0.6672779346184  0.4684931840559  0.6534648409598 1.0
C      1  0.4522689854153  0.6563497896653  0.6765180216919 1.0
C      1  0.7667231899637  0.5198968162531  0.5037129568573 1.0
C      1  0.3346046695575  0.7314742358821  0.5449579160929 1.0
C      1  0.3971936871885  0.2464134726229  0.5318265465702 1.0
C      1  0.6750166833905  0.5629560700040  0.6332594321030 1.0
C      1  0.3585504191814  0.6409348798560  0.6838118594853 1.0
C      1  0.4829834177604  0.3094102437607  0.6577420548232 1.0
C      1  0.6760346226232  0.3386479096388  0.3900019298690 1.0
C      1  0.5306298072405  0.8013068302653  0.4112930256298 1.0
C      1  0.3671007713903  0.3976831362780  0.3873341318385 1.0
C      1  0.4656615649189  0.2355204766195  0.6006889850314 1.0
C      1  0.7293112101040  0.5869508833109  0.5626287840060 1.0
C      1  0.3064155543278  0.6698395821798  0.6087844764223 1.0
C      1  0.4043280397856  0.6623537232164  0.3607551740232 1.0
C      1  0.4575225076637  0.3779185790321  0.3647459061793 1.0
C      1  0.7143155809106  0.4210097798621  0.3565362637515 1.0
C      1  0.3399027615975  0.4719606328039  0.4595204058813 1.0
C      1  0.6017815558499  0.3018817900888  0.4266261088844 1.0
C      1  0.5471484291919  0.7043679021534  0.4202195271205 1.0
C      1  0.4851706425845  0.4896351736137  0.1581816500748 1.0
C      1  0.5154084636105  0.4998171789298  0.7250987364804 1.0
C      1  0.4779027395305  0.4962006020249  0.9874723800106 1.0
C      1  0.4989477686567  0.5392931575073  0.4061505329030 1.0
C      1  0.4521268828339  0.4666534099673  0.6531202033132 1.0
C      1  0.4797937731388  0.4969573339783  0.0696893635663 1.0
C      1  0.4594730834918  0.4980931929650  0.5686936910196 1.0
C      1  0.4889239639173  0.4898156220798  0.8172401759915 1.0
C      1  0.4933139085706  0.4790963768400  0.2389576822395 1.0
C      1  0.5049580256336  0.4596317236012  0.3303915478981 1.0
C      1  0.4820302439562  0.4933109899634  0.8985897390690 1.0
END
