TITL C-109227-33-4 -8.075 3375.00 -1471.16538472 0 0 180 (Ci) n - 1
REM
REM Run started: at 2020.12.24 15:52:28 in /rds/project/t2_vol4/rds-t2-cs072/BORA/CARBON/AIRSS/Generating-Clusters/Str-Search/Higher-Symm/Only-C180
REM VASP from code version vasp.5.4.4.18Apr17-6-g9f103f2a35 (build Oct 11 2019 16:45:47) gamma-only
REM
REM
REM
REM
REM ./C.cell (f712cfaf3acf65fd2d5dcba0fd1fd40b)
REM AIRSS Version 0.9.1 bugfix July 2018 build 013d7b7c2542+ Fri, 06 Jul 2018 19:26:36 +0100
REM compiler GCC version 4.8.5 20150623 (Red Hat 4.8.5-39)
REM options -cpp -mtune=generic -march=x86-64 -g -O0
REM seed -276947568 842626963 1382448398 -1356610651 -1802854198 -1281047723 1452556667 919228016 389260596 1815217722 -1006430173 179919301
REM
REM C.POTCAR (d86ddea03c3ceb6dc662c8ad6801f873)
REM 
CELL 1.54180   15.00000   15.00000   15.00000   90.00000   90.00000   90.00000
LATT -1
SFAC C  
C      1  0.5072774589186  0.5472944833350  0.5897831537195 1.0
C      1  0.4927240724138  0.4527049702645  0.4102186900882 1.0
C      1  0.5620894261161  0.4510251727746  0.9392081747900 1.0
C      1  0.4379106430159  0.5489773262559  0.0607898289846 1.0
C      1  0.3066955661980  0.2379955535536  0.4623351514044 1.0
C      1  0.6933050558533  0.7620029421066  0.5376631081210 1.0
C      1  0.4059442133780  0.3031410800535  0.2022332584405 1.0
C      1  0.5940572289516  0.6968590055388  0.7977659358485 1.0
C      1  0.7395750648508  0.2938440184889  0.3770943753538 1.0
C      1  0.2604262706059  0.7061539406258  0.6229065504823 1.0
C      1  0.4566819033019  0.5896031585809  0.2767621447925 1.0
C      1  0.5433212396919  0.4103950242102  0.7232382730965 1.0
C      1  0.3140332991736  0.4332981824577  0.6050714464488 1.0
C      1  0.6859666218759  0.5667032203571  0.3949294638097 1.0
C      1  0.5252500173570  0.2046013650782  0.3429846088485 1.0
C      1  0.4747518468475  0.7954001307620  0.6570152306606 1.0
C      1  0.5914323661761  0.1627939030922  0.6030300383041 1.0
C      1  0.4085667335347  0.8372035142122  0.3969693400846 1.0
C      1  0.6713044357371  0.8257816770565  0.3771850307153 1.0
C      1  0.3286926679786  0.1742166753462  0.6228189788260 1.0
C      1  0.7950458044574  0.7201432379124  0.4036808988570 1.0
C      1  0.2049531715221  0.2798567573530  0.5963182499569 1.0
C      1  0.6571521263562  0.8337570203925  0.2833288887041 1.0
C      1  0.3428488001438  0.1662493875480  0.7166742807666 1.0
C      1  0.4357818787449  0.8056428589672  0.2674002653501 1.0
C      1  0.5642151753656  0.1943548290825  0.7325983963071 1.0
C      1  0.6591276366752  0.5990267718922  0.4941738071860 1.0
C      1  0.3408731170988  0.4009733216829  0.5058273143214 1.0
C      1  0.1013112579901  0.4797012730919  0.4671223616457 1.0
C      1  0.8986907900747  0.5202962681432  0.5328780735032 1.0
C      1  0.4919808016035  0.5878847277901  0.5071911951591 1.0
C      1  0.5080193336434  0.4121137204316  0.4928107806420 1.0
C      1  0.8035108663562  0.4873609818442  0.7470048674914 1.0
C      1  0.1964909562205  0.5126374248233  0.2529953332713 1.0
C      1  0.8811441385550  0.3741182465873  0.4387915447561 1.0
C      1  0.1188563691344  0.6258822624452  0.5612073346701 1.0
C      1  0.6569373846018  0.4557648696511  0.2474609796117 1.0
C      1  0.3430609109432  0.5442408748313  0.7525362992854 1.0
C      1  0.2869875473464  0.4005446215496  0.6965282140574 1.0
C      1  0.7130126596243  0.5994569388074  0.3034730418704 1.0
C      1  0.8171257717495  0.5853480336779  0.3054580457371 1.0
C      1  0.1828719785755  0.4146521542882  0.6945418143284 1.0
C      1  0.3124175337371  0.6560015357341  0.5528991099170 1.0
C      1  0.6875822211053  0.3439950860419  0.4471005338237 1.0
C      1  0.4207626865257  0.2084092309851  0.3358266751004 1.0
C      1  0.5792387605625  0.7915900174270  0.6641723574738 1.0
C      1  0.5465229114398  0.1810139899987  0.4364265892022 1.0
C      1  0.4534780700265  0.8189884150851  0.5635718816342 1.0
C      1  0.3055296506055  0.3351485398484  0.8820436660453 1.0
C      1  0.6944513466476  0.6648533634196  0.1179621096575 1.0
C      1  0.7574236747127  0.7170157646796  0.6032704938462 1.0
C      1  0.2425773673041  0.2829822499730  0.3967290037356 1.0
C      1  0.6412467652826  0.3858043174225  0.1893620974577 1.0
C      1  0.3587551487681  0.6141968850579  0.8106389872941 1.0
C      1  0.3891515698585  0.3890230945493  0.1643626727660 1.0
C      1  0.6108502879837  0.6109771939591  0.8356374658047 1.0
C      1  0.1096630521970  0.4309743190593  0.5471988797852 1.0
C      1  0.8903380487255  0.5690240669859  0.4528006243055 1.0
C      1  0.2713448133193  0.2205222786869  0.5614500188864 1.0
C      1  0.7286545322864  0.7794779627772  0.4385485430599 1.0
C      1  0.6814755117955  0.5439412684506  0.2280268638755 1.0
C      1  0.3185227037504  0.4560653917670  0.7719735263384 1.0
C      1  0.8269029465056  0.6631742596336  0.5680447522032 1.0
C      1  0.1730994252454  0.3368246204963  0.4319561967966 1.0
C      1  0.2839604221202  0.5725483843828  0.5271294472222 1.0
C      1  0.7160378488134  0.4274511212382  0.4728671877693 1.0
C      1  0.1167789524999  0.6486151832061  0.4117071607287 1.0
C      1  0.8832246810613  0.3513814066429  0.5882918150105 1.0
C      1  0.5487164897232  0.7306681423918  0.4778717676867 1.0
C      1  0.4512839179866  0.2693307611939  0.5221283905731 1.0
C      1  0.8024807475711  0.2359781990004  0.5071054696041 1.0
C      1  0.1975190715812  0.7640212588167  0.4928954923623 1.0
C      1  0.6558109055226  0.4168128360567  0.0983270225031 1.0
C      1  0.3441876829768  0.5831956524262  0.9016762669216 1.0
C      1  0.8316950759921  0.5646047232725  0.6904343817385 1.0
C      1  0.1683078060508  0.4353939887840  0.3095654011998 1.0
C      1  0.4713300862199  0.6737453021019  0.4631967957283 1.0
C      1  0.5286719201722  0.3262533180021  0.5368052216169 1.0
C      1  0.5913846954896  0.4616488269237  0.0341860369682 1.0
C      1  0.4086151570463  0.5383504246756  0.9658134199235 1.0
C      1  0.5364208502927  0.3521718117201  0.7983710849982 1.0
C      1  0.4635801544140  0.6478247979189  0.2016290809322 1.0
C      1  0.2918042499032  0.6511363696575  0.3154368747754 1.0
C      1  0.7081960048143  0.3488624352021  0.6845621726732 1.0
C      1  0.1028982740247  0.5797268302083  0.4738144918289 1.0
C      1  0.8971031643961  0.4202719998448  0.5261852176882 1.0
C      1  0.6160320414286  0.8160294488867  0.5813979166736 1.0
C      1  0.3839687412756  0.1839688594238  0.4186008134379 1.0
C      1  0.8439369211639  0.2765557256413  0.5795292554331 1.0
C      1  0.1560709376372  0.7234417603428  0.4204679019383 1.0
C      1  0.5007043618596  0.6831211151021  0.8297454569306 1.0
C      1  0.4992981397293  0.3168809051003  0.1702544061484 1.0
C      1  0.5849417931211  0.8450881037261  0.3455155824380 1.0
C      1  0.4150558729278  0.1549085090863  0.6544908110728 1.0
C      1  0.5934693059948  0.2452607018122  0.2861973706259 1.0
C      1  0.4065341451396  0.7547391246504  0.7138019331761 1.0
C      1  0.8304423229931  0.6507073158309  0.4696986976023 1.0
C      1  0.1695594047300  0.3492924214475  0.5303019317722 1.0
C      1  0.4974858330824  0.5258865878086  0.9197301309632 1.0
C      1  0.5025143171654  0.4741141934373  0.0802682628992 1.0
C      1  0.3152323680310  0.1859660351637  0.7988793230599 1.0
C      1  0.6847623983853  0.8140406664108  0.2011194627141 1.0
C      1  0.2612217936036  0.4520466710741  0.2165204460532 1.0
C      1  0.7387805700918  0.5479514029132  0.7834796587194 1.0
C      1  0.3712783124486  0.6981681746874  0.4791168171919 1.0
C      1  0.6287227935714  0.3018297834288  0.5208826446842 1.0
C      1  0.4120168792485  0.4510622537289  0.3539593376684 1.0
C      1  0.5879864982472  0.5489365216025  0.6460403900743 1.0
C      1  0.1518757738292  0.4812117622657  0.6259225479042 1.0
C      1  0.8481232657104  0.5187874147079  0.3740751899358 1.0
C      1  0.3706025104287  0.3080704923757  0.5007396384792 1.0
C      1  0.6293980443506  0.6919277160927  0.4992620600790 1.0
C      1  0.4124009685001  0.5081076870582  0.2737438855468 1.0
C      1  0.5876019630486  0.4918911509660  0.7262565135639 1.0
C      1  0.6344136445958  0.1411997051677  0.6842002754391 1.0
C      1  0.3655825890034  0.8587992388313  0.3157982712339 1.0
C      1  0.4721563516345  0.3985957308724  0.1206784964632 1.0
C      1  0.5278447184693  0.6014059394180  0.8793217745263 1.0
C      1  0.6478001731523  0.5355396033875  0.7940013197141 1.0
C      1  0.3522023315913  0.4644595099303  0.2060001938602 1.0
C      1  0.5389310775252  0.8140359490494  0.5235289147884 1.0
C      1  0.4610688313450  0.1859646147052  0.4764691114337 1.0
C      1  0.8277424955271  0.2955653907645  0.4296818366578 1.0
C      1  0.1722580241522  0.7044326646368  0.5703188114067 1.0
C      1  0.5477019475929  0.3831169783498  0.6269391959666 1.0
C      1  0.4523004166620  0.6168829424440  0.3730603623690 1.0
C      1  0.3170466561025  0.7680774371313  0.6813419583175 1.0
C      1  0.6829563853091  0.2319218749776  0.3186575775881 1.0
C      1  0.6536533621921  0.5370806036564  0.5752341765352 1.0
C      1  0.3463485949755  0.4629174522018  0.4247649580910 1.0
C      1  0.6340925712992  0.7346418662443  0.7218676935286 1.0
C      1  0.3659088601612  0.2653576192180  0.2781324983649 1.0
C      1  0.6518257820649  0.3671213851885  0.6041994158816 1.0
C      1  0.3481759911172  0.6328777831972  0.3957993028120 1.0
C      1  0.7248710893148  0.1759945656363  0.4835403403459 1.0
C      1  0.2751281677477  0.8240064127750  0.5164596148707 1.0
C      1  0.6355380997479  0.3145581083326  0.8390213411465 1.0
C      1  0.3644611287886  0.6854415675276  0.1609770567786 1.0
C      1  0.6839470146651  0.4508887305491  0.5588734038169 1.0
C      1  0.3160534821155  0.5491091663645  0.4411250494342 1.0
C      1  0.9374202715343  0.3754451395477  0.3089715786148 1.0
C      1  0.0625801991215  0.6245548151916  0.6910281267633 1.0
C      1  0.5643989983246  0.2584616469909  0.7956943006183 1.0
C      1  0.4355991632554  0.7415385888278  0.2043072110668 1.0
C      1  0.7653596640581  0.4034742722754  0.7359671009293 1.0
C      1  0.2346399062693  0.5965254016116  0.2640326543067 1.0
C      1  0.2437221090953  0.4984176505177  0.5754158561170 1.0
C      1  0.7562771172657  0.5015826850146  0.4245833684141 1.0
C      1  0.2856173024446  0.8065296028975  0.6080253442549 1.0
C      1  0.7143828871981  0.1934706035148  0.3919744953820 1.0
C      1  0.3271336694321  0.4970481184687  0.9260156139754 1.0
C      1  0.6728629399127  0.5029623334983  0.0739845218889 1.0
C      1  0.3150851105395  0.4243559676068  0.8654684539377 1.0
C      1  0.6849061032138  0.5756483504447  0.1345329797736 1.0
C      1  0.3737599032251  0.8047640900620  0.4867192565088 1.0
C      1  0.6262404711774  0.1952335796163  0.5132789959984 1.0
C      1  0.2766378345054  0.3009724489211  0.3081348087455 1.0
C      1  0.7233625545550  0.6990257608664  0.6918658251931 1.0
C      1  0.5092401041511  0.4555683544627  0.5735240381428 1.0
C      1  0.4907600859830  0.5444315828523  0.4264767497759 1.0
C      1  0.7505948435368  0.5900292740128  0.4660237395385 1.0
C      1  0.2494051406847  0.4099710248101  0.5339742116923 1.0
C      1  0.5756445477731  0.3806946236886  0.8840825349519 1.0
C      1  0.4243544519606  0.6193049130419  0.1159181967428 1.0
C      1  0.1094864503973  0.5684536290260  0.6421089206513 1.0
C      1  0.8905131632477  0.4315462306150  0.3578898042769 1.0
C      1  0.2294709716575  0.3729103822201  0.2659738037793 1.0
C      1  0.7705311202392  0.6270882883964  0.7340257975286 1.0
C      1  0.4200393620821  0.6912920170961  0.7859634846825 1.0
C      1  0.5799628908127  0.3087084812890  0.2140366392019 1.0
C      1  0.6915323130431  0.7419452573546  0.1541726321613 1.0
C      1  0.3084494198853  0.2580622104633  0.8458307084362 1.0
C      1  0.2951815473860  0.6590367545288  0.2231295848042 1.0
C      1  0.7048172822331  0.3409638670682  0.7768701173808 1.0
C      1  0.4919337728483  0.8248578374126  0.3458201600000 1.0
C      1  0.5080648943764  0.1751390000693  0.6541790359584 1.0
C      1  0.8640570742457  0.5805899461080  0.6051787639347 1.0
C      1  0.1359454134544  0.4194089086318  0.3948215291739 1.0
C      1  0.2141349862521  0.3311784387983  0.6801086185205 1.0
C      1  0.7858640982103  0.6688230242025  0.3198910782605 1.0
END
