TITL C-10682-722-76 -3.688 3375.00 -620.21975955 0 0 78 (C3i) n - 1
REM
REM Run started: at 2020.12.29 16:25:52 in /gpfs/home/chem/mssmkc/CARBON/AIRSS/Generating-Clusters/Str-Search/Higher-Symm/C4-100
REM VASP from code version vasp.5.4.4.18Apr17-6-g9f103f2a35 (build Oct 11 2019 16:45:47) gamma-only
REM
REM
REM
REM
REM ./C.cell (6bd13a13d554368a30d355f37ece5b26)
REM AIRSS Version 0.9.1 bugfix July 2018 build 013d7b7c2542+ Fri, 06 Jul 2018 19:26:36 +0100
REM compiler GCC version 6.3.0
REM options -cpp -iprefix /gpfs/warwick/csc/orac/software/Core/GCCcore/6.3.0/bin/../lib/gcc/x86_64-pc-linux-gnu/6.3.0/ -mtune=generic -march=x86-64 -g -O0
REM seed 1698371179 2088825262 1925296617 245220608 612865126 95322402 833474989 -1442549761 -1998930370 -520440198 -1959178859 -1345739104
REM
REM C.POTCAR (d86ddea03c3ceb6dc662c8ad6801f873)
REM 
CELL 1.54180   15.00000   15.00000   15.00000   90.00000   90.00000   90.00000
LATT -1
SFAC C  
C      1  0.7480468260009  0.5735670689316  0.2781160410407 1.0
C      1  0.2520873279508  0.7283938718459  0.4523153336239 1.0
C      1  0.7478072539495  0.6551311665645  0.6741705579691 1.0
C      1  0.2519535082314  0.4264329217716  0.7218837307883 1.0
C      1  0.7479129401547  0.2716057522313  0.5476846197195 1.0
C      1  0.2521933804772  0.3448689400076  0.3258296037692 1.0
C      1  0.6851536226636  0.5003782555518  0.3747617356999 1.0
C      1  0.3151161044221  0.6086712603294  0.4374899795432 1.0
C      1  0.6850797849895  0.6079931481333  0.5627088629123 1.0
C      1  0.3148463361550  0.4996215484522  0.6252384114190 1.0
C      1  0.6848838727193  0.3913287524035  0.5625100315085 1.0
C      1  0.3149201676194  0.3920064939550  0.4372910787045 1.0
C      1  0.3834754605372  0.4966182721261  0.5588371838880 1.0
C      1  0.6163289223175  0.4470160659265  0.5260985821744 1.0
C      1  0.3834581469465  0.4512377323524  0.4675599104883 1.0
C      1  0.6165243329875  0.5033814143519  0.4411628308491 1.0
C      1  0.3836709357810  0.5529838681022  0.4739014803375 1.0
C      1  0.6165416598333  0.5487621321585  0.5324398466147 1.0
C      1  0.5955681457083  0.3292430186593  0.3472059869391 1.0
C      1  0.4046142352626  0.5471001917630  0.2753402071532 1.0
C      1  0.5955933075864  0.7182208495965  0.4282740645157 1.0
C      1  0.4044319439130  0.6707568530757  0.6527940460516 1.0
C      1  0.5953860430057  0.4529002500504  0.7246601877079 1.0
C      1  0.4044068054218  0.2817789538924  0.5717258015898 1.0
C      1  0.7665818747397  0.5565170345260  0.3786505993708 1.0
C      1  0.2332333560958  0.6327612706052  0.4875853054665 1.0
C      1  0.7667504780965  0.5769033778798  0.6091350065616 1.0
C      1  0.2334179444560  0.4434828841610  0.6213495039475 1.0
C      1  0.7667664995499  0.3672386542581  0.5124145654590 1.0
C      1  0.2332494650003  0.4230963965438  0.3908649990402 1.0
C      1  0.6653551544482  0.2980145960241  0.3898719383213 1.0
C      1  0.3344921823238  0.4949588674814  0.2698695350367 1.0
C      1  0.6653203498199  0.6972804895718  0.3795950702182 1.0
C      1  0.3346444791938  0.7019854034222  0.6101278367172 1.0
C      1  0.6655085228246  0.5050419904909  0.7301306366151 1.0
C      1  0.3346792120617  0.3027194862428  0.6204050108855 1.0
C      1  0.4286753145930  0.6899136857331  0.3638202997034 1.0
C      1  0.5715611750217  0.7124993614904  0.5964321829593 1.0
C      1  0.4283146574137  0.5226369573787  0.7325994646318 1.0
C      1  0.5713246682720  0.3100868969981  0.6361801474694 1.0
C      1  0.4284389552244  0.2875004326802  0.4035679161461 1.0
C      1  0.5716854118208  0.4773632027540  0.2674006146148 1.0
C      1  0.5033524999252  0.6432932895767  0.6286237950532 1.0
C      1  0.4965014139479  0.4602315032300  0.6887812349760 1.0
C      1  0.5032250446877  0.3166428974454  0.5601048008091 1.0
C      1  0.4966474932555  0.3567065573244  0.3713761552191 1.0
C      1  0.5034983856842  0.5397691129476  0.3112185471794 1.0
C      1  0.4967749584260  0.6833570866249  0.4398953866531 1.0
C      1  0.2748379094234  0.4366849583641  0.2962550604938 1.0
C      1  0.7246353855510  0.6449615794239  0.3423377118664 1.0
C      1  0.2750464475340  0.7081292603595  0.5464906902320 1.0
C      1  0.7251623523921  0.5633155281574  0.7037449359693 1.0
C      1  0.2753643731898  0.3550380048067  0.6576620897378 1.0
C      1  0.7249533593996  0.2918706311589  0.4535095647328 1.0
C      1  0.5484342312208  0.3745863905786  0.7021404071998 1.0
C      1  0.4511561130928  0.2625690782070  0.4924358873827 1.0
C      1  0.5489016337276  0.3880799376708  0.2906552146277 1.0
C      1  0.4515660581038  0.6254144234322  0.2978589906826 1.0
C      1  0.5488439945781  0.7374308045246  0.5075642733137 1.0
C      1  0.4510983276951  0.6119200864575  0.7093446940457 1.0
C      1  0.6655455168640  0.3124517323392  0.6053468550084 1.0
C      1  0.3342622647701  0.3156078155174  0.3901207243690 1.0
C      1  0.6659383930028  0.5031133332887  0.2850033345254 1.0
C      1  0.3344543166737  0.6875482583702  0.3946529556422 1.0
C      1  0.6657376693316  0.6843916606462  0.6098795608886 1.0
C      1  0.3340614823920  0.4968868510462  0.7149967595901 1.0
C      1  0.5207827862963  0.4131318545012  0.5306479508408 1.0
C      1  0.4789475215594  0.4303007109558  0.4401500619841 1.0
C      1  0.5209526029101  0.5169438232023  0.4094725618593 1.0
C      1  0.4792171813302  0.5868680598187  0.4693520548927 1.0
C      1  0.5210524843835  0.5696992025624  0.5598498016096 1.0
C      1  0.4790473265316  0.4830561441373  0.5905273020127 1.0
C      1  0.1753178214367  0.4706248514054  0.4533647819389 1.0
C      1  0.8243500609079  0.5264403541892  0.4513531043695 1.0
C      1  0.1754934632347  0.5547371979512  0.4983645824808 1.0
C      1  0.8246820984320  0.5293749404405  0.5466352174332 1.0
C      1  0.1756498421856  0.4735596131302  0.5486469082011 1.0
C      1  0.8245064203337  0.4452626957337  0.5016352940074 1.0
END
