TITL C-10576-9345-6 -4.954 3375.00 -872.94421415 0 0 105 (C1) n - 1
REM
REM Run started: at 2020.12.13 10:22:04 in /gpfs/home/chem/mssmkc/CARBON/AIRSS/Generating-Clusters/Str-Search/Higher-Symm
REM VASP from code version vasp.5.4.4.18Apr17-6-g9f103f2a35 (build Oct 11 2019 16:45:47) gamma-only
REM
REM
REM
REM
REM ./C.cell (e5ae0387ce4d49c7c0135a1433873289)
REM AIRSS Version 0.9.1 bugfix July 2018 build 013d7b7c2542+ Fri, 06 Jul 2018 19:26:36 +0100
REM compiler GCC version 6.3.0
REM options -cpp -iprefix /gpfs/warwick/csc/orac/software/Core/GCCcore/6.3.0/bin/../lib/gcc/x86_64-pc-linux-gnu/6.3.0/ -mtune=generic -march=x86-64 -g -O0
REM seed -1220707703 1261182720 1082522860 714235632 1667942821 -359902055 1381410012 -692880609 -166015642 699529815 1445790140 1467375587
REM
REM C.POTCAR (d86ddea03c3ceb6dc662c8ad6801f873)
REM 
CELL 1.54180   15.00000   15.00000   15.00000   90.00000   90.00000   90.00000
LATT -1
SFAC C  
C      1  0.5606785406286  0.5561818994356  0.6562206132870 1.0
C      1  0.6484249272603  0.5394531175614  0.4951953760331 1.0
C      1  0.5803833056280  0.5260239719613  0.4167196073409 1.0
C      1  0.3923510170402  0.5247260338654  0.4737371653628 1.0
C      1  0.3787891121547  0.5393801203198  0.5760647463889 1.0
C      1  0.3634776021647  0.5413108966405  0.7787676008190 1.0
C      1  0.7257090755452  0.5321755453751  0.7079517398204 1.0
C      1  0.7800441773593  0.5474156814560  0.3446657723245 1.0
C      1  0.4434222430120  0.5341025796432  0.1971040531180 1.0
C      1  0.1828256477532  0.5446077126051  0.4546431387100 1.0
C      1  0.5363235464908  0.1703040059532  0.4239042173741 1.0
C      1  0.4442373197410  0.1703873281006  0.4320502617459 1.0
C      1  0.4231614557166  0.1665703182679  0.5280453165407 1.0
C      1  0.5038423569525  0.1682803531108  0.5802057918868 1.0
C      1  0.5735282150646  0.1651786312267  0.5143748599956 1.0
C      1  0.4477539348959  0.4622406954680  0.5795986556767 1.0
C      1  0.5395948484478  0.4736058391335  0.6071683282046 1.0
C      1  0.5954860631687  0.4607317643009  0.5317207552602 1.0
C      1  0.5402834983149  0.4484967917838  0.4521664495190 1.0
C      1  0.4479181779483  0.4493645277787  0.4826077769930 1.0
C      1  0.6996300240793  0.6952341607184  0.5908568555835 1.0
C      1  0.6494081208651  0.6904862836637  0.3348465972425 1.0
C      1  0.3964934581697  0.6836948368497  0.3089955407111 1.0
C      1  0.2877908368155  0.6920676137161  0.5362417909585 1.0
C      1  0.4723536734638  0.6989126802675  0.7205325787255 1.0
C      1  0.7656697984585  0.6120588738653  0.4154735014003 1.0
C      1  0.5103689607219  0.6030932007769  0.2200806962937 1.0
C      1  0.2354579372372  0.6090569100738  0.4012365095303 1.0
C      1  0.3345771262930  0.6083317363551  0.7149034015281 1.0
C      1  0.6477917142990  0.5952264472603  0.7075198844931 1.0
C      1  0.5120125425072  0.2155650973014  0.6576296525367 1.0
C      1  0.6452020087565  0.2244918898285  0.4889154500784 1.0
C      1  0.6083637488102  0.2286677179631  0.3959675037976 1.0
C      1  0.3685611590967  0.2272746986451  0.4166930287716 1.0
C      1  0.3480461741743  0.2239850702797  0.5155032389564 1.0
C      1  0.2926927065843  0.5651117669067  0.6364162740908 1.0
C      1  0.5675155889594  0.5733216445804  0.7576724101168 1.0
C      1  0.7537173296384  0.5655850095838  0.5022714342222 1.0
C      1  0.6004262560054  0.5804077475984  0.2190211033183 1.0
C      1  0.2638759197492  0.5827523341901  0.3157133919874 1.0
C      1  0.7141330008959  0.3406111420827  0.6120391946047 1.0
C      1  0.6890042477932  0.3609765242573  0.3259322527608 1.0
C      1  0.3864111541088  0.3517078052803  0.2867911219097 1.0
C      1  0.2360607549050  0.3484464318784  0.5257925174499 1.0
C      1  0.4491027570041  0.3483074669132  0.7512514267650 1.0
C      1  0.7573376746903  0.3850757198233  0.3890123012729 1.0
C      1  0.4730434389087  0.3732649660313  0.2488819958599 1.0
C      1  0.2161571037321  0.3783659957642  0.4366165734115 1.0
C      1  0.3605496678584  0.3746670603358  0.7226200583971 1.0
C      1  0.6737184805680  0.3674773694753  0.6963084197509 1.0
C      1  0.3807233183295  0.7000073343136  0.4068144276243 1.0
C      1  0.3754899658456  0.7100893330608  0.5862195072052 1.0
C      1  0.5458779370751  0.7175279852804  0.6487550121819 1.0
C      1  0.6553268796774  0.7118202435024  0.5002893075827 1.0
C      1  0.5514859707931  0.7008426710924  0.3543458777334 1.0
C      1  0.4747639128116  0.4482006858257  0.1918749403074 1.0
C      1  0.1729919848609  0.4602173966620  0.4231794964356 1.0
C      1  0.3330367107882  0.4558698704488  0.7607468661473 1.0
C      1  0.7120338628449  0.4463609821695  0.7298610384372 1.0
C      1  0.8054997122333  0.4639781880599  0.3776473645106 1.0
C      1  0.3058221841526  0.4107481706231  0.2922588204499 1.0
C      1  0.2381912668623  0.4031909502021  0.6073977097968 1.0
C      1  0.5225438072780  0.4068767045819  0.7801384417259 1.0
C      1  0.7751884334670  0.4009114204544  0.5576015628683 1.0
C      1  0.6415850004937  0.4113947006065  0.2576321741096 1.0
C      1  0.3466034845458  0.2934286093047  0.3560577263595 1.0
C      1  0.3019556705802  0.2891504291428  0.5638284876676 1.0
C      1  0.5160491581206  0.2830604554930  0.7120400897537 1.0
C      1  0.6981302528887  0.2892472347467  0.5288378623888 1.0
C      1  0.6168371724540  0.2962855170253  0.3335764901352 1.0
C      1  0.7286730801201  0.5600902860239  0.2669721512466 1.0
C      1  0.3540045840608  0.5531031682342  0.2154894504038 1.0
C      1  0.1846495990310  0.5571746158511  0.5499333082270 1.0
C      1  0.4486466510877  0.5597218415534  0.8182592114988 1.0
C      1  0.7872192729084  0.5530723022099  0.6362820564666 1.0
C      1  0.5300050638491  0.6283926987323  0.5917025581335 1.0
C      1  0.5915299925419  0.6259575337695  0.5085199810055 1.0
C      1  0.5332243479761  0.6146240811231  0.4234137744867 1.0
C      1  0.4349545423574  0.6144311617799  0.4530546086745 1.0
C      1  0.4334496371838  0.6248439938671  0.5568361068786 1.0
C      1  0.5827142416280  0.7800572319318  0.4962325632144 1.0
C      1  0.5264003532564  0.7729529645690  0.4196537565690 1.0
C      1  0.4354623757459  0.7724847192013  0.4495932390417 1.0
C      1  0.4346376316815  0.7796409284999  0.5450328212374 1.0
C      1  0.5257244661184  0.7827881277277  0.5748749307130 1.0
C      1  0.7555109563344  0.3504151057777  0.4786767763926 1.0
C      1  0.5640755923574  0.3487075658870  0.2692386393657 1.0
C      1  0.2713264003475  0.3539313826603  0.3634189802991 1.0
C      1  0.3053613613404  0.3444408958082  0.6476081378741 1.0
C      1  0.5880288399504  0.3475796197201  0.7361546311703 1.0
C      1  0.7047454636975  0.6852168792377  0.4130501379557 1.0
C      1  0.4861670351682  0.6748931131138  0.2814160899564 1.0
C      1  0.2884802264307  0.6810733833756  0.4429552213093 1.0
C      1  0.3824396236943  0.6863072027396  0.6862540766101 1.0
C      1  0.6434689250996  0.6895295644115  0.6657611888872 1.0
C      1  0.5219947191062  0.4971460529745  0.8048804833120 1.0
C      1  0.7962437663555  0.4908239669683  0.5609371918538 1.0
C      1  0.6569116609560  0.5002191197210  0.2306389561000 1.0
C      1  0.2896480206560  0.4990747216800  0.2663352561484 1.0
C      1  0.2229942466324  0.4934666208696  0.6142588258286 1.0
C      1  0.3319167049190  0.6304110276643  0.2675811900645 1.0
C      1  0.2381298257312  0.6272680730763  0.5807258525984 1.0
C      1  0.4970222584646  0.6366609587985  0.7851692931398 1.0
C      1  0.7618902013956  0.6252159579862  0.5820954379184 1.0
C      1  0.6685031152777  0.6343097336065  0.2632406790711 1.0
END
