TITL C-100826-1855-4 -2.735 3375.00 -479.11781308 0 0 60 (C2) n - 1
REM
REM Run started: at 2020.11.27 18:37:03 in /rds/project/t2_vol4/rds-t2-cs072/BORA/CARBON/AIRSS/Generating-Clusters/Str-Search/Higher-Symm/Only-C60/Try2-TRACK-ENABLED
REM VASP from code version vasp.5.4.4.18Apr17-6-g9f103f2a35 (build Oct 11 2019 16:45:47) gamma-only
REM
REM
REM
REM
REM ./C.cell (5f7b7a0d59291d2373303da1f58b8d66)
REM AIRSS Version 0.9.1 bugfix July 2018 build 013d7b7c2542+ Fri, 06 Jul 2018 19:26:36 +0100
REM compiler GCC version 4.8.5 20150623 (Red Hat 4.8.5-39)
REM options -cpp -mtune=generic -march=x86-64 -g -O0
REM seed 444705748 432033017 -352753558 1228030182 -2002337904 -1401394124 519525657 1373452151 -654842021 841479642 -2062061627 1575648862
REM
REM C.POTCAR (d86ddea03c3ceb6dc662c8ad6801f873)
REM 
CELL 1.54180   15.00000   15.00000   15.00000   90.00000   90.00000   90.00000
LATT -1
SFAC C  
C      1  0.4805972504242  0.4282612500271  0.5926956764214 1.0
C      1  0.4188644870763  0.3904740489653  0.5279607546470 1.0
C      1  0.4226758039683  0.4246469020240  0.4406738631851 1.0
C      1  0.5194027610538  0.4282612304976  0.4073043186085 1.0
C      1  0.5811355292742  0.3904740525021  0.4720392626455 1.0
C      1  0.5773242131739  0.4246469183994  0.5593261550329 1.0
C      1  0.4975900957214  0.5691837660474  0.7045663013469 1.0
C      1  0.3241167063330  0.5686462288289  0.6000596397140 1.0
C      1  0.3269003852100  0.5651408522141  0.3957725912330 1.0
C      1  0.5024098859928  0.5691837353918  0.2954336434584 1.0
C      1  0.6758832887872  0.5686462012587  0.3999403196586 1.0
C      1  0.6730996068206  0.5651408636214  0.6042274191490 1.0
C      1  0.5863342970374  0.5233215466741  0.5528075832104 1.0
C      1  0.4936529070823  0.5283330570635  0.5969164039463 1.0
C      1  0.4184047312293  0.5625669131082  0.5398540603123 1.0
C      1  0.4136657110324  0.5233215327705  0.4471924093239 1.0
C      1  0.5063470904915  0.5283330378116  0.4030835779051 1.0
C      1  0.5815952756107  0.5625669028355  0.4601459135472 1.0
C      1  0.5167117601959  0.2823780231189  0.3920028734795 1.0
C      1  0.5890515178175  0.2910889800948  0.4719514807471 1.0
C      1  0.5733553791858  0.2825971697643  0.5799669196862 1.0
C      1  0.4832882699313  0.2823780456612  0.6079972043427 1.0
C      1  0.4109485172358  0.2910889825394  0.5280485933549 1.0
C      1  0.4266446531770  0.2825971367036  0.4200331615646 1.0
C      1  0.3449493711371  0.4171194119053  0.3105242947608 1.0
C      1  0.5773926540297  0.4210479970598  0.2729290334269 1.0
C      1  0.7247075308870  0.4169244624726  0.4515703705437 1.0
C      1  0.6550505929363  0.4171194393849  0.6894758238667 1.0
C      1  0.4226073115636  0.4210480402584  0.7270709205841 1.0
C      1  0.2752924883309  0.4169244707495  0.5484297092215 1.0
C      1  0.4626032139450  0.3653098534049  0.6696155884266 1.0
C      1  0.3292976974124  0.3480588862517  0.5511195347855 1.0
C      1  0.3764681246533  0.3643822163538  0.3771069969408 1.0
C      1  0.5373967973665  0.3653098208297  0.3303844170376 1.0
C      1  0.6707023159169  0.3480588816439  0.4488804980693 1.0
C      1  0.6235318983855  0.3643822704982  0.6228930487331 1.0
C      1  0.4053313984264  0.5817196399550  0.2847171805629 1.0
C      1  0.6368972876409  0.5845207815340  0.3105390036041 1.0
C      1  0.7317341433333  0.5778616594440  0.5249874321633 1.0
C      1  0.5946685820726  0.5817196847687  0.7152828147700 1.0
C      1  0.3631027027353  0.5845208213855  0.6894609393396 1.0
C      1  0.2682658496787  0.5778616585988  0.4750125526105 1.0
C      1  0.3113824373049  0.6415087836452  0.5313818583085 1.0
C      1  0.3806510258787  0.6408654677902  0.3564999089675 1.0
C      1  0.5635379566164  0.6460843843416  0.3203656055411 1.0
C      1  0.6886175590399  0.6415087699186  0.4686181101035 1.0
C      1  0.6193489611438  0.6408654912004  0.6435000643175 1.0
C      1  0.4364620368225  0.6460844212682  0.6796343340819 1.0
C      1  0.3418173276049  0.5091961584284  0.3113769801238 1.0
C      1  0.5808944921565  0.5122949951815  0.2670352795945 1.0
C      1  0.7358696599112  0.5071500999458  0.4526017930602 1.0
C      1  0.6581826511721  0.5091961955570  0.6886230725100 1.0
C      1  0.4191054726871  0.5122950355935  0.7329646516366 1.0
C      1  0.2641303481157  0.5071501020675  0.5473982031357 1.0
C      1  0.5923070387313  0.6721303908483  0.4845660519119 1.0
C      1  0.5606220648485  0.6865087649205  0.5804876920464 1.0
C      1  0.4658323485163  0.6906772149854  0.5969539803356 1.0
C      1  0.4076929587015  0.6721304012631  0.5154339036347 1.0
C      1  0.4393779321085  0.6865087572135  0.4195122583776 1.0
C      1  0.5341676443260  0.6906771914091  0.4030459663457 1.0
END
