TITL C-10281-8146-6 -7.913 3375.00 -1649.36257773 0 0 199 (C1) n - 1
REM
REM Run started: at 2020.12.22 02:39:25 in /rds/project/t2_vol4/rds-t2-cs072/BORA/CARBON/AIRSS/Generating-Clusters/Str-Search/Higher-Symm/C100-200
REM VASP from code version vasp.5.4.4.18Apr17-6-g9f103f2a35 (build Oct 11 2019 16:45:47) gamma-only
REM
REM
REM
REM
REM ./C.cell (533062f00bc710175b3da973d35f2034)
REM AIRSS Version 0.9.1 bugfix July 2018 build 013d7b7c2542+ Fri, 06 Jul 2018 19:26:36 +0100
REM compiler GCC version 4.8.5 20150623 (Red Hat 4.8.5-39)
REM options -cpp -mtune=generic -march=x86-64 -g -O0
REM seed -1524889768 -167752019 470656679 -1436951163 1716616487 95998234 -1088260034 300895442 -1737587977 647680213 1994270372 2115031116
REM
REM C.POTCAR (d86ddea03c3ceb6dc662c8ad6801f873)
REM 
CELL 1.54180   15.00000   15.00000   15.00000   90.00000   90.00000   90.00000
LATT -1
SFAC C  
C      1  0.5265569906759  0.2900934230155  0.5188809301232 1.0
C      1  0.6808969504949  0.3296160841331  0.4780130840929 1.0
C      1  0.7261842691978  0.4772876435739  0.5113141643598 1.0
C      1  0.7089584647525  0.6353662648965  0.4922711683589 1.0
C      1  0.5671778695912  0.7088653129089  0.5004912590851 1.0
C      1  0.4161361022695  0.6854442920699  0.4921247981245 1.0
C      1  0.3116305825054  0.5769497146561  0.4915741527170 1.0
C      1  0.2853801393274  0.4229937314374  0.4717411179074 1.0
C      1  0.3760233526791  0.2917215229777  0.4629656631022 1.0
C      1  0.7663129927696  0.5655510403010  0.5458969044034 1.0
C      1  0.6538688755793  0.7130241602195  0.5333884324871 1.0
C      1  0.4796470113454  0.7499669067529  0.5114154044935 1.0
C      1  0.3158966632022  0.6754592332707  0.5116465781380 1.0
C      1  0.2385785106587  0.5132773972638  0.5064998332272 1.0
C      1  0.3291172065948  0.3444007963476  0.5360733615439 1.0
C      1  0.4486830215738  0.2193753625183  0.5007203517206 1.0
C      1  0.6246506942589  0.2561584341965  0.5287599066427 1.0
C      1  0.7429572161721  0.3906292891227  0.5342012696422 1.0
C      1  0.3409773039053  0.8644658728447  0.6515528424314 1.0
C      1  0.1871512456233  0.6672746416716  0.6427107700608 1.0
C      1  0.1278860706480  0.4096100409278  0.6040231330544 1.0
C      1  0.2914354912152  0.2038252955999  0.6283108080386 1.0
C      1  0.5375260829502  0.1217489083472  0.6067707625049 1.0
C      1  0.7496955869938  0.2328557976070  0.6421396938675 1.0
C      1  0.8953373668332  0.4405170782585  0.6110586627689 1.0
C      1  0.8419438776353  0.6837704744573  0.6471790449846 1.0
C      1  0.6186358926502  0.8484083313397  0.6225422767180 1.0
C      1  0.3037355543814  0.6454211399789  0.2560030234876 1.0
C      1  0.2492695688035  0.5080648669952  0.2113786261945 1.0
C      1  0.3159257821762  0.3347366530419  0.2227149027878 1.0
C      1  0.4615584802980  0.2789967114171  0.2219860190318 1.0
C      1  0.6057793467049  0.3272972867435  0.2232105159468 1.0
C      1  0.7041729875190  0.4445348969426  0.2117234828188 1.0
C      1  0.7002102434131  0.5942795994541  0.2571075000739 1.0
C      1  0.5901243599853  0.7060407177154  0.2854718685868 1.0
C      1  0.4358549465370  0.7299467351611  0.2794714228677 1.0
C      1  0.4458069917575  0.8434179649040  0.5131366809079 1.0
C      1  0.2645749867576  0.7341244043699  0.4479673406309 1.0
C      1  0.1677729243159  0.5381699392141  0.4400935140263 1.0
C      1  0.1852822362096  0.2745558801257  0.5181545682738 1.0
C      1  0.4522220126568  0.1470320677904  0.4333437041802 1.0
C      1  0.6413426145338  0.1651608819695  0.4872565552836 1.0
C      1  0.9109968641379  0.3392324653909  0.4784431059354 1.0
C      1  0.8564332159751  0.5556490069578  0.5001953865659 1.0
C      1  0.7790684224355  0.8123296997429  0.5510397438004 1.0
C      1  0.2247436377862  0.5935245087840  0.6940959923438 1.0
C      1  0.1556980326119  0.4013720830244  0.7023003384022 1.0
C      1  0.3533728265996  0.2296630295784  0.6999583451216 1.0
C      1  0.5407090451895  0.1585161753490  0.7000742807910 1.0
C      1  0.7521767577660  0.2916020434715  0.7223671609119 1.0
C      1  0.8915036978047  0.4456034343089  0.7139446643894 1.0
C      1  0.7721694150728  0.6918754176130  0.7195116688483 1.0
C      1  0.5632329355871  0.8001376379255  0.6818143001898 1.0
C      1  0.3668648412060  0.8021688632804  0.7241321707721 1.0
C      1  0.6085887798518  0.7178014587954  0.7047797603514 1.0
C      1  0.4417305806009  0.7039402744921  0.6559091582796 1.0
C      1  0.3188059626306  0.6150182364272  0.6778577982782 1.0
C      1  0.2779580618068  0.4439261272222  0.6528665315101 1.0
C      1  0.3207341377047  0.3086423885982  0.7351232587070 1.0
C      1  0.5070469914200  0.2993951787865  0.6904774972260 1.0
C      1  0.6642275289602  0.3061502373447  0.7535161213235 1.0
C      1  0.7603012386326  0.4505998157677  0.6858398482685 1.0
C      1  0.7468430339494  0.5966809817859  0.7340350895493 1.0
C      1  0.6939266735749  0.7837668569486  0.5997987029814 1.0
C      1  0.4235317076694  0.8622088600945  0.6085232021582 1.0
C      1  0.2820119952106  0.6879761539129  0.6068179384848 1.0
C      1  0.2013818626992  0.4758546517429  0.5919949040104 1.0
C      1  0.2575123905575  0.2879734323083  0.5897212947942 1.0
C      1  0.4587799280295  0.1703185114726  0.5903149305015 1.0
C      1  0.6573893213591  0.2394564084865  0.6206103724051 1.0
C      1  0.8037168054855  0.3970752978232  0.6111263423683 1.0
C      1  0.7989136751754  0.5907755728854  0.6379289873605 1.0
C      1  0.6465582253178  0.5600634365893  0.7336318604175 1.0
C      1  0.5782049584085  0.6288160566196  0.6933651172437 1.0
C      1  0.4835422544714  0.6207462724211  0.6697566399008 1.0
C      1  0.4024768152961  0.5512744115882  0.6777986622249 1.0
C      1  0.3724985556269  0.4642661585689  0.6336985272848 1.0
C      1  0.4066726259823  0.3883922407919  0.5924790206319 1.0
C      1  0.4915835034298  0.3435807847296  0.6005727081758 1.0
C      1  0.6313080064288  0.3976326710562  0.7555002779282 1.0
C      1  0.6698531071434  0.4644514703987  0.7084809276176 1.0
C      1  0.4492426258720  0.2104587780253  0.6821320633997 1.0
C      1  0.5984620551934  0.2501213149544  0.7001966843576 1.0
C      1  0.8107263926286  0.3682686625058  0.7070273740576 1.0
C      1  0.8173335216537  0.5265872010371  0.7100618332663 1.0
C      1  0.7018181679667  0.7390308377296  0.6901206137644 1.0
C      1  0.4672052863181  0.7980338775234  0.6743488319648 1.0
C      1  0.3463842584747  0.7111165198195  0.6772466611827 1.0
C      1  0.2058485709154  0.4990379589248  0.6916424036564 1.0
C      1  0.2479692431060  0.3493247086526  0.6788343655091 1.0
C      1  0.6309583554756  0.5765518825497  0.4527323661359 1.0
C      1  0.5501091721372  0.6218381653633  0.4572770228773 1.0
C      1  0.4572729749298  0.6070261173641  0.4560280745921 1.0
C      1  0.3881705755355  0.5411961800842  0.4506592346772 1.0
C      1  0.3768754811340  0.4487087575790  0.4325932481101 1.0
C      1  0.4328285253292  0.3746254928443  0.4281240137770 1.0
C      1  0.5259579872039  0.3617734957837  0.4467379404463 1.0
C      1  0.6114645715508  0.3987743689068  0.4440956134661 1.0
C      1  0.6515536948306  0.4862767724848  0.4522434054673 1.0
C      1  0.1906653428126  0.7038687957366  0.3931788233194 1.0
C      1  0.1517289749033  0.4598905923221  0.3880353216742 1.0
C      1  0.2116588464711  0.2472388914533  0.4317550266357 1.0
C      1  0.4869221456958  0.0984177412852  0.3626980558246 1.0
C      1  0.6872857148259  0.1801782438131  0.4048773490060 1.0
C      1  0.8834163708414  0.3627600736091  0.3912114454440 1.0
C      1  0.8510453269452  0.6019874751520  0.4166845204380 1.0
C      1  0.7457616962826  0.8606224599450  0.4720970040772 1.0
C      1  0.3845425102608  0.8512742849951  0.4334877671800 1.0
C      1  0.4783453987024  0.3562166015370  0.7736669011496 1.0
C      1  0.5478533681206  0.4311586305286  0.7925890922016 1.0
C      1  0.5861843896351  0.5383821237944  0.8148923758872 1.0
C      1  0.5493651237609  0.6153208099602  0.8700235709683 1.0
C      1  0.4675119958216  0.6591915871148  0.8618977443033 1.0
C      1  0.3927349723847  0.6086759238227  0.8280122140956 1.0
C      1  0.3873728984042  0.5347734806190  0.7738392094849 1.0
C      1  0.3496524754310  0.4602242759625  0.8117380665920 1.0
C      1  0.3774731393096  0.3665137486205  0.7902936670813 1.0
C      1  0.3031880300636  0.2549919778294  0.3969238959343 1.0
C      1  0.5664943768952  0.0929600757109  0.3136371444583 1.0
C      1  0.7255096201243  0.2732786503466  0.3967692812271 1.0
C      1  0.8920385062366  0.4478358061978  0.3458460696251 1.0
C      1  0.7789255870532  0.6618374337942  0.4175233900209 1.0
C      1  0.6295692593279  0.8665354543782  0.3917388096291 1.0
C      1  0.3072794303147  0.8080954965858  0.4060684560769 1.0
C      1  0.1532475126890  0.6156590705737  0.3885200696084 1.0
C      1  0.2156192102842  0.3959672875538  0.4075359071769 1.0
C      1  0.6116850145443  0.4796831923502  0.1866779665103 1.0
C      1  0.6138711926327  0.5634947305315  0.2372805267997 1.0
C      1  0.5508230434467  0.6239603348142  0.2631005481197 1.0
C      1  0.4567264542619  0.6347945392356  0.2462296608945 1.0
C      1  0.3744201748434  0.5804395240306  0.2561260776813 1.0
C      1  0.3427425944683  0.4988490038736  0.2243045938197 1.0
C      1  0.3747888720457  0.4122502194369  0.1869697566770 1.0
C      1  0.4644230211550  0.3736338890264  0.2056465974988 1.0
C      1  0.5520113963487  0.4027724215425  0.2088393015292 1.0
C      1  0.3334087603851  0.5325678201021  0.9594673414129 1.0
C      1  0.3414164743812  0.4533735879786  0.9057370930744 1.0
C      1  0.3926455848639  0.3691001709924  0.8930780183803 1.0
C      1  0.4863268614378  0.3504788217124  0.8843321720456 1.0
C      1  0.5555158660782  0.4190984886502  0.8916543794550 1.0
C      1  0.6048706051633  0.4971372638555  0.9062343397002 1.0
C      1  0.5897960403881  0.5818526520083  0.9526698931779 1.0
C      1  0.4117245849651  0.6831084262051  0.9401368932238 1.0
C      1  0.3487043644455  0.6134986993440  0.9107781960562 1.0
C      1  0.2164530253367  0.0516380278429  0.5944467719582 1.0
C      1  0.6221094086061  0.0000420759984  0.5245186789180 1.0
C      1  0.8207887474779  0.2324597942324  0.5803977788379 1.0
C      1  0.9567788324718  0.4076880212190  0.5351970962276 1.0
C      1  0.9289730843988  0.7203382030263  0.6122985878827 1.0
C      1  0.6611176454290  0.9191907854745  0.4740683673883 1.0
C      1  0.2236618274230  0.9639373528016  0.5970337658898 1.0
C      1  0.0187997864148  0.7095786851365  0.6175938863268 1.0
C      1  0.0488224612783  0.3886277954450  0.5511692894158 1.0
C      1  0.1896937578437  0.7579365675836  0.3151792429755 1.0
C      1  0.1270024577400  0.4823956959028  0.2975852887257 1.0
C      1  0.2269063201013  0.3156089240248  0.3567887037528 1.0
C      1  0.4028560202299  0.1417005854756  0.3546582344404 1.0
C      1  0.6483859063084  0.1393969437343  0.3314763488752 1.0
C      1  0.8126389848161  0.3072042049219  0.3587559747588 1.0
C      1  0.8880130131607  0.5430710215779  0.3503718498202 1.0
C      1  0.7143429648951  0.8158615063740  0.3927849140396 1.0
C      1  0.4683877481809  0.8821345940987  0.4192238281332 1.0
C      1  0.5419631393795  0.8489018303760  0.3631248435880 1.0
C      1  0.2747584109461  0.7964858216131  0.3116243026334 1.0
C      1  0.1464914403392  0.5783636383709  0.2978078946428 1.0
C      1  0.2331965114056  0.3506513432145  0.2611749081715 1.0
C      1  0.3440457579851  0.2029679105335  0.3200756666577 1.0
C      1  0.5899243924508  0.1676434299724  0.2616592728259 1.0
C      1  0.7442501828822  0.3101007429269  0.3037641639577 1.0
C      1  0.8422376336280  0.5006154525802  0.2822898427586 1.0
C      1  0.7376092733691  0.7287972556367  0.3579740908273 1.0
C      1  0.3784220654265  0.4449671913329  0.0897158954713 1.0
C      1  0.4550991522979  0.4246988590139  0.0484648621391 1.0
C      1  0.5368338358153  0.4467892590769  0.0508103213597 1.0
C      1  0.5923484086354  0.5050147254583  0.0899490778230 1.0
C      1  0.5836087289881  0.5944004994657  0.0448314998796 1.0
C      1  0.5175945521898  0.6556962983121  0.0784171496287 1.0
C      1  0.4377652700599  0.6717178218975  0.0232895613736 1.0
C      1  0.3882316044591  0.6154549850921  0.0855954273910 1.0
C      1  0.3482296097537  0.5344850192023  0.0540640618836 1.0
C      1  0.3711654822785  0.2597578279525  0.2479727438610 1.0
C      1  0.5529401330901  0.2480930785123  0.2328039971436 1.0
C      1  0.6963710953977  0.3541028911481  0.2359617121660 1.0
C      1  0.7590957399511  0.5159132012190  0.2432992069298 1.0
C      1  0.6875642301884  0.6862227825211  0.2918466918900 1.0
C      1  0.5210186351985  0.7709354508378  0.3056343202572 1.0
C      1  0.3390650748738  0.7353557420204  0.2735321250190 1.0
C      1  0.2209898433769  0.5964946401512  0.2399463830245 1.0
C      1  0.1930774683266  0.4378910453250  0.2431340874894 1.0
C      1  0.9165106713882  0.5002733799214  0.5389120577667 1.0
C      1  0.8486580099844  0.7563367675213  0.5784126063127 1.0
C      1  0.6116185774301  0.9192149286146  0.5626565231562 1.0
C      1  0.2577728977260  0.8924461819033  0.6224656635834 1.0
C      1  0.1010990629140  0.6928179471283  0.6269649089506 1.0
C      1  0.1140667271679  0.3302704293194  0.5414893653391 1.0
C      1  0.2543782429967  0.1245163683156  0.6090174271986 1.0
C      1  0.6053830724300  0.0927521725159  0.5369818400101 1.0
C      1  0.8750024976505  0.2660865121358  0.5261458775728 1.0
C      1  0.4559673980514  0.6387652033031  0.1494228873141 1.0
END
