TITL C-10682-722-127 -3.391 3375.00 -561.11790382 0 0 70 (C3) n - 1
REM
REM Run started: at 2020.12.30 00:48:50 in /gpfs/home/chem/mssmkc/CARBON/AIRSS/Generating-Clusters/Str-Search/Higher-Symm/C4-100
REM VASP from code version vasp.5.4.4.18Apr17-6-g9f103f2a35 (build Oct 11 2019 16:45:47) gamma-only
REM
REM
REM
REM
REM ./C.cell (6bd13a13d554368a30d355f37ece5b26)
REM AIRSS Version 0.9.1 bugfix July 2018 build 013d7b7c2542+ Fri, 06 Jul 2018 19:26:36 +0100
REM compiler GCC version 6.3.0
REM options -cpp -iprefix /gpfs/warwick/csc/orac/software/Core/GCCcore/6.3.0/bin/../lib/gcc/x86_64-pc-linux-gnu/6.3.0/ -mtune=generic -march=x86-64 -g -O0
REM seed -2144638845 -1918711596 1911635825 -568854222 282959993 -1360232087 677914932 -1736476856 -1090871803 618949365 -1126526871 675107037
REM
REM C.POTCAR (d86ddea03c3ceb6dc662c8ad6801f873)
REM 
CELL 1.54180   15.00000   15.00000   15.00000   90.00000   90.00000   90.00000
LATT -1
SFAC C  
C      1  0.6939352779734  0.3334822521428  0.7009467424060 1.0
C      1  0.2254261257265  0.3340997970528  0.5669863958426 1.0
C      1  0.5760432901921  0.3347886516888  0.2287795411878 1.0
C      1  0.6934377487285  0.6250033185439  0.6969244590466 1.0
C      1  0.2284592689047  0.6247331935957  0.5686261437314 1.0
C      1  0.5724931254673  0.6251747606323  0.2310400880778 1.0
C      1  0.3647609127008  0.4638168548858  0.5161144353000 1.0
C      1  0.5499461395457  0.4639362579125  0.3745877183276 1.0
C      1  0.5800556238211  0.4637164274520  0.6055601617715 1.0
C      1  0.4120802139288  0.5463351047538  0.5420276721237 1.0
C      1  0.5038979382384  0.5463713919945  0.4027989690552 1.0
C      1  0.5788079441238  0.5463422527216  0.5519613443407 1.0
C      1  0.2380266193183  0.5339262290728  0.4410394324032 1.0
C      1  0.6783365866357  0.5343342717287  0.3026588531114 1.0
C      1  0.5782237664167  0.5340122859179  0.7523338743083 1.0
C      1  0.2616243099454  0.4583600513201  0.4938017731367 1.0
C      1  0.6211321691551  0.4586354366220  0.2967086420598 1.0
C      1  0.6121892574909  0.4583439034289  0.7058945720109 1.0
C      1  0.4451325093382  0.7375341929028  0.5425547562380 1.0
C      1  0.4867057726799  0.7373479974954  0.4317334209803 1.0
C      1  0.5616615883322  0.7375797725312  0.5230503043094 1.0
C      1  0.4270412723606  0.3112016851868  0.5601149812038 1.0
C      1  0.4809147337593  0.3113701173724  0.4065623532239 1.0
C      1  0.5870836936865  0.3113017501044  0.5299034917769 1.0
C      1  0.6038016976313  0.6230676861328  0.7213560274683 1.0
C      1  0.2519428116235  0.6230636135461  0.4787757444802 1.0
C      1  0.6385833298541  0.6234014448315  0.2962988698335 1.0
C      1  0.6061595644896  0.3616659258277  0.7223785629053 1.0
C      1  0.2504451277711  0.3616612960974  0.4800853912797 1.0
C      1  0.6389528010508  0.3620172364360  0.2938798464327 1.0
C      1  0.5249090142202  0.6619148944879  0.6802520987791 1.0
C      1  0.3274554045768  0.6618892012809  0.4316780754852 1.0
C      1  0.6418022979542  0.6620296848389  0.3853358663326 1.0
C      1  0.5267378974987  0.3418854419996  0.6787001995643 1.0
C      1  0.3282461657997  0.3418598895186  0.4334841469613 1.0
C      1  0.6401397526307  0.3421144607012  0.3844850328150 1.0
C      1  0.7324430815339  0.4310119753907  0.5793784689761 1.0
C      1  0.3116555593802  0.4309301927065  0.6609545874534 1.0
C      1  0.4511382941928  0.4314141852979  0.2561389406320 1.0
C      1  0.7342449108447  0.5251693704993  0.5839536115508 1.0
C      1  0.3065780639937  0.5250762933810  0.6602585232447 1.0
C      1  0.4538595354162  0.5255811907726  0.2523759585164 1.0
C      1  0.5095420776205  0.3810273279871  0.2028143154502 1.0
C      1  0.7492988644677  0.3801506199660  0.6562926860058 1.0
C      1  0.2364149495031  0.3800119082902  0.6377379184768 1.0
C      1  0.5072020728374  0.5830394364217  0.1977846020517 1.0
C      1  0.7550286116422  0.5827264871223  0.6573962306324 1.0
C      1  0.2322557181389  0.5821112703271  0.6415286810047 1.0
C      1  0.6838990581787  0.5961472468988  0.4397686232818 1.0
C      1  0.4566572645245  0.5960183177366  0.6890625480910 1.0
C      1  0.3540411713978  0.5960057758214  0.3682363847423 1.0
C      1  0.6434224097352  0.4308833623501  0.4330211965199 1.0
C      1  0.4830984538939  0.4308186232329  0.6571227037643 1.0
C      1  0.3685275904364  0.4307806375150  0.4063401043919 1.0
C      1  0.4420389390334  0.5729316455247  0.3399205034108 1.0
C      1  0.6642984181500  0.5727719907245  0.5301203493822 1.0
C      1  0.3881749778769  0.5728639448457  0.6269056347031 1.0
C      1  0.4608473366292  0.4027040796139  0.3584599013888 1.0
C      1  0.6388295861001  0.4025947523000  0.5366383240334 1.0
C      1  0.3953794836302  0.4025454836219  0.6013257087227 1.0
C      1  0.5165199633852  0.2978425293368  0.5927999848929 1.0
C      1  0.4077909521056  0.2978996824407  0.4675701750027 1.0
C      1  0.5706978516437  0.2979856586564  0.4360888274076 1.0
C      1  0.5151091530152  0.7200999976900  0.6014703972774 1.0
C      1  0.4006494155288  0.7199890979998  0.4628953571055 1.0
C      1  0.5780239261269  0.7200116677329  0.4331037302801 1.0
C      1  0.3058012205867  0.5129548557370  0.3751732532710 1.0
C      1  0.4871718885222  0.5129251745061  0.7270312895302 1.0
C      1  0.7017276698833  0.5131521401129  0.3942419442192 1.0
C      1  0.4983140764741  0.5544588446808  0.4989742462755 1.0
END
