TITL C-100826-1855-28 -2.874 3375.00 -484.91137492 0 0 60 (C1) n - 1
REM
REM Run started: at 2020.11.28 01:30:37 in /rds/project/t2_vol4/rds-t2-cs072/BORA/CARBON/AIRSS/Generating-Clusters/Str-Search/Higher-Symm/Only-C60/Try2-TRACK-ENABLED
REM VASP from code version vasp.5.4.4.18Apr17-6-g9f103f2a35 (build Oct 11 2019 16:45:47) gamma-only
REM
REM
REM
REM
REM ./C.cell (5f7b7a0d59291d2373303da1f58b8d66)
REM AIRSS Version 0.9.1 bugfix July 2018 build 013d7b7c2542+ Fri, 06 Jul 2018 19:26:36 +0100
REM compiler GCC version 4.8.5 20150623 (Red Hat 4.8.5-39)
REM options -cpp -mtune=generic -march=x86-64 -g -O0
REM seed -458244904 1579391142 -178348166 1376612086 -144160475 787614101 212003143 -1999278973 -1622453940 -412695726 -122337249 -1901382613
REM
REM C.POTCAR (d86ddea03c3ceb6dc662c8ad6801f873)
REM 
CELL 1.54180   15.00000   15.00000   15.00000   90.00000   90.00000   90.00000
LATT -1
SFAC C  
C      1  0.6752470021705  0.6607712531292  0.4480838000760 1.0
C      1  0.4775085019130  0.6821640287691  0.5159256793423 1.0
C      1  0.3403253071518  0.6053189252805  0.6365042938891 1.0
C      1  0.4288721872277  0.6017347351101  0.3037589026187 1.0
C      1  0.6514867364949  0.4684470725639  0.3216361580540 1.0
C      1  0.6223136579853  0.2436012240425  0.5899382720210 1.0
C      1  0.4804231768063  0.5069941335629  0.5199059489298 1.0
C      1  0.5876288613711  0.6287221633183  0.2976895745769 1.0
C      1  0.3448292734052  0.5161356000934  0.6144173819743 1.0
C      1  0.2932287770378  0.4779925945128  0.3653445237221 1.0
C      1  0.4214484105964  0.3818623881686  0.3387743517857 1.0
C      1  0.3716111022995  0.6142726376053  0.3814262218720 1.0
C      1  0.3681650480298  0.4370830583319  0.6650351047137 1.0
C      1  0.5761660567201  0.3505774270484  0.4901043721761 1.0
C      1  0.5203206970252  0.7394208305529  0.4432169814765 1.0
C      1  0.6167442799314  0.4771568938949  0.5782608286392 1.0
C      1  0.6361930329219  0.3746950952292  0.4195795741700 1.0
C      1  0.4276053539387  0.7070104481557  0.6046736706135 1.0
C      1  0.6877460209503  0.4365727193507  0.6436287259073 1.0
C      1  0.5839623275246  0.3377333249568  0.7168057118193 1.0
C      1  0.3855531610960  0.6645552885738  0.4757461152054 1.0
C      1  0.6013165707479  0.3816099205881  0.3303524207880 1.0
C      1  0.3682719633138  0.4556384050549  0.3072803152575 1.0
C      1  0.6371390510696  0.4211808359094  0.7242095679791 1.0
C      1  0.4636827073653  0.2379327810161  0.5707901826415 1.0
C      1  0.7208122905223  0.4533602212065  0.5661147123008 1.0
C      1  0.2926829442316  0.4030045967158  0.4286634625437 1.0
C      1  0.3719464669951  0.3536319819255  0.4171051043263 1.0
C      1  0.4434425312953  0.4309151274172  0.7241397970396 1.0
C      1  0.4637221848896  0.7353887402458  0.3647034831300 1.0
C      1  0.4841542935864  0.1911557514046  0.5002016265948 1.0
C      1  0.3463218645905  0.6699094018593  0.5673212869365 1.0
C      1  0.6919666676764  0.4563290061508  0.4094181793064 1.0
C      1  0.6454105287653  0.6745067069008  0.3569632050301 1.0
C      1  0.4229005644593  0.6481656839324  0.6821582000284 1.0
C      1  0.4919713633340  0.5987609629528  0.7160762576194 1.0
C      1  0.5121073558425  0.3931862688197  0.3022463301223 1.0
C      1  0.6104329250330  0.7277206196352  0.4261140180027 1.0
C      1  0.5207329837296  0.5923281423962  0.5340822576547 1.0
C      1  0.3883429528609  0.4839205904564  0.5306366851573 1.0
C      1  0.2796783933802  0.5744193295518  0.3758210947970 1.0
C      1  0.4894229679097  0.3462059266146  0.7041433100546 1.0
C      1  0.6083312706428  0.5776257516159  0.5831857533912 1.0
C      1  0.3536622540830  0.3929647275745  0.5092148128640 1.0
C      1  0.7231744133867  0.5053060668783  0.4844268498090 1.0
C      1  0.4949293201521  0.5053967961825  0.7493847780955 1.0
C      1  0.3656622084156  0.7138661083125  0.3931079636072 1.0
C      1  0.5861900994642  0.5848144820170  0.6878592409773 1.0
C      1  0.6861253379807  0.5949818845798  0.5100904281015 1.0
C      1  0.6254750665379  0.2665918060553  0.6705856995780 1.0
C      1  0.4358544225797  0.3014227591651  0.6337175228263 1.0
C      1  0.5588913387121  0.2576323833635  0.5202209117402 1.0
C      1  0.3659311313753  0.3608206969016  0.6066036630977 1.0
C      1  0.5938979510424  0.5321203867241  0.2805584353600 1.0
C      1  0.5151197770997  0.4806931559213  0.2578756431863 1.0
C      1  0.4977476319780  0.6657316662579  0.3039079504769 1.0
C      1  0.4277780650818  0.5177786181031  0.2659361961681 1.0
C      1  0.5488924132041  0.4339176742721  0.5347693136169 1.0
C      1  0.5908379128107  0.5014328411201  0.7412568689032 1.0
C      1  0.2776606412574  0.6648088519505  0.3583001773069 1.0
END
