TITL C-10682-722-107 -4.084 3375.00 -693.13972183 0 0 88 (C1) n - 1
REM
REM Run started: at 2020.12.29 20:59:15 in /gpfs/home/chem/mssmkc/CARBON/AIRSS/Generating-Clusters/Str-Search/Higher-Symm/C4-100
REM VASP from code version vasp.5.4.4.18Apr17-6-g9f103f2a35 (build Oct 11 2019 16:45:47) gamma-only
REM
REM
REM
REM
REM ./C.cell (6bd13a13d554368a30d355f37ece5b26)
REM AIRSS Version 0.9.1 bugfix July 2018 build 013d7b7c2542+ Fri, 06 Jul 2018 19:26:36 +0100
REM compiler GCC version 6.3.0
REM options -cpp -iprefix /gpfs/warwick/csc/orac/software/Core/GCCcore/6.3.0/bin/../lib/gcc/x86_64-pc-linux-gnu/6.3.0/ -mtune=generic -march=x86-64 -g -O0
REM seed -1502859168 1468071668 -944178682 -151937915 -1362055607 -1030215272 28361029 -1943947442 149755683 1679025068 1135291421 -1762995990
REM
REM C.POTCAR (d86ddea03c3ceb6dc662c8ad6801f873)
REM 
CELL 1.54180   15.00000   15.00000   15.00000   90.00000   90.00000   90.00000
LATT -1
SFAC C  
C      1  0.3451435166097  0.6447344418858  0.8085303998646 1.0
C      1  0.6946805495311  0.5621322570312  0.8138977354769 1.0
C      1  0.4475534633573  0.2989632498871  0.8107916763681 1.0
C      1  0.6471742192709  0.6416058352388  0.8146496395378 1.0
C      1  0.2993657029604  0.5642478937567  0.8095860129542 1.0
C      1  0.5401446633681  0.3014959823869  0.8152461768612 1.0
C      1  0.6403941329539  0.2240766235480  0.7673479193333 1.0
C      1  0.1839833099829  0.5180849458590  0.7556230962730 1.0
C      1  0.6666514617646  0.7657653753193  0.7638370994835 1.0
C      1  0.3528354830469  0.2232219637184  0.7528962348463 1.0
C      1  0.8095555192944  0.5134750711027  0.7627494289746 1.0
C      1  0.3304180436670  0.7670676655550  0.7528659996429 1.0
C      1  0.5427394260286  0.3713138596315  0.6119429485779 1.0
C      1  0.3645890265891  0.5285058536069  0.6083663207541 1.0
C      1  0.5897284526298  0.6047575121940  0.6106470282820 1.0
C      1  0.4505282448528  0.3720972337927  0.6084295532139 1.0
C      1  0.6347739104259  0.5241951707312  0.6118440754748 1.0
C      1  0.4114480127828  0.6079431999943  0.6074953875338 1.0
C      1  0.4542833478913  0.6670856921605  0.6739284345991 1.0
C      1  0.6627484823743  0.4570963410680  0.6787125414692 1.0
C      1  0.3764690412299  0.3805374364323  0.6732413378690 1.0
C      1  0.5466431726478  0.6652233286479  0.6757055763632 1.0
C      1  0.3325560074946  0.4618960899273  0.6736422148451 1.0
C      1  0.6143646514247  0.3782433338836  0.6791738029991 1.0
C      1  0.4012248037755  0.3922339538863  0.3406057481275 1.0
C      1  0.4549280364015  0.6551232451778  0.3518305383076 1.0
C      1  0.6590662249597  0.4651539562858  0.3529633506462 1.0
C      1  0.6107190121925  0.3756610519906  0.3559095921230 1.0
C      1  0.5558784630052  0.6512459481171  0.3520006340770 1.0
C      1  0.3274673803485  0.4687905033781  0.3537777535919 1.0
C      1  0.3750980787023  0.3128994252972  0.7434957144672 1.0
C      1  0.3955641832761  0.7011229722564  0.7439470138037 1.0
C      1  0.7202329178929  0.4901790349833  0.7502087486350 1.0
C      1  0.6124276308617  0.3135927139968  0.7524029623809 1.0
C      1  0.6026558334789  0.6972929086479  0.7491505024646 1.0
C      1  0.2751635694558  0.4958159985000  0.7449126361599 1.0
C      1  0.5976990753049  0.6055052694326  0.4271874146315 1.0
C      1  0.5476863748472  0.3641211140555  0.4296319166620 1.0
C      1  0.3587633745807  0.5292674795838  0.4258036331027 1.0
C      1  0.4084500599294  0.6079444955434  0.4237497436816 1.0
C      1  0.4569303248773  0.3743878517620  0.4228087298320 1.0
C      1  0.6425350516278  0.5254623389623  0.4281632013348 1.0
C      1  0.4476496631249  0.4156083840182  0.5153821260855 1.0
C      1  0.4516721665000  0.5905363339063  0.5148824928462 1.0
C      1  0.6024544827753  0.4981663084077  0.5185107318032 1.0
C      1  0.5514347975006  0.4123965668292  0.5193724285669 1.0
C      1  0.5516101484044  0.5891251849844  0.5170572516225 1.0
C      1  0.3981071749692  0.5016988613175  0.5159578195778 1.0
C      1  0.5682069801647  0.2023468780726  0.8278580261012 1.0
C      1  0.2004429763942  0.5911033107813  0.8177856056145 1.0
C      1  0.7193464170555  0.7146660572373  0.8270419119559 1.0
C      1  0.4242639222000  0.2037848542972  0.8205481238041 1.0
C      1  0.7890264672718  0.5881239920306  0.8263604496007 1.0
C      1  0.2748045833995  0.7144319116464  0.8166371725536 1.0
C      1  0.5765626237101  0.3523043606149  0.2633621080391 1.0
C      1  0.3189563255571  0.5153601183080  0.2618913247127 1.0
C      1  0.5903887455296  0.6440797297130  0.2549030574653 1.0
C      1  0.4017192237933  0.3172425237264  0.1907807878445 1.0
C      1  0.6651820419764  0.5016240853308  0.2556639417965 1.0
C      1  0.4216232433593  0.6528132013753  0.2535242596717 1.0
C      1  0.2124202762426  0.5424570547191  0.2741926429196 1.0
C      1  0.6522964496103  0.7446126067583  0.2497522138268 1.0
C      1  0.6434778190052  0.2623361704716  0.2321934705721 1.0
C      1  0.7880745228680  0.4987417402184  0.2462306516703 1.0
C      1  0.3658810264784  0.7690696061972  0.2590233311875 1.0
C      1  0.3990425057509  0.2122794032344  0.3072568759147 1.0
C      1  0.3275802780662  0.6837366580659  0.2581480966371 1.0
C      1  0.7324812301722  0.5748790834465  0.2557131598774 1.0
C      1  0.4567235938385  0.2461544256872  0.2346766564018 1.0
C      1  0.6889168150464  0.6577083872625  0.2560428659124 1.0
C      1  0.2743852182160  0.6081688875395  0.2668523983842 1.0
C      1  0.5521872627355  0.2589980589718  0.2507479709117 1.0
C      1  0.3800105066135  0.3051159838788  0.2854406282101 1.0
C      1  0.4580382720414  0.7411634152236  0.2924169510218 1.0
C      1  0.7304891182148  0.4273671023112  0.2880362070176 1.0
C      1  0.6806557515601  0.3354531967456  0.2891423804121 1.0
C      1  0.5630539612953  0.7367793497432  0.2945114740510 1.0
C      1  0.2396099087967  0.4556409853844  0.2992302146100 1.0
C      1  0.5336676615661  0.4233418543922  0.2123342481259 1.0
C      1  0.4020500676044  0.4997495563671  0.2055660643463 1.0
C      1  0.5463759540516  0.5829870200988  0.1927544676826 1.0
C      1  0.4400577817667  0.4085441858398  0.1752448911273 1.0
C      1  0.5914408443169  0.5005580113625  0.1945223405968 1.0
C      1  0.4535105671457  0.5870736393268  0.1917679603981 1.0
C      1  0.1898629264648  0.6812642341098  0.8313873888268 1.0
C      1  0.8018237862871  0.6780135437851  0.8431025570667 1.0
C      1  0.4953603912120  0.1480890233616  0.8401227169275 1.0
C      1  0.4546289816503  0.4445882336839  0.2705239800749 1.0
END
