TITL C-10576-9345-11 -4.359 3375.00 -745.65799590 0 0 92 (C1) n - 1
REM
REM Run started: at 2020.12.13 16:27:54 in /gpfs/home/chem/mssmkc/CARBON/AIRSS/Generating-Clusters/Str-Search/Higher-Symm
REM VASP from code version vasp.5.4.4.18Apr17-6-g9f103f2a35 (build Oct 11 2019 16:45:47) gamma-only
REM
REM
REM
REM
REM ./C.cell (e5ae0387ce4d49c7c0135a1433873289)
REM AIRSS Version 0.9.1 bugfix July 2018 build 013d7b7c2542+ Fri, 06 Jul 2018 19:26:36 +0100
REM compiler GCC version 6.3.0
REM options -cpp -iprefix /gpfs/warwick/csc/orac/software/Core/GCCcore/6.3.0/bin/../lib/gcc/x86_64-pc-linux-gnu/6.3.0/ -mtune=generic -march=x86-64 -g -O0
REM seed -1906208515 1004454625 1618043126 -431409962 1537747640 -1666652845 1048959817 -1624051576 -1674875468 -539435124 -1575243662 752094715
REM
REM C.POTCAR (d86ddea03c3ceb6dc662c8ad6801f873)
REM 
CELL 1.54180   15.00000   15.00000   15.00000   90.00000   90.00000   90.00000
LATT -1
SFAC C  
C      1  0.2088978949629  0.3242460805216  0.4569875262762 1.0
C      1  0.4568379761875  0.7698329870365  0.4422805010173 1.0
C      1  0.3876715392935  0.4333475839683  0.4406859268132 1.0
C      1  0.6294837807147  0.5500698700251  0.7387567187202 1.0
C      1  0.4280321152564  0.5928097620640  0.7681567737883 1.0
C      1  0.6848113194640  0.5252456744622  0.6637011432296 1.0
C      1  0.3895276685196  0.8311499463190  0.4912641502459 1.0
C      1  0.6328951703881  0.6068871257994  0.4043214657670 1.0
C      1  0.5888215418121  0.5254815616377  0.3781376343360 1.0
C      1  0.7406901305950  0.5419309377638  0.3061226976807 1.0
C      1  0.7835736720082  0.5173188453457  0.4533569613658 1.0
C      1  0.4573450047792  0.5881990788299  0.2064478809687 1.0
C      1  0.6547409400965  0.5368453946141  0.5673469050242 1.0
C      1  0.7845561809151  0.6147599649165  0.4434737515072 1.0
C      1  0.6240759845710  0.2639629394937  0.5405491721772 1.0
C      1  0.5163007259579  0.3886955855067  0.5582299769288 1.0
C      1  0.4301281121135  0.7009181334416  0.3769129776892 1.0
C      1  0.2933992644868  0.4389980197384  0.2979610544578 1.0
C      1  0.3360546644098  0.3709522710377  0.3622112380329 1.0
C      1  0.2819960052798  0.4961668013355  0.7102682512214 1.0
C      1  0.7644843275840  0.4718796300971  0.3660667880825 1.0
C      1  0.5523257189179  0.3408796443418  0.3874888848364 1.0
C      1  0.3825871838077  0.2193826561189  0.6165971917887 1.0
C      1  0.7313749481258  0.3994384660225  0.5775949021034 1.0
C      1  0.5671183627831  0.4828907194988  0.5548580849383 1.0
C      1  0.5422240200161  0.4931168406503  0.4549545650892 1.0
C      1  0.4837246123910  0.7252716849887  0.5963961109960 1.0
C      1  0.5048845241585  0.4449232589550  0.7880994605875 1.0
C      1  0.6240463221006  0.3949941668396  0.3322610184377 1.0
C      1  0.6423912825364  0.7024574832329  0.6877342959652 1.0
C      1  0.4075792535007  0.4997465571679  0.5908393707218 1.0
C      1  0.5245863273815  0.6432515433259  0.2430609476609 1.0
C      1  0.2862808012275  0.5640207882339  0.3846282031195 1.0
C      1  0.3682221126640  0.6396082330081  0.7043959669768 1.0
C      1  0.7036563018829  0.3219475211618  0.4367386951465 1.0
C      1  0.2349773916840  0.5028765738168  0.3392426007203 1.0
C      1  0.4632158795498  0.1957045800225  0.5966842702974 1.0
C      1  0.5637141458181  0.3131216213353  0.6031587921982 1.0
C      1  0.1886509204277  0.5265887998896  0.5218322352674 1.0
C      1  0.2902604141452  0.3580060918197  0.5834749670495 1.0
C      1  0.2066281810571  0.4837559357302  0.6512957575345 1.0
C      1  0.2668964635028  0.3124453160958  0.3990578570710 1.0
C      1  0.3551471887131  0.4240039150914  0.5429628999184 1.0
C      1  0.7311410496646  0.6251696544603  0.3614736666985 1.0
C      1  0.3552488415084  0.4536225193693  0.2260268577929 1.0
C      1  0.4006382922449  0.3666942195037  0.6964064527414 1.0
C      1  0.4960597876958  0.2985513331524  0.3143680201303 1.0
C      1  0.1702252681944  0.4401767662035  0.5711501706954 1.0
C      1  0.2008719520087  0.3556713793132  0.5444336497227 1.0
C      1  0.4266776446590  0.4986934943844  0.7821116499527 1.0
C      1  0.3548790861296  0.4474472402540  0.7421485200482 1.0
C      1  0.2948273041826  0.5907538495023  0.6747619163362 1.0
C      1  0.6414469078320  0.3965113675898  0.7278298605083 1.0
C      1  0.5001869019374  0.3499255657880  0.1994541500463 1.0
C      1  0.2096519160209  0.5382611829025  0.4320676875861 1.0
C      1  0.4093697462552  0.3744983388515  0.2204936693397 1.0
C      1  0.5947590707356  0.6402406193693  0.7365498558156 1.0
C      1  0.5731719665796  0.3384825570439  0.6988893543061 1.0
C      1  0.7124743915701  0.3885087214073  0.3671890127881 1.0
C      1  0.4930442366447  0.4053305425548  0.4532573927608 1.0
C      1  0.5505917922024  0.2850824080584  0.2300233698523 1.0
C      1  0.5983304299750  0.4696854657186  0.7775852904569 1.0
C      1  0.4058878868869  0.3299496791428  0.3035947818268 1.0
C      1  0.5550181568224  0.7680669357654  0.4492651615403 1.0
C      1  0.7038028888650  0.4307580870325  0.6646147221064 1.0
C      1  0.5012396620705  0.6504680458135  0.7484679927495 1.0
C      1  0.7173602437358  0.3175147211392  0.5334778107850 1.0
C      1  0.3458412469488  0.2990439864859  0.6425140055116 1.0
C      1  0.4315842887649  0.6111746464362  0.4232267896826 1.0
C      1  0.7456941516396  0.7342247105610  0.5626763422464 1.0
C      1  0.6612751627408  0.7335479914300  0.6061705659491 1.0
C      1  0.5988770886240  0.6259873254875  0.4991426794118 1.0
C      1  0.4829228344292  0.5427985154152  0.5688809982806 1.0
C      1  0.7777740928833  0.6770681364812  0.5102214959832 1.0
C      1  0.6178511015031  0.2859201282359  0.4431099644284 1.0
C      1  0.5031041056625  0.7036988201385  0.3137600840214 1.0
C      1  0.4905993124122  0.3618022625073  0.7417533898979 1.0
C      1  0.5791068224415  0.7223853658992  0.5403891369461 1.0
C      1  0.2216586462093  0.5671105521901  0.6078779195976 1.0
C      1  0.6004288149666  0.4806566792743  0.2961190344151 1.0
C      1  0.5499532748342  0.2142701976417  0.5876165837974 1.0
C      1  0.6547731477519  0.6794274136369  0.3270407473351 1.0
C      1  0.5824903206809  0.7365330950121  0.3625741975641 1.0
C      1  0.4512395905424  0.6927613201206  0.6769732753415 1.0
C      1  0.4324746807966  0.4087907268204  0.6060154883123 1.0
C      1  0.3935562099544  0.5359854780651  0.1993980654187 1.0
C      1  0.7350620717384  0.4847585599524  0.5262886383388 1.0
C      1  0.5045826203720  0.5860197741107  0.4852898994812 1.0
C      1  0.4206265890370  0.7675799281065  0.5417282350808 1.0
C      1  0.3763077237273  0.5401355644788  0.4114022203144 1.0
C      1  0.6194098388248  0.6280631218158  0.2477749548342 1.0
C      1  0.6610846623055  0.5420599140740  0.2498178974684 1.0
END
