TITL C-10682-722-25 -1.733 3375.00 -282.28371383 0 0 37 (C1) n - 1
REM
REM Run started: at 2020.12.29 07:12:03 in /gpfs/home/chem/mssmkc/CARBON/AIRSS/Generating-Clusters/Str-Search/Higher-Symm/C4-100
REM VASP from code version vasp.5.4.4.18Apr17-6-g9f103f2a35 (build Oct 11 2019 16:45:47) gamma-only
REM
REM
REM
REM
REM ./C.cell (6bd13a13d554368a30d355f37ece5b26)
REM AIRSS Version 0.9.1 bugfix July 2018 build 013d7b7c2542+ Fri, 06 Jul 2018 19:26:36 +0100
REM compiler GCC version 6.3.0
REM options -cpp -iprefix /gpfs/warwick/csc/orac/software/Core/GCCcore/6.3.0/bin/../lib/gcc/x86_64-pc-linux-gnu/6.3.0/ -mtune=generic -march=x86-64 -g -O0
REM seed 1483683315 1847619638 -1917336208 -1512401750 366850364 278991594 1348009115 773430158 -1506490440 -1113312987 1332332528 -580809345
REM
REM C.POTCAR (d86ddea03c3ceb6dc662c8ad6801f873)
REM 
CELL 1.54180   15.00000   15.00000   15.00000   90.00000   90.00000   90.00000
LATT -1
SFAC C  
C      1  0.4050353399890  0.4219359018183  0.6687754818606 1.0
C      1  0.7197785094991  0.4090207236412  0.5484851372595 1.0
C      1  0.3982636223790  0.4217063714524  0.3297715756106 1.0
C      1  0.4387317696903  0.6083742901273  0.6351125222303 1.0
C      1  0.6480192813061  0.5893666689321  0.4913781475478 1.0
C      1  0.4177803002406  0.6088258528745  0.3746173804726 1.0
C      1  0.5575940195609  0.4012621795167  0.5799190670026 1.0
C      1  0.5344218139818  0.4044710244983  0.4078604511851 1.0
C      1  0.4026793347498  0.3874603976526  0.5291770927012 1.0
C      1  0.5790011410901  0.6001831369281  0.6380641535852 1.0
C      1  0.5798264307599  0.5946891400255  0.3656462146641 1.0
C      1  0.3506101423714  0.6087715569371  0.4966991920803 1.0
C      1  0.2880554493904  0.3030612887191  0.4116584146289 1.0
C      1  0.5239005245211  0.3186987092419  0.6399113303393 1.0
C      1  0.6818376812528  0.3154793994683  0.4131484888139 1.0
C      1  0.2915828157590  0.6735840312816  0.4437386008102 1.0
C      1  0.5627251030675  0.6637181383099  0.7166842172657 1.0
C      1  0.6659210539292  0.6492435818903  0.3455823879275 1.0
C      1  0.3750257634141  0.4698062175239  0.5885044956755 1.0
C      1  0.6439956310757  0.4527368453153  0.5759429021533 1.0
C      1  0.4787378956373  0.4615570076935  0.3490033267421 1.0
C      1  0.3825415434376  0.5623609150628  0.5741039005757 1.0
C      1  0.6283611815738  0.5502341045908  0.5726790399911 1.0
C      1  0.4936878203206  0.5574746566214  0.3551692339308 1.0
C      1  0.3469902182807  0.3617237152002  0.3633144148958 1.0
C      1  0.4285514195463  0.3395562698081  0.6197977680484 1.0
C      1  0.7210097995931  0.3570463308886  0.4812567250463 1.0
C      1  0.3908667931568  0.6808664388276  0.4336626974828 1.0
C      1  0.5082103662330  0.6759240924300  0.6326780150415 1.0
C      1  0.6196031110326  0.6624771528974  0.4331140414520 1.0
C      1  0.5010663594434  0.4066278098872  0.6667912452731 1.0
C      1  0.6076111826851  0.3528069848456  0.3907338742945 1.0
C      1  0.3466536075728  0.3440103023895  0.4645852983446 1.0
C      1  0.5030855978384  0.5842615242385  0.7044057706008 1.0
C      1  0.6705658568817  0.5637175971733  0.3992826178343 1.0
C      1  0.3257704861803  0.5893553747148  0.4004133776886 1.0
C      1  0.5015221325586  0.4045150665764  0.4995222989434 1.0
END
