TITL C-10712-1074-46 -6.107 3375.00 -1057.85467696 0 0 129 (C1) n - 1
REM
REM Run started: at 2020.12.28 13:09:03 in /gpfs/home/chem/mssmkc/CARBON/AIRSS/Generating-Clusters/Str-Search/Higher-Symm/C100-200
REM VASP from code version vasp.5.4.4.18Apr17-6-g9f103f2a35 (build Oct 11 2019 16:45:47) gamma-only
REM
REM
REM
REM
REM ./C.cell (533062f00bc710175b3da973d35f2034)
REM AIRSS Version 0.9.1 bugfix July 2018 build 013d7b7c2542+ Fri, 06 Jul 2018 19:26:36 +0100
REM compiler GCC version 6.3.0
REM options -cpp -iprefix /gpfs/warwick/csc/orac/software/Core/GCCcore/6.3.0/bin/../lib/gcc/x86_64-pc-linux-gnu/6.3.0/ -mtune=generic -march=x86-64 -g -O0
REM seed -888419387 1089544630 -63176245 -1732060150 713040492 -1353337989 -303061124 2108942621 1266350885 1046614521 327178375 -769925440
REM
REM C.POTCAR (d86ddea03c3ceb6dc662c8ad6801f873)
REM 
CELL 1.54180   15.00000   15.00000   15.00000   90.00000   90.00000   90.00000
LATT -1
SFAC C  
C      1  0.7510588602183  0.9216345105356  0.2895900795310 1.0
C      1  0.5178588762496  0.6332216179044  0.3661434765094 1.0
C      1  0.3752927669605  0.2969312314020  0.2463221797569 1.0
C      1  0.6260473809024  0.4263364967980  0.2528510658944 1.0
C      1  0.8298208288851  0.4672848938277  0.5775032129037 1.0
C      1  0.2882613799146  0.5856242657453  0.3087635408182 1.0
C      1  0.3576338323768  0.6262088790787  0.7554667656228 1.0
C      1  0.4800564046254  0.5529908725008  0.4050393394496 1.0
C      1  0.4976548954457  0.8340627112992  0.5844518059689 1.0
C      1  0.4667396659052  0.3149289777807  0.6108036218612 1.0
C      1  0.6088237899369  0.8385546425815  0.3274104510202 1.0
C      1  0.7674725499291  0.6992029619053  0.4953147232885 1.0
C      1  0.3500286203042  0.6404716211300  0.3643195610482 1.0
C      1  0.7003919469192  0.5300151175120  0.6920171498914 1.0
C      1  0.4120071015511  0.7666095752570  0.2855262614283 1.0
C      1  0.4840885799561  0.6007063148824  0.1652442643081 1.0
C      1  0.3923831060339  0.3803470688294  0.5750537594748 1.0
C      1  0.8268597760149  0.3869123543519  0.5245392936608 1.0
C      1  0.4840817562472  0.3042147271402  0.4525865853706 1.0
C      1  0.5671604036945  0.7865925011903  0.3907014540306 1.0
C      1  0.7477823859838  0.2806451453365  0.4908139691807 1.0
C      1  0.4523697263140  0.1725977667211  0.5366458058307 1.0
C      1  0.6683197605981  0.8862578696695  0.2938723408749 1.0
C      1  0.2012502724946  0.3875917307527  0.5148265511257 1.0
C      1  0.6064061415267  0.5924157569417  0.2379269400354 1.0
C      1  0.6437367457719  0.4167562999204  0.5281375186807 1.0
C      1  0.2774642288117  0.6525624799090  0.6256183755015 1.0
C      1  0.3342920885983  0.5633927021411  0.2311674606857 1.0
C      1  0.3676034203229  0.5772131949449  0.5319064680807 1.0
C      1  0.5847385949216  0.7989697272054  0.6021921269394 1.0
C      1  0.6073538369211  0.3311640009542  0.2591527639420 1.0
C      1  0.3339505943318  0.4737267808145  0.1943830657009 1.0
C      1  0.6617067800168  0.4352295324264  0.8310412493912 1.0
C      1  0.3557636508685  0.7701014791057  0.5434106727840 1.0
C      1  0.3539722750613  0.3760889809539  0.7795546357209 1.0
C      1  0.4250083337805  0.1576751394807  0.4482139743800 1.0
C      1  0.7742915785394  0.2773035416514  0.6523469706712 1.0
C      1  0.4321595254896  0.6711933971560  0.3050629651859 1.0
C      1  0.5349813560998  0.2348274763314  0.7250407910571 1.0
C      1  0.2903539284910  0.3287444433030  0.2657288452173 1.0
C      1  0.4391054582123  0.8170411955726  0.5153802283557 1.0
C      1  0.6025748049476  0.2595819665834  0.5720869257668 1.0
C      1  0.8282573895102  0.5630491899794  0.5791909448141 1.0
C      1  0.7047965876322  0.2458399917873  0.6863785343259 1.0
C      1  0.4950824817272  0.5128792630285  0.5832146524674 1.0
C      1  0.4455305128585  0.2338867268325  0.3858668737346 1.0
C      1  0.2958271402529  0.7210681407570  0.4891080501101 1.0
C      1  0.3271698581040  0.4857599838143  0.4078180295775 1.0
C      1  0.7295167098067  0.2006857724245  0.4358138395700 1.0
C      1  0.6687070536506  0.5792254598643  0.5304867937121 1.0
C      1  0.6626145492295  0.3250995807173  0.5287562352173 1.0
C      1  0.2627283399271  0.5067178446009  0.7032184250427 1.0
C      1  0.3603044122815  0.7116528575060  0.6267370173721 1.0
C      1  0.6843956919342  0.4503524864165  0.3247803534438 1.0
C      1  0.4253934037868  0.4394247957127  0.1726623234566 1.0
C      1  0.2119799666497  0.5548742852350  0.4789261117683 1.0
C      1  0.8220892975723  0.6398750772148  0.5361783934481 1.0
C      1  0.3853601716070  0.5634576020466  0.4302613580717 1.0
C      1  0.2715488734024  0.6269380526247  0.5284008371095 1.0
C      1  0.6749915656221  0.2972848270190  0.3176173989550 1.0
C      1  0.6205612791894  0.7185705336936  0.5775967549653 1.0
C      1  0.6421367710843  0.5170742508670  0.7763748075715 1.0
C      1  0.4142297198685  0.3735564164402  0.4777455790057 1.0
C      1  0.3890434823851  0.1911460705459  0.6052671386285 1.0
C      1  0.4336917081672  0.2499887401664  0.6812934702558 1.0
C      1  0.3981758673638  0.7047852874981  0.7228370112589 1.0
C      1  0.2143331949700  0.4656559962072  0.6345488470537 1.0
C      1  0.4413246799795  0.3509452453374  0.1968732253305 1.0
C      1  0.5060888819767  0.6089175616703  0.5981605359798 1.0
C      1  0.2802483628346  0.6015387188738  0.7004056708004 1.0
C      1  0.8072295371851  0.3043738484756  0.5690322189843 1.0
C      1  0.5507100915707  0.4331852366925  0.5602296958903 1.0
C      1  0.5170372722825  0.3027562735131  0.2404941688509 1.0
C      1  0.3930884648619  0.5432394771629  0.7911799074182 1.0
C      1  0.4109053814956  0.3510733531432  0.8505180565949 1.0
C      1  0.3494275630474  0.2017169473227  0.4199932449809 1.0
C      1  0.1902676122347  0.4848169443919  0.5343001880891 1.0
C      1  0.6118550816144  0.2333709867520  0.6641915266166 1.0
C      1  0.5812257217778  0.4973341165473  0.2128322027327 1.0
C      1  0.5990284454068  0.6884213435268  0.4055887369351 1.0
C      1  0.3135584784089  0.2394578779266  0.5702044420006 1.0
C      1  0.5903752740134  0.6467308567200  0.6433459777419 1.0
C      1  0.4890769747784  0.7332620256409  0.7288195983750 1.0
C      1  0.3359917758610  0.7942793187928  0.3411644241256 1.0
C      1  0.5341606686461  0.4808972039186  0.4057184376228 1.0
C      1  0.8301969246713  0.8406732776821  0.4121266145682 1.0
C      1  0.5636029835205  0.6686596412273  0.7385947579082 1.0
C      1  0.2914528797706  0.2483959868944  0.4774388502239 1.0
C      1  0.4908602480724  0.5364990214572  0.8028221208358 1.0
C      1  0.4235352596103  0.6436361272298  0.5811073786695 1.0
C      1  0.5726719628186  0.5980406088275  0.7972850558807 1.0
C      1  0.6424565408553  0.3531838013682  0.8244582374713 1.0
C      1  0.6339373419504  0.5128166250028  0.3853598199095 1.0
C      1  0.4975888429109  0.5029645170195  0.1685338993326 1.0
C      1  0.4517751309886  0.2530850723305  0.2910248109216 1.0
C      1  0.6886584236044  0.2184031545839  0.3643627533246 1.0
C      1  0.2413054733596  0.5196800065544  0.3700605832983 1.0
C      1  0.7813966889031  0.3601219969625  0.4383331809351 1.0
C      1  0.5530469465877  0.3117177686182  0.7922798171707 1.0
C      1  0.5303267433865  0.3780750397110  0.6391987426449 1.0
C      1  0.8012408618079  0.7774018217943  0.4578204556889 1.0
C      1  0.5105073759760  0.2554984215914  0.5378148417210 1.0
C      1  0.2710125974091  0.4193055364159  0.2343302010711 1.0
C      1  0.3380278680204  0.4000803831898  0.4283438141317 1.0
C      1  0.5476767551667  0.4756492896781  0.7648546614498 1.0
C      1  0.4234322844648  0.8312416176299  0.3526084116950 1.0
C      1  0.2297763993832  0.3769806404746  0.6038536023186 1.0
C      1  0.4054245985469  0.4863311248250  0.5813698105965 1.0
C      1  0.5381323811353  0.3908964297914  0.7270110861078 1.0
C      1  0.5161969870810  0.8004895738475  0.6708649001276 1.0
C      1  0.4834459084440  0.3143569306912  0.8637785642413 1.0
C      1  0.4812456955126  0.8204697832637  0.4258039579017 1.0
C      1  0.6596472911825  0.6745228002032  0.4957089501695 1.0
C      1  0.5629972307375  0.6541120080031  0.1835179359237 1.0
C      1  0.8083869832949  0.8944183553197  0.3450402256720 1.0
C      1  0.3548596963177  0.3116810514571  0.7117311597607 1.0
C      1  0.2307808416297  0.3492142250929  0.3450955528432 1.0
C      1  0.7893547494728  0.5068545985822  0.6504035662861 1.0
C      1  0.6594886845310  0.5790697622267  0.6275318842455 1.0
C      1  0.3105032732184  0.3261005097601  0.6218222384302 1.0
C      1  0.6663448242921  0.5036561813588  0.4807610845909 1.0
C      1  0.3316371991436  0.4709989461590  0.7653544769869 1.0
C      1  0.6142761406862  0.6079847328736  0.3371254669636 1.0
C      1  0.5074364676219  0.4040825651056  0.4634333922035 1.0
C      1  0.3078650414315  0.7245167713318  0.3966648766938 1.0
C      1  0.2534811218439  0.3379665209576  0.4420576615989 1.0
C      1  0.4120788778247  0.6185263858151  0.2208893499064 1.0
C      1  0.2131520723054  0.4376862433323  0.3138795657553 1.0
C      1  0.7298031937758  0.3748564248230  0.3592508048718 1.0
END
