TITL C-10012-4540-2 -5.148 3375.00 -894.77685343 0 0 108 (C1) n - 1
REM
REM Run started: at 2020.12.31 07:21:30 in /gpfs/home/chem/mssmkc/CARBON/AIRSS/Generating-Clusters/Str-Search/Higher-Symm/C100-200
REM VASP from code version vasp.5.4.4.18Apr17-6-g9f103f2a35 (build Oct 11 2019 16:45:47) gamma-only
REM
REM
REM
REM
REM ./C.cell (533062f00bc710175b3da973d35f2034)
REM AIRSS Version 0.9.1 bugfix July 2018 build 013d7b7c2542+ Fri, 06 Jul 2018 19:26:36 +0100
REM compiler GCC version 6.3.0
REM options -cpp -iprefix /gpfs/warwick/csc/orac/software/Core/GCCcore/6.3.0/bin/../lib/gcc/x86_64-pc-linux-gnu/6.3.0/ -mtune=generic -march=x86-64 -g -O0
REM seed 251228573 1910151571 1253300344 -1753883116 -950116532 565350169 287080377 -592495063 -1763496302 -773632418 -1497402114 580507207
REM
REM C.POTCAR (d86ddea03c3ceb6dc662c8ad6801f873)
REM 
CELL 1.54180   15.00000   15.00000   15.00000   90.00000   90.00000   90.00000
LATT -1
SFAC C  
C      1  0.6188521406523  0.5066533308533  0.6467764956239 1.0
C      1  0.4736941167503  0.4916223699705  0.5920904683919 1.0
C      1  0.4188679798231  0.4514969687257  0.4536782681697 1.0
C      1  0.5385552266272  0.5324843584807  0.3540839288056 1.0
C      1  0.6455913897333  0.5612433611822  0.4816774360322 1.0
C      1  0.6212536752379  0.5493007678957  0.3935708718639 1.0
C      1  0.4578272648452  0.4975254760879  0.3855025007833 1.0
C      1  0.4631664684972  0.4229029274156  0.5336308541287 1.0
C      1  0.5324240054322  0.4931639727380  0.6646793490518 1.0
C      1  0.6603786758233  0.5314641451771  0.5674626291389 1.0
C      1  0.2957965098569  0.2717096298183  0.4212999696178 1.0
C      1  0.5020359327179  0.2694545574768  0.2698527274824 1.0
C      1  0.6957103025847  0.2535610730955  0.4410904638414 1.0
C      1  0.6047212862039  0.2340159339694  0.6819741765356 1.0
C      1  0.3468031132415  0.2527939142045  0.6771807157932 1.0
C      1  0.2888036897461  0.2560041280972  0.5985890000056 1.0
C      1  0.5173208846670  0.2335260239711  0.7179528438956 1.0
C      1  0.6976256654373  0.2476606272656  0.5361034966862 1.0
C      1  0.5941141221100  0.2658278154991  0.2998325947153 1.0
C      1  0.3401251581113  0.2700414379360  0.3378986810867 1.0
C      1  0.3347246525040  0.1823003326590  0.5576394495485 1.0
C      1  0.3962571281950  0.1948281191377  0.3641091201129 1.0
C      1  0.5744474605845  0.1907921177122  0.3594118661551 1.0
C      1  0.6272526776225  0.1779651426178  0.5351322520431 1.0
C      1  0.4846451055733  0.1692618600055  0.6530387487185 1.0
C      1  0.3637717625225  0.2083462337384  0.4643403588294 1.0
C      1  0.3948722089324  0.1752967455260  0.6368783092427 1.0
C      1  0.5777534433038  0.1708194190703  0.6117505025003 1.0
C      1  0.6256792259570  0.1865371301493  0.4353212516208 1.0
C      1  0.4805005774325  0.1947463868546  0.3291213740880 1.0
C      1  0.6202349082545  0.4051197674549  0.2457846286984 1.0
C      1  0.7592073869005  0.3890126658655  0.5465375262684 1.0
C      1  0.5473231424546  0.3621583716106  0.7896819277310 1.0
C      1  0.2739714601019  0.4098446890195  0.6190160630588 1.0
C      1  0.2950094017957  0.4186010786121  0.3150416780199 1.0
C      1  0.6400175059104  0.3632537580988  0.7565800584030 1.0
C      1  0.7619392447427  0.3906495441960  0.4477489062253 1.0
C      1  0.5259888847113  0.4095990228324  0.2153533520439 1.0
C      1  0.2419623342903  0.4150060940565  0.3985416756072 1.0
C      1  0.3304879067088  0.4100652316454  0.6997551254909 1.0
C      1  0.2901090132095  0.5171740921751  0.3147883449716 1.0
C      1  0.6381840606933  0.4943262465484  0.2056737219628 1.0
C      1  0.7927104520114  0.4858838278085  0.5487398813708 1.0
C      1  0.5608652991176  0.4550070413279  0.8173517475521 1.0
C      1  0.2797688100898  0.5095611354645  0.6122197008023 1.0
C      1  0.3290567252177  0.5068465734108  0.7029949905231 1.0
C      1  0.6518436805679  0.4598919836468  0.7952073033660 1.0
C      1  0.7952988174392  0.4829572071696  0.4501263626918 1.0
C      1  0.5440064706974  0.4971601455377  0.1734729698658 1.0
C      1  0.2456190630055  0.5167219299687  0.4106578269386 1.0
C      1  0.7132371993741  0.3318835819434  0.3900971434259 1.0
C      1  0.6652328377023  0.3090479012123  0.6829040091331 1.0
C      1  0.3815542960765  0.3271768074461  0.7230807678106 1.0
C      1  0.2529174105107  0.3438271486153  0.4616378300203 1.0
C      1  0.4547884401114  0.3485864162009  0.2482199682048 1.0
C      1  0.7161691973471  0.3185882605381  0.5965205108512 1.0
C      1  0.6537839723557  0.3388111364239  0.3078680039472 1.0
C      1  0.3599780818474  0.3501607406784  0.2879658282472 1.0
C      1  0.2586846412475  0.3394224994663  0.5603634534880 1.0
C      1  0.4762247624891  0.3113420291648  0.7546008519057 1.0
C      1  0.6288693273447  0.6614324524656  0.2475571026088 1.0
C      1  0.6902596627178  0.7285132155472  0.5745472340535 1.0
C      1  0.5003480794588  0.6855459071640  0.7566448853702 1.0
C      1  0.2722015805306  0.6726921142696  0.6172167593488 1.0
C      1  0.2961259610301  0.6868766088100  0.3372499930141 1.0
C      1  0.5946945681496  0.7021732677642  0.7305510334145 1.0
C      1  0.7075928906766  0.7090654954702  0.4824667267085 1.0
C      1  0.5304469559025  0.6661089248270  0.2343720213855 1.0
C      1  0.2642473722293  0.6871499086005  0.4278642451403 1.0
C      1  0.3316431188012  0.6677451692560  0.6936165356234 1.0
C      1  0.3406239782445  0.5547069480141  0.5460807997955 1.0
C      1  0.3796933365362  0.5523874863671  0.3709712479824 1.0
C      1  0.7026272134265  0.5852459433409  0.3378165325550 1.0
C      1  0.7505555059173  0.5782072198427  0.5757422513906 1.0
C      1  0.5325127124896  0.5321868078421  0.7612877770541 1.0
C      1  0.3434751075009  0.5173520647439  0.4564157210304 1.0
C      1  0.4331507310893  0.5792410971127  0.5693653670357 1.0
C      1  0.6375041337184  0.5472149471799  0.7391179773325 1.0
C      1  0.7401327825895  0.6176281255723  0.4815449787518 1.0
C      1  0.5083170194794  0.5789810687278  0.2793494561636 1.0
C      1  0.6725339446908  0.5710156261813  0.2423062571693 1.0
C      1  0.7180827045230  0.6561681666796  0.6353451177807 1.0
C      1  0.4617812003432  0.6022646850103  0.7671793310652 1.0
C      1  0.2476053108747  0.5948998814734  0.5625381599746 1.0
C      1  0.3342776013408  0.6043961204665  0.3015093486661 1.0
C      1  0.6657012199924  0.6417017187359  0.7155357261161 1.0
C      1  0.7728906503772  0.5619574380778  0.4078713380190 1.0
C      1  0.4934784937068  0.5786462163588  0.1896114679152 1.0
C      1  0.2237548232240  0.6058844093298  0.4626707852291 1.0
C      1  0.3706058023150  0.5892842882764  0.7333764195864 1.0
C      1  0.3677347867427  0.6961983954093  0.2818752183088 1.0
C      1  0.6723648852210  0.6830162422398  0.3286383002947 1.0
C      1  0.6117592765492  0.7825745284839  0.5900557176998 1.0
C      1  0.4684131258067  0.7571905012507  0.6974763336771 1.0
C      1  0.3201596085265  0.7443704349536  0.5779770416075 1.0
C      1  0.3816454232252  0.7467560457438  0.6634488240460 1.0
C      1  0.5657288275821  0.7713001517523  0.6710141801069 1.0
C      1  0.6580005948744  0.7387388654880  0.4044866421275 1.0
C      1  0.4627086888180  0.7240631029979  0.2877166237531 1.0
C      1  0.3272083269448  0.7429131975480  0.4813877234737 1.0
C      1  0.4161348315734  0.7583082704334  0.4464117335001 1.0
C      1  0.5725308775046  0.7802120371591  0.4208571100842 1.0
C      1  0.4742192852575  0.7424656595074  0.5204444419202 1.0
C      1  0.4734567610469  0.6575507346302  0.5587519710641 1.0
C      1  0.4819133047860  0.7627849591791  0.3719821293978 1.0
C      1  0.5559317155507  0.7927653831896  0.5129882404424 1.0
C      1  0.4381720423294  0.2654975475911  0.4945205639757 1.0
C      1  0.4725094907320  0.3302026834652  0.5318718441048 1.0
END
