TITL C-10682-722-143 -1.831 3375.00 -279.12210027 0 0 35 (C1) n - 1
REM
REM Run started: at 2020.12.30 03:30:59 in /gpfs/home/chem/mssmkc/CARBON/AIRSS/Generating-Clusters/Str-Search/Higher-Symm/C4-100
REM VASP from code version vasp.5.4.4.18Apr17-6-g9f103f2a35 (build Oct 11 2019 16:45:47) gamma-only
REM
REM
REM
REM
REM ./C.cell (6bd13a13d554368a30d355f37ece5b26)
REM AIRSS Version 0.9.1 bugfix July 2018 build 013d7b7c2542+ Fri, 06 Jul 2018 19:26:36 +0100
REM compiler GCC version 6.3.0
REM options -cpp -iprefix /gpfs/warwick/csc/orac/software/Core/GCCcore/6.3.0/bin/../lib/gcc/x86_64-pc-linux-gnu/6.3.0/ -mtune=generic -march=x86-64 -g -O0
REM seed 455801642 -2011701140 -2093613790 1404517212 1667862454 1045418469 -1606304130 5493125 -17806525 2010764379 1244419983 -1857392505
REM
REM C.POTCAR (d86ddea03c3ceb6dc662c8ad6801f873)
REM 
CELL 1.54180   15.00000   15.00000   15.00000   90.00000   90.00000   90.00000
LATT -1
SFAC C  
C      1  0.3911034776809  0.6558301842103  0.5476013851644 1.0
C      1  0.4425944518530  0.3709379559999  0.6604654788210 1.0
C      1  0.3984037818580  0.4690440598633  0.3057856138370 1.0
C      1  0.5781419148915  0.7044244545973  0.4404460656694 1.0
C      1  0.6505634430341  0.4418235234950  0.7023674012847 1.0
C      1  0.5888992658489  0.3788395564410  0.3174712303399 1.0
C      1  0.5519650901382  0.6466798926457  0.2915397873978 1.0
C      1  0.5780611815589  0.5942126641318  0.6981315975281 1.0
C      1  0.5741783975335  0.3061392689195  0.4693509673952 1.0
C      1  0.4155102469171  0.5959644569341  0.6872319428605 1.0
C      1  0.4176720024410  0.3285753894436  0.5137737368526 1.0
C      1  0.3939143901094  0.6229202132616  0.2874510061259 1.0
C      1  0.3908133186625  0.3480020659964  0.4272739316876 1.0
C      1  0.3595799053090  0.6284957938035  0.3769574427159 1.0
C      1  0.3590580791360  0.5244271236919  0.6661039857640 1.0
C      1  0.5940608744641  0.3313030995919  0.3921767159624 1.0
C      1  0.5887685863227  0.6898122684445  0.3533675497820 1.0
C      1  0.6269514078636  0.5296065252769  0.7138986515796 1.0
C      1  0.5002350159101  0.6326600784075  0.6643080783025 1.0
C      1  0.5121539901554  0.3112719739303  0.5378307487309 1.0
C      1  0.4830097276675  0.5958614392062  0.2594770408749 1.0
C      1  0.5496213071446  0.7032908834771  0.5187845127972 1.0
C      1  0.6088220434844  0.3710584863260  0.6642783621367 1.0
C      1  0.5536158707499  0.4391804202264  0.2715028566064 1.0
C      1  0.3765048428371  0.3600914690712  0.5931060815378 1.0
C      1  0.3458230144677  0.5486727663841  0.3168410139638 1.0
C      1  0.3477885324892  0.6123037766477  0.6240865083178 1.0
C      1  0.3672152810729  0.6505409854500  0.4608347965564 1.0
C      1  0.3730610337092  0.4341139311088  0.6530526428832 1.0
C      1  0.3882384201937  0.3939787462151  0.3587538767187 1.0
C      1  0.4856611186978  0.6744507366658  0.5789969834272 1.0
C      1  0.5274514539785  0.3407719593990  0.6298464831844 1.0
C      1  0.4818793987446  0.4970397550928  0.2635649567005 1.0
C      1  0.7037533510415  0.3829553576215  0.6427767135746 1.0
C      1  0.7737039820335  0.3571550380223  0.5965041529191 1.0
END
