TITL C-10012-4540-60 -9.301 3375.00 -1491.62553067 0 0 182 (C1) n - 1
REM
REM Run started: at 2021.01.02 05:15:02 in /gpfs/home/chem/mssmkc/CARBON/AIRSS/Generating-Clusters/Str-Search/Higher-Symm/C100-200
REM VASP from code version vasp.5.4.4.18Apr17-6-g9f103f2a35 (build Oct 11 2019 16:45:47) gamma-only
REM
REM
REM
REM
REM ./C.cell (533062f00bc710175b3da973d35f2034)
REM AIRSS Version 0.9.1 bugfix July 2018 build 013d7b7c2542+ Fri, 06 Jul 2018 19:26:36 +0100
REM compiler GCC version 6.3.0
REM options -cpp -iprefix /gpfs/warwick/csc/orac/software/Core/GCCcore/6.3.0/bin/../lib/gcc/x86_64-pc-linux-gnu/6.3.0/ -mtune=generic -march=x86-64 -g -O0
REM seed 2019027210 -882208561 384994666 -1761896477 -561930658 1725175176 -1000818848 -2127523433 -474237323 -1360666069 -1260583137 -1851726636
REM
REM C.POTCAR (d86ddea03c3ceb6dc662c8ad6801f873)
REM 
CELL 1.54180   15.00000   15.00000   15.00000   90.00000   90.00000   90.00000
LATT -1
SFAC C  
C      1  0.6154835005678  0.5112902725864  0.2989839874332 1.0
C      1  0.5804628217025  0.5972269428714  0.3380696126064 1.0
C      1  0.5111162143078  0.6286166703445  0.3880848314528 1.0
C      1  0.4221940995912  0.6066038643816  0.4218016479239 1.0
C      1  0.3720807962378  0.5246539206665  0.3998600198177 1.0
C      1  0.3761868549465  0.4236154122429  0.4198143999380 1.0
C      1  0.4417491230604  0.3525018156121  0.3871138639343 1.0
C      1  0.5230801470901  0.3587307968188  0.3422123802967 1.0
C      1  0.5937748040411  0.4228589968581  0.3406537174854 1.0
C      1  0.1944312017069  0.7937570945239  0.4259890833842 1.0
C      1  0.0720714059181  0.5174778349760  0.4110561387295 1.0
C      1  0.2162769246015  0.2554463313911  0.4063345990777 1.0
C      1  0.4496974323177  0.0472576465187  0.4009751023826 1.0
C      1  0.7014933537704  0.1346899868263  0.4227981634138 1.0
C      1  0.8826217843784  0.3496533558424  0.4113110379922 1.0
C      1  0.8881128877806  0.6158908107075  0.4247119897417 1.0
C      1  0.7245486055318  0.8509314938724  0.4273883617358 1.0
C      1  0.4436669252207  0.9524299811541  0.4119222629666 1.0
C      1  0.2814865375650  0.7576252063319  0.5825428764832 1.0
C      1  0.0998663550893  0.5802402597248  0.5812557262742 1.0
C      1  0.2030487039793  0.3444139951571  0.5718755701560 1.0
C      1  0.3810207465920  0.2039412655116  0.5751151385032 1.0
C      1  0.6205228552000  0.1897542007281  0.5793323888161 1.0
C      1  0.8442454137533  0.3073255950247  0.5845198570389 1.0
C      1  0.8328200051761  0.5556162286117  0.5855079159530 1.0
C      1  0.7211097924717  0.7764101419963  0.5918050359059 1.0
C      1  0.4964646177513  0.9075028855927  0.5863375684244 1.0
C      1  0.1829575361514  0.7329468125745  0.5913660760768 1.0
C      1  0.1021309819586  0.4880052027437  0.5811245287471 1.0
C      1  0.2152170960629  0.2416782416681  0.5759818402884 1.0
C      1  0.4531238724840  0.1312264338820  0.5622206587938 1.0
C      1  0.7209782389200  0.1844011721071  0.5914412114896 1.0
C      1  0.8821704640139  0.3906142154809  0.5867803986441 1.0
C      1  0.8451340393969  0.6585336372372  0.5919632392382 1.0
C      1  0.6590645102532  0.8566296670201  0.5939246783687 1.0
C      1  0.4017404843972  0.8890716334094  0.5805563067979 1.0
C      1  0.8036753181473  0.7309592986460  0.6411498562059 1.0
C      1  0.5752742310411  0.8845115006355  0.6360297645337 1.0
C      1  0.3321902046277  0.8383673596468  0.6254415660008 1.0
C      1  0.1407712703345  0.6549905185108  0.6290131634186 1.0
C      1  0.1385336385100  0.4083235826786  0.6206131956354 1.0
C      1  0.2898791171938  0.1957007391287  0.6204475467298 1.0
C      1  0.5383002616181  0.1303002814730  0.6153345750896 1.0
C      1  0.7788328747251  0.2506974873023  0.6316860597500 1.0
C      1  0.8787546827043  0.4762245456425  0.6334537307002 1.0
C      1  0.6722857648196  0.3795651291095  0.3674195253155 1.0
C      1  0.7191252871177  0.5198829271628  0.3290231112186 1.0
C      1  0.6536418985557  0.6657581484047  0.3485259625812 1.0
C      1  0.5197908374217  0.7248059994731  0.4009853758153 1.0
C      1  0.3649309025518  0.6903920006289  0.3883292406003 1.0
C      1  0.2839052093992  0.5487234178277  0.4010493335969 1.0
C      1  0.2836553352194  0.3972584565491  0.3874629698451 1.0
C      1  0.4352444947206  0.2598248658446  0.4164887192690 1.0
C      1  0.5666415722511  0.2665170454330  0.3445324199963 1.0
C      1  0.2024465259624  0.7734613236531  0.5144989493173 1.0
C      1  0.0843237841109  0.5332165016704  0.4983935937613 1.0
C      1  0.1901619920489  0.2761614238340  0.4978321068632 1.0
C      1  0.4264028073936  0.1086844691243  0.4770590611899 1.0
C      1  0.6929989128253  0.1575394327088  0.5101780784973 1.0
C      1  0.8739885096746  0.3466348367918  0.4998880859456 1.0
C      1  0.8667648966749  0.6205130343627  0.5131953527212 1.0
C      1  0.7054254171606  0.8421524626917  0.5168590756035 1.0
C      1  0.4450127644116  0.9254558889070  0.5079174194514 1.0
C      1  0.6577189415689  0.6652954859294  0.6946160852471 1.0
C      1  0.5695820959807  0.6745925334183  0.7202498173846 1.0
C      1  0.4167761329415  0.6999879144231  0.6700231951039 1.0
C      1  0.3124427228341  0.6019466493145  0.6602871838320 1.0
C      1  0.3127694876695  0.4373463785185  0.6753377662065 1.0
C      1  0.3516443177788  0.3439714304607  0.6692699714965 1.0
C      1  0.5179757853157  0.2894974276905  0.6738773605634 1.0
C      1  0.6081402935621  0.3446727613568  0.6793780452643 1.0
C      1  0.7081395820149  0.4779530748015  0.6670752066912 1.0
C      1  0.2716409829683  0.6459249366351  0.4024965285004 1.0
C      1  0.2280572530271  0.4704937525687  0.3903282135436 1.0
C      1  0.3710746251523  0.1989824876263  0.4630439885778 1.0
C      1  0.5003817169805  0.2061707180805  0.3782030041913 1.0
C      1  0.6592695814632  0.2855366604819  0.3733931416819 1.0
C      1  0.7478057659298  0.4324474962251  0.3604583420253 1.0
C      1  0.7329539817272  0.6112895655736  0.3633557276741 1.0
C      1  0.6096364441924  0.7445365202424  0.3849177012750 1.0
C      1  0.4347807434992  0.7698583244272  0.3909535622623 1.0
C      1  0.5325046103538  0.6421253573187  0.8706378835742 1.0
C      1  0.4393042829928  0.6283817768442  0.8719060532814 1.0
C      1  0.3704311990430  0.5553229636476  0.8675898035460 1.0
C      1  0.3598786761812  0.4649624029830  0.8719292090651 1.0
C      1  0.4120949936481  0.3792007498869  0.8734135550142 1.0
C      1  0.4994723621131  0.3543882229997  0.8732622217234 1.0
C      1  0.5892058869808  0.4008295978348  0.8716324497752 1.0
C      1  0.6274261121746  0.4842648238939  0.8671259852355 1.0
C      1  0.6066970813317  0.5829960253549  0.8738466885453 1.0
C      1  0.5992991795068  0.5830524214071  0.1309944565784 1.0
C      1  0.5180285528008  0.6371396896185  0.1243083984664 1.0
C      1  0.4268550395526  0.6164300539611  0.1331987560786 1.0
C      1  0.3665239761295  0.5421219448722  0.1407208670721 1.0
C      1  0.3648868550831  0.4477646334715  0.1471131889174 1.0
C      1  0.4228085093902  0.3736272835769  0.1428198598804 1.0
C      1  0.5147818155683  0.3595448296927  0.1276009937768 1.0
C      1  0.5952704786059  0.4185884175669  0.1385178334727 1.0
C      1  0.6445012027741  0.4989149206097  0.1064961258053 1.0
C      1  0.1720262932822  0.6361268926002  0.7139020237148 1.0
C      1  0.1629649177170  0.4187086095759  0.7067899448458 1.0
C      1  0.2912545385556  0.2102372371491  0.7098538916760 1.0
C      1  0.5296881880226  0.1474578737927  0.7037011200908 1.0
C      1  0.7483724397175  0.2771096983464  0.7140314640970 1.0
C      1  0.8492658976620  0.4723181431946  0.7191132634030 1.0
C      1  0.7939929659145  0.7144855365161  0.7316158430888 1.0
C      1  0.5643207650637  0.8553599522365  0.7246501380474 1.0
C      1  0.3503986780205  0.8203816962006  0.7124793503422 1.0
C      1  0.3091244559508  0.6210394629391  0.8229392926333 1.0
C      1  0.2848036734174  0.4141396994022  0.8316206774630 1.0
C      1  0.3331969248556  0.3341486761486  0.8312178351961 1.0
C      1  0.5423908818241  0.2726165815854  0.8338197580505 1.0
C      1  0.6253705188089  0.3164249887296  0.8329486985215 1.0
C      1  0.7157637627609  0.5107252751176  0.8271679301365 1.0
C      1  0.6961243384898  0.6031042489013  0.8357572718227 1.0
C      1  0.5532162795860  0.7165171275020  0.8077155103208 1.0
C      1  0.3744270235594  0.6885440588203  0.8286966282498 1.0
C      1  0.4426571986139  0.8144541717945  0.2863084055043 1.0
C      1  0.2940947157082  0.6947904900287  0.3144609272000 1.0
C      1  0.1510624681392  0.4983823022934  0.2619417479553 1.0
C      1  0.2712134975929  0.3095951569181  0.3407473314283 1.0
C      1  0.4544165406468  0.1540728204204  0.2535885447807 1.0
C      1  0.6409957168372  0.2319704355693  0.2834737088660 1.0
C      1  0.8147854120558  0.3907364172722  0.2531463617969 1.0
C      1  0.7851209653888  0.5794671677436  0.2777534116032 1.0
C      1  0.6611531111519  0.7516446995299  0.2883484959671 1.0
C      1  0.7343050502385  0.4998172874228  0.1474827190345 1.0
C      1  0.6720844066708  0.6421149912757  0.1672364756502 1.0
C      1  0.5370263949325  0.7195225972304  0.1731018196058 1.0
C      1  0.3883722820371  0.6896087304985  0.1857447391572 1.0
C      1  0.2874749038708  0.5734407183054  0.1915671347744 1.0
C      1  0.2884999004820  0.4193508773674  0.2023090704495 1.0
C      1  0.3847546973459  0.3002222899193  0.1968260893573 1.0
C      1  0.5375157688618  0.2753718625697  0.1659889938711 1.0
C      1  0.6684599215334  0.3594994815638  0.1741251698818 1.0
C      1  0.7489450538193  0.5875388686791  0.1860728893557 1.0
C      1  0.6286997334395  0.7218445433870  0.2003497364801 1.0
C      1  0.4531875463879  0.7546610797066  0.2120826533759 1.0
C      1  0.3070610576121  0.6588792204776  0.2260937754840 1.0
C      1  0.2330983414630  0.4974049996794  0.2194860367240 1.0
C      1  0.3030244217780  0.3308731219719  0.2415763649702 1.0
C      1  0.4561820084181  0.2321559235630  0.2052948333633 1.0
C      1  0.6288289145146  0.2763576314620  0.1972657744917 1.0
C      1  0.7505839480104  0.4106246743076  0.1877401898963 1.0
C      1  0.7377171211658  0.5239544182365  0.5900452720239 1.0
C      1  0.6711520297763  0.6879164007442  0.6023703892815 1.0
C      1  0.5001469583770  0.6672573295937  0.6588236096197 1.0
C      1  0.3505049627907  0.6747307899069  0.5978174385672 1.0
C      1  0.3492714402259  0.5214106583342  0.6467992889296 1.0
C      1  0.2974030241666  0.3844320920606  0.5896690003147 1.0
C      1  0.4295138125809  0.3011042811978  0.6245793447399 1.0
C      1  0.5858649198022  0.2883072964207  0.5976199153727 1.0
C      1  0.6244525056766  0.4374884553234  0.6539364458463 1.0
C      1  0.2217167666326  0.7268868310060  0.3744019802957 1.0
C      1  0.1383815610633  0.4878230830326  0.3527401856457 1.0
C      1  0.2962865437360  0.2165492309596  0.3966961220558 1.0
C      1  0.4725876724516  0.1189717309046  0.3342807029651 1.0
C      1  0.6947717804426  0.1948977158945  0.3579763035168 1.0
C      1  0.8344622320859  0.3888158437644  0.3429313813939 1.0
C      1  0.8310722496378  0.6142132983809  0.3575531095594 1.0
C      1  0.6784055095474  0.8136391621294  0.3617622957546 1.0
C      1  0.4374228913909  0.8668558724102  0.3585052591788 1.0
C      1  0.5595733771650  0.8087454184048  0.7946143383921 1.0
C      1  0.3818484831383  0.7470153684154  0.7508922683315 1.0
C      1  0.2547600058918  0.6193191215466  0.7408574024411 1.0
C      1  0.2392740871059  0.4322980153121  0.7478911260722 1.0
C      1  0.3232581825822  0.2834608874952  0.7479037338855 1.0
C      1  0.5220853546249  0.2222611534047  0.7508035075975 1.0
C      1  0.6736883197407  0.3080339338863  0.7489134622976 1.0
C      1  0.7654855449777  0.4779313524128  0.7494916480884 1.0
C      1  0.7252002587907  0.6670970949964  0.7656836382833 1.0
C      1  0.4558363592140  0.3605597436618  0.5519449456201 1.0
C      1  0.5469725624321  0.3659229661002  0.5406677875370 1.0
C      1  0.5831066632494  0.4621336139534  0.5655891142375 1.0
C      1  0.6545861629531  0.5404374190816  0.5419429540580 1.0
C      1  0.6165680060746  0.6242278799159  0.5497339368181 1.0
C      1  0.5155590198287  0.6158692912536  0.5758223304705 1.0
C      1  0.4184307679247  0.6133708360199  0.5294235781986 1.0
C      1  0.4091003353593  0.5124500999987  0.5686837910115 1.0
C      1  0.3798122709369  0.4196341989497  0.5262772590828 1.0
C      1  0.5061057735849  0.5187011611341  0.5856060460390 1.0
C      1  0.5883900480709  0.5035607998880  0.1989000164575 1.0
END
