TITL C-107697-127-35 -4.187 3375.00 -686.42199674 0 0 84 (C1) n - 1
REM
REM Run started: at 2020.11.29 21:31:52 in /rds/project/t2_vol4/rds-t2-cs072/BORA/CARBON/AIRSS/Generating-Clusters/Str-Search/Higher-Symm/C10-100
REM VASP from code version vasp.5.4.4.18Apr17-6-g9f103f2a35 (build Oct 11 2019 16:45:47) gamma-only
REM
REM
REM
REM
REM ./C.cell (f39ce9773e2efe3fa5bbdf770a4156b8)
REM AIRSS Version 0.9.1 bugfix July 2018 build 013d7b7c2542+ Fri, 06 Jul 2018 19:26:36 +0100
REM compiler GCC version 4.8.5 20150623 (Red Hat 4.8.5-39)
REM options -cpp -mtune=generic -march=x86-64 -g -O0
REM seed -94084838 -1641086073 451059976 -510556288 1904422429 757967000 446013304 -253821374 -1391571157 1482830612 -352459618 -84090234
REM
REM C.POTCAR (d86ddea03c3ceb6dc662c8ad6801f873)
REM 
CELL 1.54180   15.00000   15.00000   15.00000   90.00000   90.00000   90.00000
LATT -1
SFAC C  
C      1  0.5977216418164  0.7646123572942  0.5246784476503 1.0
C      1  0.4367440269782  0.7800424353383  0.5107489208444 1.0
C      1  0.2442676371782  0.6193383221395  0.5170127744434 1.0
C      1  0.2690428594941  0.3219473468831  0.5033939271219 1.0
C      1  0.4737426614821  0.1677032793605  0.4966612617886 1.0
C      1  0.7032211435225  0.3160442397295  0.5360440509200 1.0
C      1  0.7905493757474  0.5390252411999  0.5189814253007 1.0
C      1  0.6742902214792  0.4311824027926  0.4126597345665 1.0
C      1  0.6724519702669  0.5488591623871  0.4117185836748 1.0
C      1  0.5113539367634  0.6752597444182  0.4143004220793 1.0
C      1  0.4029439164215  0.6539841334445  0.4113474549437 1.0
C      1  0.2963232752997  0.5070406162549  0.4015984093514 1.0
C      1  0.3755362874871  0.3345475280447  0.3809821041711 1.0
C      1  0.5456381557398  0.2941756835544  0.4086881349236 1.0
C      1  0.2874720179104  0.7049133737884  0.7328080711406 1.0
C      1  0.2180048994961  0.4828552194601  0.6995551624764 1.0
C      1  0.4046776609597  0.2441049674322  0.7079893983484 1.0
C      1  0.6048975558354  0.2231540128772  0.7640210503869 1.0
C      1  0.7963326679875  0.4343939267026  0.7386337432479 1.0
C      1  0.7552196446051  0.6530927425602  0.7025126128812 1.0
C      1  0.4855873607202  0.7818814737180  0.7401365002486 1.0
C      1  0.3972375749249  0.4797425382591  0.7321460492640 1.0
C      1  0.4561354161871  0.4046329286886  0.7459867858925 1.0
C      1  0.5525634039521  0.4028417165291  0.7482566507855 1.0
C      1  0.6136455933899  0.4762786829663  0.7373788749559 1.0
C      1  0.5939122895349  0.5687761338490  0.7398838574487 1.0
C      1  0.5065604743349  0.6102470467745  0.7519597876481 1.0
C      1  0.4206025532252  0.5724995154246  0.7352350491481 1.0
C      1  0.5111980979082  0.2156288948459  0.4389357280030 1.0
C      1  0.7293626909413  0.3945310051874  0.4922022885369 1.0
C      1  0.7557117791494  0.5774216268653  0.4542726132172 1.0
C      1  0.5210027419474  0.7565454568357  0.4736075001140 1.0
C      1  0.3677821930641  0.7188410646800  0.4847124583407 1.0
C      1  0.2487015879680  0.5608261013367  0.4570664685410 1.0
C      1  0.3027401993076  0.3031044503390  0.4253854700836 1.0
C      1  0.6797267896349  0.2733060725921  0.6031786125537 1.0
C      1  0.7741507943526  0.4526334523237  0.5526142900105 1.0
C      1  0.6495501847425  0.7472555683632  0.5872392272629 1.0
C      1  0.4339288476818  0.8308017533630  0.5900217728497 1.0
C      1  0.3032398370213  0.6861754559852  0.5463893546900 1.0
C      1  0.2480615834120  0.3496687110879  0.5812434172644 1.0
C      1  0.4374697981828  0.1523352740925  0.5756163768624 1.0
C      1  0.5173271195159  0.6686847231299  0.2509103590162 1.0
C      1  0.4193297300673  0.6548222713603  0.2463390468029 1.0
C      1  0.3305468549019  0.4893949033401  0.2369777922010 1.0
C      1  0.3624832897066  0.3947002125696  0.2264462962078 1.0
C      1  0.5028440879594  0.3391956983352  0.2603669370479 1.0
C      1  0.6554922804532  0.4476382437943  0.2486676190104 1.0
C      1  0.6558297251006  0.5464078798556  0.2496670441647 1.0
C      1  0.4589924092026  0.8297484410569  0.6688175465126 1.0
C      1  0.3129004439704  0.6866638966384  0.6436599208394 1.0
C      1  0.2512079061758  0.4102093700984  0.6460319341899 1.0
C      1  0.4072007578910  0.1768337377586  0.6498743046393 1.0
C      1  0.6397661661020  0.2612591579435  0.6842311866055 1.0
C      1  0.7671535753062  0.4409690004010  0.6486104720184 1.0
C      1  0.6862196929318  0.6969663459534  0.6539748188002 1.0
C      1  0.3184395748930  0.5434753753831  0.3121128271338 1.0
C      1  0.4082501130034  0.3390071940606  0.2882918160306 1.0
C      1  0.5756852724611  0.3275198174102  0.3216245367844 1.0
C      1  0.6496976322392  0.3908321355960  0.3219149413583 1.0
C      1  0.6397569604959  0.5942127788643  0.3274097728002 1.0
C      1  0.5658674753357  0.6580956986464  0.3297097602990 1.0
C      1  0.3669080623180  0.6292537318972  0.3188700633071 1.0
C      1  0.5165373082940  0.5899893031212  0.4685084230175 1.0
C      1  0.4269363984800  0.5660986166345  0.4599519200833 1.0
C      1  0.3833352873410  0.4834022939800  0.4460334224712 1.0
C      1  0.4259371169718  0.3990804471532  0.4383822563953 1.0
C      1  0.5174139909052  0.3780140124197  0.4531054580681 1.0
C      1  0.5853936507689  0.4421990010744  0.4592480023329 1.0
C      1  0.5893936115023  0.5343145604739  0.4674953365477 1.0
C      1  0.3530547797901  0.6391375123663  0.7119481406267 1.0
C      1  0.3071648451393  0.4606170172864  0.7067710431440 1.0
C      1  0.4158116997919  0.3199655600935  0.7397364945840 1.0
C      1  0.5909235684687  0.3145739803665  0.7433376012814 1.0
C      1  0.7056525633174  0.4529906752380  0.7159873233300 1.0
C      1  0.6645858210670  0.6278462137098  0.7131657024905 1.0
C      1  0.5037619069318  0.7035354682588  0.7601970983175 1.0
C      1  0.5955983365733  0.5486552497425  0.1730881958225 1.0
C      1  0.5289757479142  0.6121118841835  0.1721338459995 1.0
C      1  0.4313524454046  0.5987840616060  0.1671198870460 1.0
C      1  0.3893678444009  0.5172740182928  0.1644028518076 1.0
C      1  0.4243319878277  0.4262247823259  0.1586995786750 1.0
C      1  0.5126431020013  0.3975996106544  0.1821485146107 1.0
C      1  0.5906251090235  0.4494431571571  0.1762250835966 1.0
END
