TITL C-10012-4540-6 -8.84 3375.00 -1559.39163459 0 0 187 (C1) n - 1
REM
REM Run started: at 2020.12.31 12:12:54 in /gpfs/home/chem/mssmkc/CARBON/AIRSS/Generating-Clusters/Str-Search/Higher-Symm/C100-200
REM VASP from code version vasp.5.4.4.18Apr17-6-g9f103f2a35 (build Oct 11 2019 16:45:47) gamma-only
REM
REM
REM
REM
REM ./C.cell (533062f00bc710175b3da973d35f2034)
REM AIRSS Version 0.9.1 bugfix July 2018 build 013d7b7c2542+ Fri, 06 Jul 2018 19:26:36 +0100
REM compiler GCC version 6.3.0
REM options -cpp -iprefix /gpfs/warwick/csc/orac/software/Core/GCCcore/6.3.0/bin/../lib/gcc/x86_64-pc-linux-gnu/6.3.0/ -mtune=generic -march=x86-64 -g -O0
REM seed -1686868272 889819293 1640183320 235391986 -954681197 -285433408 356129930 -313380527 1646433183 -236713620 -1426895743 1095799260
REM
REM C.POTCAR (d86ddea03c3ceb6dc662c8ad6801f873)
REM 
CELL 1.54180   15.00000   15.00000   15.00000   90.00000   90.00000   90.00000
LATT -1
SFAC C  
C      1  0.4661106234646  0.2281290035557  0.3021565582375 1.0
C      1  0.7585857610347  0.3275605892283  0.3084452214115 1.0
C      1  0.7554753837068  0.6300024824869  0.2905297734677 1.0
C      1  0.5333310361814  0.7876736233341  0.3050643902366 1.0
C      1  0.2343437972609  0.6330371650937  0.2507764741166 1.0
C      1  0.3193542518004  0.3283862052057  0.2556847383800 1.0
C      1  0.5567278790280  0.2754874860383  0.1589978562101 1.0
C      1  0.6508530518239  0.2849495175036  0.1935782556006 1.0
C      1  0.7659245054433  0.4976713879346  0.1913199283315 1.0
C      1  0.5785424653005  0.7824799711204  0.2174346758980 1.0
C      1  0.3771522142192  0.6487531277033  0.1582461452780 1.0
C      1  0.3332171004295  0.4811371554083  0.1587730696697 1.0
C      1  0.7087104164440  0.2616581680080  0.2596118130456 1.0
C      1  0.8020682087001  0.5574345163505  0.2525128693196 1.0
C      1  0.6372610277184  0.7906508351554  0.2843757564413 1.0
C      1  0.3133152260613  0.6811551323697  0.2215816750365 1.0
C      1  0.2888675994232  0.4162818462016  0.2100109589917 1.0
C      1  0.4781285730473  0.2441001543522  0.2029664931194 1.0
C      1  0.5826373160642  0.4772617561829  0.6624164479724 1.0
C      1  0.5519215319541  0.5748397707630  0.6678344101163 1.0
C      1  0.4583383847390  0.5985806060291  0.6243662999201 1.0
C      1  0.3772303201290  0.5424251162779  0.6546752491073 1.0
C      1  0.4077882167582  0.4490154615233  0.6192955949271 1.0
C      1  0.4972162524796  0.4136292067002  0.6615017988057 1.0
C      1  0.8052109274714  0.3881161044842  0.6338037038883 1.0
C      1  0.7309063878377  0.7518582375843  0.6217388463899 1.0
C      1  0.4005061530025  0.8449983447047  0.6071666227243 1.0
C      1  0.1409936346059  0.6009356866225  0.5531769183921 1.0
C      1  0.2340448660578  0.2695234077446  0.5995997163315 1.0
C      1  0.5596797991155  0.1569862284715  0.6174832707031 1.0
C      1  0.7758474956996  0.1976888556063  0.3950164688491 1.0
C      1  0.8726564528017  0.5907123256160  0.4039559336951 1.0
C      1  0.6111621941503  0.8962262652296  0.3956035009803 1.0
C      1  0.2305176343965  0.7688517044267  0.3336557744978 1.0
C      1  0.1879576155823  0.3829382164723  0.3237227062110 1.0
C      1  0.3669996613903  0.1460954458611  0.4195161506882 1.0
C      1  0.3035428683968  0.3919019827207  0.7506058279181 1.0
C      1  0.4759139322252  0.4143892193484  0.7630054534663 1.0
C      1  0.6388463008018  0.4394192355670  0.7452831742135 1.0
C      1  0.5195581113575  0.5831171451590  0.7653323928828 1.0
C      1  0.4262042305969  0.7124623285812  0.7667651411818 1.0
C      1  0.3619991625332  0.5497820331366  0.7602183166977 1.0
C      1  0.1314845467720  0.6896509748025  0.5322245613379 1.0
C      1  0.1681043081202  0.3005304106909  0.5432084903910 1.0
C      1  0.4919877652172  0.0988507408375  0.5980890114658 1.0
C      1  0.8196318536774  0.2988388833720  0.6087247487746 1.0
C      1  0.8090300177884  0.7084741327510  0.6007125231871 1.0
C      1  0.4711768885053  0.8994911339785  0.5862025660729 1.0
C      1  0.4977466169105  0.5953615793766  0.3068508801647 1.0
C      1  0.4259765991546  0.5312438200239  0.3124857602972 1.0
C      1  0.4504237948582  0.4356958174427  0.3144090834509 1.0
C      1  0.5394145468832  0.3967699945602  0.3142041177276 1.0
C      1  0.6127556414227  0.4593741280668  0.3092963624993 1.0
C      1  0.5883590135955  0.5571458033497  0.3036416946256 1.0
C      1  0.5722503476380  0.3747145142207  0.7911147438320 1.0
C      1  0.6771722763750  0.5020955340429  0.8119266032550 1.0
C      1  0.5168822380347  0.6787920412182  0.7776571709869 1.0
C      1  0.3490133846244  0.6565169605758  0.7692816894519 1.0
C      1  0.2845428040832  0.4830699674128  0.7521445127066 1.0
C      1  0.3908077951001  0.3513229739523  0.7742090407775 1.0
C      1  0.4718639504660  0.7070095897444  0.4348198827754 1.0
C      1  0.3295147131753  0.5852675635752  0.4342153717910 1.0
C      1  0.3204036086992  0.4035022145211  0.4118267473145 1.0
C      1  0.5375613272680  0.2853383925600  0.4483312586898 1.0
C      1  0.7058158840423  0.4079502483509  0.4426904395068 1.0
C      1  0.7103854720702  0.6000780528722  0.4155256512782 1.0
C      1  0.8148841774085  0.2835317506188  0.3712653023811 1.0
C      1  0.7987595628906  0.6506630931609  0.3787723776528 1.0
C      1  0.5235065629253  0.8730736522777  0.3565235806876 1.0
C      1  0.1822877939942  0.6951894602491  0.2999106671525 1.0
C      1  0.2349511991770  0.3005738933183  0.3079739085918 1.0
C      1  0.4484277786664  0.1507346385053  0.3669721943314 1.0
C      1  0.2687306102148  0.5388618907893  0.5036129061101 1.0
C      1  0.3815026005261  0.2989727729450  0.5636570482887 1.0
C      1  0.6169451776910  0.2979470523538  0.5779478302991 1.0
C      1  0.7221448123358  0.4987804279815  0.5584984763689 1.0
C      1  0.6047623660632  0.7032238394619  0.5557574656066 1.0
C      1  0.3782270402067  0.7058603000386  0.5508802997191 1.0
C      1  0.1321811570673  0.6549734798865  0.3709546791034 1.0
C      1  0.2278166166751  0.2515906124916  0.3903160876012 1.0
C      1  0.5097531072550  0.1220812661441  0.4342164987364 1.0
C      1  0.8491158274960  0.3253540288392  0.4509835810740 1.0
C      1  0.7962178332930  0.7294524980621  0.4376899108149 1.0
C      1  0.4603085991838  0.8860285337365  0.4217899273529 1.0
C      1  0.3734473766290  0.3760228561493  0.3362223190153 1.0
C      1  0.5409308295164  0.2894405704910  0.3472498958655 1.0
C      1  0.7173971402136  0.4150287143866  0.3416807908319 1.0
C      1  0.6611471855998  0.6215260949931  0.3269801667177 1.0
C      1  0.4768422265523  0.7046769023523  0.3343889910689 1.0
C      1  0.3284966247280  0.5616146167049  0.3401544754546 1.0
C      1  0.3958820130659  0.2643633417183  0.2364821060285 1.0
C      1  0.6973107497978  0.1972199071927  0.3334319236262 1.0
C      1  0.8562178620359  0.5235516815851  0.3329989864007 1.0
C      1  0.6724597354542  0.8323954494425  0.3689308986198 1.0
C      1  0.3167677289144  0.7572923036307  0.2884928453693 1.0
C      1  0.2211960981250  0.4513201882226  0.2671361599333 1.0
C      1  0.4572838594692  0.6961474409784  0.1411446850698 1.0
C      1  0.3598757832863  0.5572192309710  0.1387470987535 1.0
C      1  0.5711535198412  0.3566311931306  0.1093424267378 1.0
C      1  0.6598176975624  0.3691898142593  0.1453543093257 1.0
C      1  0.7197116237368  0.4382042531560  0.1550304740933 1.0
C      1  0.5259302937137  0.7421988256497  0.1511712842070 1.0
C      1  0.4348195741843  0.1987740566988  0.7103072973014 1.0
C      1  0.6741262330705  0.2992407257592  0.6643651436190 1.0
C      1  0.7501711299092  0.6227492865924  0.7166512673435 1.0
C      1  0.5377259814444  0.8037286096765  0.6923227331976 1.0
C      1  0.2200961360272  0.6914127464256  0.6638956979594 1.0
C      1  0.1929250061419  0.4212109051081  0.6366431822169 1.0
C      1  0.6776217946547  0.6961994227952  0.6917078322828 1.0
C      1  0.4405869076115  0.7759240766676  0.6824014548799 1.0
C      1  0.1985669147093  0.5956775404728  0.6366551060345 1.0
C      1  0.2618520362580  0.3526404626966  0.6607786409790 1.0
C      1  0.5274742073251  0.2242511538146  0.6857060331790 1.0
C      1  0.7098129017957  0.3935980231243  0.6764274331069 1.0
C      1  0.3479907353793  0.1373361180187  0.5748179605822 1.0
C      1  0.7236543066945  0.1843461851624  0.5613330447388 1.0
C      1  0.8571916716275  0.5590498206787  0.5787749128114 1.0
C      1  0.6214330630964  0.8693326003897  0.5585730797771 1.0
C      1  0.2471044792433  0.7910057940788  0.5166362021438 1.0
C      1  0.1310472461924  0.4406474899611  0.4817053638348 1.0
C      1  0.5833158512204  0.3966073454644  0.8888128991078 1.0
C      1  0.6367770341525  0.4792426007633  0.8956701717559 1.0
C      1  0.6252900407338  0.5319420479135  0.9716145071295 1.0
C      1  0.5786166146147  0.4970591953763  0.0329695314237 1.0
C      1  0.5376506103965  0.4126445698276  0.0410420498921 1.0
C      1  0.5339761284131  0.3661656761204  0.9595834543589 1.0
C      1  0.5782850330015  0.1910741056777  0.4564009181959 1.0
C      1  0.8117018228775  0.4158194098477  0.4636008605461 1.0
C      1  0.7041993287411  0.7665577255906  0.4407291970191 1.0
C      1  0.4092817013764  0.8005100616273  0.4351685515419 1.0
C      1  0.1627431179911  0.5698196079146  0.3816907195889 1.0
C      1  0.3119030177187  0.2282380545912  0.4377429033956 1.0
C      1  0.3874742218489  0.2613109766212  0.7594112823014 1.0
C      1  0.5897327604868  0.2930458248980  0.7253098083628 1.0
C      1  0.7308403283419  0.5645423318703  0.7797410552003 1.0
C      1  0.5866408316836  0.7337113197988  0.7375340397626 1.0
C      1  0.2782821327668  0.7044505490806  0.7309848071231 1.0
C      1  0.2211149308338  0.5056433468260  0.6750422378709 1.0
C      1  0.5647062201712  0.6751871526194  0.4703664584123 1.0
C      1  0.4008191264733  0.6418709062206  0.4785533828869 1.0
C      1  0.3361553217509  0.4789145323966  0.4679716859800 1.0
C      1  0.4454827606800  0.3194972649332  0.4862501184703 1.0
C      1  0.6199666183039  0.3506688549168  0.4889252838708 1.0
C      1  0.6895028460430  0.5160201737317  0.4681199783328 1.0
C      1  0.5946222906686  0.5133446753346  0.4794394959139 1.0
C      1  0.5422016795916  0.5823958557501  0.4864194792062 1.0
C      1  0.4565381870281  0.5724059382796  0.5263621335822 1.0
C      1  0.4186028054386  0.4797312789642  0.5223595085709 1.0
C      1  0.4762898767883  0.4112518252278  0.4932502858183 1.0
C      1  0.5620284089533  0.4273874389531  0.4926362823638 1.0
C      1  0.3493468115193  0.3686691654078  0.6114604321864 1.0
C      1  0.5363611284932  0.3195856744728  0.6406281504074 1.0
C      1  0.6671192708731  0.4575278025369  0.6154968330031 1.0
C      1  0.6131452255132  0.6496318401249  0.6300585194373 1.0
C      1  0.4331207890353  0.6955158124981  0.6205404073449 1.0
C      1  0.2856598185559  0.5546442542581  0.6030056548780 1.0
C      1  0.1631564830932  0.2913684078786  0.4471408220928 1.0
C      1  0.4712112171351  0.0561981308327  0.5055737974058 1.0
C      1  0.8469208912783  0.2660039678345  0.5207439656159 1.0
C      1  0.8429077948366  0.7008555063954  0.5107127246973 1.0
C      1  0.4932499981155  0.9484499913908  0.4992210610179 1.0
C      1  0.1287746582004  0.7187188284421  0.4424011641841 1.0
C      1  0.3756992766951  0.0919500138825  0.4972297398357 1.0
C      1  0.7871129598855  0.1911428145527  0.4895993091218 1.0
C      1  0.8800954488676  0.6090395499219  0.4972055435602 1.0
C      1  0.5931321065346  0.9215654395974  0.4876632076366 1.0
C      1  0.2028692566027  0.7786560981866  0.4287618940583 1.0
C      1  0.1422844829893  0.3792384349338  0.4110662877416 1.0
C      1  0.1669852805303  0.5342252853914  0.4775481342523 1.0
C      1  0.3105663790828  0.2274330108041  0.5486319049159 1.0
C      1  0.6231999261489  0.1947690758030  0.5499904703611 1.0
C      1  0.8156860719891  0.4633594995584  0.5624564169866 1.0
C      1  0.6712412551341  0.7819181477906  0.5447050162475 1.0
C      1  0.3493891267359  0.7973312373247  0.5269775832471 1.0
C      1  0.8084999885542  0.4572696588423  0.3707796075365 1.0
C      1  0.6484345209588  0.6795532255890  0.4125488690856 1.0
C      1  0.3896185947815  0.7591853646524  0.3406104199420 1.0
C      1  0.2305053035153  0.5443608793300  0.3031154040826 1.0
C      1  0.3695632886143  0.3184040158496  0.4195929590573 1.0
C      1  0.6159758161466  0.2157923284598  0.3666523780848 1.0
C      1  0.8198040336405  0.6222137479712  0.6442501038623 1.0
C      1  0.5545970897025  0.8682378525301  0.6281140009715 1.0
C      1  0.1964324433320  0.7431240270250  0.5830910843232 1.0
C      1  0.1431095603937  0.3930708163875  0.5644963636739 1.0
C      1  0.4113409739813  0.1297600060616  0.6470865290282 1.0
C      1  0.7487600362744  0.2391080901607  0.6357342084029 1.0
C      1  0.4553439807773  0.5156841320260  0.7865585930379 1.0
END
