TITL C-10712-1074-1 -6.623 3375.00 -1161.55440714 0 0 140 (C1) n - 1
REM
REM Run started: at 2020.12.27 01:38:06 in /gpfs/home/chem/mssmkc/CARBON/AIRSS/Generating-Clusters/Str-Search/Higher-Symm/C100-200
REM VASP from code version vasp.5.4.4.18Apr17-6-g9f103f2a35 (build Oct 11 2019 16:45:47) gamma-only
REM
REM
REM
REM
REM ./C.cell (533062f00bc710175b3da973d35f2034)
REM AIRSS Version 0.9.1 bugfix July 2018 build 013d7b7c2542+ Fri, 06 Jul 2018 19:26:36 +0100
REM compiler GCC version 6.3.0
REM options -cpp -iprefix /gpfs/warwick/csc/orac/software/Core/GCCcore/6.3.0/bin/../lib/gcc/x86_64-pc-linux-gnu/6.3.0/ -mtune=generic -march=x86-64 -g -O0
REM seed 1724543365 -1498159038 -2022679571 892875697 627908380 -963228845 186774515 -207144648 127511987 -1835215149 -1634441447 445243615
REM
REM C.POTCAR (d86ddea03c3ceb6dc662c8ad6801f873)
REM 
CELL 1.54180   15.00000   15.00000   15.00000   90.00000   90.00000   90.00000
LATT -1
SFAC C  
C      1  0.8123952335910  0.5480430777309  0.3232571442841 1.0
C      1  0.8161275870454  0.6838198320425  0.4964270428080 1.0
C      1  0.8167715252993  0.6603979150682  0.5897672476560 1.0
C      1  0.7840603685811  0.4975717594436  0.6673861973052 1.0
C      1  0.8181991830859  0.3371887698453  0.5864106922641 1.0
C      1  0.8185090027887  0.3140443601632  0.4928825391903 1.0
C      1  0.8132390114703  0.4524834465902  0.3230598271542 1.0
C      1  0.2737001083068  0.4834763810663  0.2113680491987 1.0
C      1  0.2774365855436  0.7317051941671  0.2871138473624 1.0
C      1  0.2850371989647  0.8088709524085  0.5419743902806 1.0
C      1  0.2836698704207  0.6628457898800  0.7556514509382 1.0
C      1  0.2880229034460  0.4021994375366  0.7433339366841 1.0
C      1  0.2861573259031  0.2022661183812  0.5832020239832 1.0
C      1  0.2815162304842  0.2475906949423  0.3376208161491 1.0
C      1  0.4889095604855  0.4196424685027  0.7773859763075 1.0
C      1  0.4897814155365  0.2262217257780  0.5834763971606 1.0
C      1  0.4915885872854  0.2407690502355  0.3552743347735 1.0
C      1  0.4625973448137  0.4776367959368  0.2359323085328 1.0
C      1  0.4682025154618  0.6880457944482  0.3005938341902 1.0
C      1  0.4686214072741  0.7668368437113  0.5290676765375 1.0
C      1  0.4864324639310  0.6417643352973  0.7419124458670 1.0
C      1  0.7251789603391  0.3364857258092  0.6270057824393 1.0
C      1  0.7253498476577  0.2945831461368  0.4577448846391 1.0
C      1  0.7202937833409  0.4129433769351  0.3157021166115 1.0
C      1  0.7183982405123  0.5856883688444  0.3156843088292 1.0
C      1  0.7230170146052  0.6999103153896  0.4610481873539 1.0
C      1  0.7238477496921  0.6586444587717  0.6308521415986 1.0
C      1  0.7335911646428  0.4975328886863  0.7483784455683 1.0
C      1  0.6103621306367  0.4984987541017  0.8148502163755 1.0
C      1  0.6065793794013  0.2796199936593  0.6775753101398 1.0
C      1  0.6193511192708  0.2003015183960  0.4326105887243 1.0
C      1  0.5996305247424  0.3780248318445  0.2511167928871 1.0
C      1  0.6026248750084  0.6280804325270  0.2418497283802 1.0
C      1  0.6059050940849  0.7765346460675  0.4403449859404 1.0
C      1  0.6075172811158  0.7180426207099  0.6863516304636 1.0
C      1  0.4401742068420  0.2467847400705  0.2748175852230 1.0
C      1  0.4265656040121  0.5242874783111  0.1591229801737 1.0
C      1  0.4334499629910  0.7777128485315  0.3047889634483 1.0
C      1  0.4363789194775  0.8280430150198  0.5965678367967 1.0
C      1  0.4359545433015  0.6258584826226  0.8218538325558 1.0
C      1  0.4396315373271  0.3389879199778  0.7910137472259 1.0
C      1  0.4466150299528  0.1470539295662  0.5500868632887 1.0
C      1  0.6634523805065  0.6716544498391  0.3076121997015 1.0
C      1  0.6595556582963  0.7543195106956  0.5177216217552 1.0
C      1  0.6694939946186  0.6483772302406  0.7199980570716 1.0
C      1  0.6696654134990  0.4270842301511  0.7690851565891 1.0
C      1  0.6640112293142  0.2596961761655  0.6017423815527 1.0
C      1  0.6727334893554  0.2626987009878  0.3755451587994 1.0
C      1  0.6559217037588  0.4552522298637  0.2504934223437 1.0
C      1  0.3538354695030  0.6226951852343  0.5295267699003 1.0
C      1  0.3222429320185  0.5372514014573  0.5766212222068 1.0
C      1  0.3096753674510  0.4506004388414  0.5490849249696 1.0
C      1  0.3837906656897  0.3999808220386  0.5109607322540 1.0
C      1  0.3221281719324  0.4362439657827  0.4431634715413 1.0
C      1  0.3372083766480  0.5141020998122  0.3841867700882 1.0
C      1  0.3536539076373  0.6072370826870  0.4279063801273 1.0
C      1  0.2519554133290  0.7429307776473  0.6033099729576 1.0
C      1  0.2536777733257  0.5760575091955  0.7228521971188 1.0
C      1  0.2535687440624  0.3502006930320  0.6660758271934 1.0
C      1  0.2462045956267  0.2355997951134  0.5017911222543 1.0
C      1  0.2493131153814  0.3420851980668  0.3311071567758 1.0
C      1  0.2417526770255  0.5622150027687  0.2568532174624 1.0
C      1  0.2495923332996  0.7284911685402  0.3814399941553 1.0
C      1  0.6721704018712  0.5695359186451  0.7741032685860 1.0
C      1  0.6670703398604  0.3482951133050  0.7151431522878 1.0
C      1  0.6678229508128  0.2309249292722  0.5129129055588 1.0
C      1  0.6648461465011  0.3256151612450  0.3065212834322 1.0
C      1  0.6560297657237  0.5466145567702  0.2454452476470 1.0
C      1  0.6674713465352  0.7302670512092  0.3790622773613 1.0
C      1  0.6604787948366  0.7348339903353  0.6074276674124 1.0
C      1  0.3422654588134  0.8017694633622  0.2896924790247 1.0
C      1  0.3461872328555  0.8538040674184  0.6014465653251 1.0
C      1  0.3410792833702  0.6375357850522  0.8268085311514 1.0
C      1  0.3443430843873  0.3374328172673  0.7847167014514 1.0
C      1  0.3506736280813  0.1403016668077  0.5521106979909 1.0
C      1  0.3428010910772  0.2420689521329  0.2675184680047 1.0
C      1  0.3333053702913  0.5260054655202  0.1484664390885 1.0
C      1  0.5153073727413  0.8001571664749  0.4480445953546 1.0
C      1  0.5140543103211  0.7297854348321  0.7098583702521 1.0
C      1  0.5206872316647  0.4839884660278  0.8440870210431 1.0
C      1  0.5148990301698  0.2493526186010  0.6753867283393 1.0
C      1  0.5294300062344  0.1664272568056  0.4073211061863 1.0
C      1  0.5076426143146  0.3898488490229  0.2288045672269 1.0
C      1  0.5121951375342  0.6535143167102  0.2201152550082 1.0
C      1  0.2516338385003  0.5588076704690  0.3502988068659 1.0
C      1  0.2613714733793  0.6361768419912  0.4011569681337 1.0
C      1  0.2633047066484  0.6556188598950  0.5720770129278 1.0
C      1  0.2580671713969  0.5817757999518  0.6291815248984 1.0
C      1  0.2432021931160  0.3825409161752  0.5779563350829 1.0
C      1  0.2257582803767  0.3274974477403  0.4999188636692 1.0
C      1  0.2475876029318  0.3759497826192  0.4193129320331 1.0
C      1  0.5075830927049  0.4569563704819  0.6024259671440 1.0
C      1  0.4824960641310  0.3950461576844  0.5317216972259 1.0
C      1  0.5088851480530  0.4037920292968  0.4342637089967 1.0
C      1  0.4980830278407  0.4859318519293  0.3927206100626 1.0
C      1  0.5037475497638  0.5706524723891  0.4289417921093 1.0
C      1  0.5073084784286  0.6043288525597  0.5159441052347 1.0
C      1  0.5177565626447  0.5519577846799  0.5919385589453 1.0
C      1  0.4457101728034  0.6768859240900  0.5357679861830 1.0
C      1  0.5028288809543  0.5668730111783  0.6879285769551 1.0
C      1  0.4951099602129  0.4670233276028  0.6963948259829 1.0
C      1  0.4938348599671  0.2947517729652  0.5199777767849 1.0
C      1  0.4980927113267  0.3103522812740  0.4211957552135 1.0
C      1  0.4328983061094  0.5118895438238  0.3228874724323 1.0
C      1  0.4416826730016  0.6177359561519  0.3646058825646 1.0
C      1  0.3446111206765  0.3265192194308  0.2158968991242 1.0
C      1  0.3428163845566  0.6262465221297  0.1638901863411 1.0
C      1  0.3533990987209  0.8366833747059  0.3848375340330 1.0
C      1  0.3517248232071  0.8091992471442  0.6932168445423 1.0
C      1  0.3463972379393  0.5373669760785  0.8374804824946 1.0
C      1  0.3482033725731  0.2521045413690  0.7347751444830 1.0
C      1  0.3556296754108  0.1388209650048  0.4528430704593 1.0
C      1  0.2888653901713  0.1993202410724  0.4212852454656 1.0
C      1  0.2823304117809  0.3904296726489  0.2479052873281 1.0
C      1  0.2780241129652  0.6523740594413  0.2276054019156 1.0
C      1  0.2887301904924  0.7975686930553  0.4429281354324 1.0
C      1  0.2849815814667  0.7430327887518  0.6982229220304 1.0
C      1  0.2900652962099  0.4973028053654  0.7700464545350 1.0
C      1  0.2877898706394  0.2557612027171  0.6640459392142 1.0
C      1  0.6902754801279  0.5448964182608  0.4065508595739 1.0
C      1  0.6928627952166  0.6024793664107  0.4781325500571 1.0
C      1  0.6934162487161  0.5814746618663  0.5690581062779 1.0
C      1  0.7126226618968  0.4965944160657  0.6002473336778 1.0
C      1  0.6933374214584  0.4128863810074  0.5668167158061 1.0
C      1  0.6897024986802  0.3910106399463  0.4762766246254 1.0
C      1  0.6916993177927  0.4510749464036  0.4064744112150 1.0
C      1  0.8751657912091  0.6063030726587  0.4744612409557 1.0
C      1  0.8764410616914  0.5831170870965  0.5712196449136 1.0
C      1  0.8678501006727  0.4985351376155  0.6135129023563 1.0
C      1  0.8773006467869  0.4148459302439  0.5697276938981 1.0
C      1  0.8764658497850  0.3926855374705  0.4724649997446 1.0
C      1  0.8749362079259  0.4503838065705  0.4010769684227 1.0
C      1  0.8740961523970  0.5500333042581  0.4017490235639 1.0
C      1  0.4437837861385  0.6205323329580  0.1607898675214 1.0
C      1  0.4517465297583  0.8298513324188  0.3838366459555 1.0
C      1  0.4508945409782  0.7975449679452  0.6882821015081 1.0
C      1  0.4443382454097  0.5383037473572  0.8608289202938 1.0
C      1  0.4472318648646  0.2580706153762  0.7390642022103 1.0
C      1  0.4569015329198  0.1297964553750  0.4551738833223 1.0
C      1  0.4428342355231  0.3244115286995  0.2181224054153 1.0
END
