TITL C-114782-3840-38 -2.715 3375.00 -444.30492258 0 0 55 (C1) n - 1
REM
REM Run started: at 2020.12.27 23:09:39 in /rds/project/t2_vol4/rds-t2-cs072/BORA/CARBON/AIRSS/Generating-Clusters/Str-Search/Higher-Symm/C10-100
REM VASP from code version vasp.5.4.4.18Apr17-6-g9f103f2a35 (build Oct 11 2019 16:45:47) gamma-only
REM
REM
REM
REM
REM ./C.cell (f39ce9773e2efe3fa5bbdf770a4156b8)
REM AIRSS Version 0.9.1 bugfix July 2018 build 013d7b7c2542+ Fri, 06 Jul 2018 19:26:36 +0100
REM compiler GCC version 4.8.5 20150623 (Red Hat 4.8.5-39)
REM options -cpp -mtune=generic -march=x86-64 -g -O0
REM seed -1714190395 -1143719461 -616310716 1358195117 -1010316272 180895983 1957494399 -260871918 -1634943903 1069769260 594151618 -2052121217
REM
REM C.POTCAR (d86ddea03c3ceb6dc662c8ad6801f873)
REM 
CELL 1.54180   15.00000   15.00000   15.00000   90.00000   90.00000   90.00000
LATT -1
SFAC C  
C      1  0.5926510920978  0.3086324124268  0.5390000946585 1.0
C      1  0.4006522927609  0.6773354280107  0.4551318511550 1.0
C      1  0.4559283672634  0.3094659837785  0.6328715135638 1.0
C      1  0.5225535182917  0.6976754160098  0.3430613038561 1.0
C      1  0.2911694280474  0.4366471049152  0.4272274144815 1.0
C      1  0.6832641254785  0.6145711534663  0.5951300021813 1.0
C      1  0.6333390727144  0.4789781340860  0.3058307114826 1.0
C      1  0.3600148059533  0.5271559508252  0.7085353589551 1.0
C      1  0.4862949338759  0.7281537217808  0.6196502897100 1.0
C      1  0.4903176756448  0.3212989806652  0.3445969369862 1.0
C      1  0.3146917268980  0.4535969148678  0.6657505165135 1.0
C      1  0.6700109989911  0.5568748865059  0.3509865284006 1.0
C      1  0.4445292803812  0.5217655364067  0.4905135474110 1.0
C      1  0.6136287766918  0.4684504990377  0.5208053104823 1.0
C      1  0.5114988993909  0.3775151861146  0.2642138628453 1.0
C      1  0.4815827788726  0.6096416141712  0.7520906943335 1.0
C      1  0.6093946173508  0.7190173688242  0.4983901805066 1.0
C      1  0.3746440087436  0.3125483803104  0.4757805981525 1.0
C      1  0.7179419368313  0.3401525914138  0.4515481434737 1.0
C      1  0.3069261767670  0.5889905019710  0.5423718736165 1.0
C      1  0.4579647900476  0.4424478292187  0.2333273464188 1.0
C      1  0.5462541891128  0.5589579726460  0.7578971920242 1.0
C      1  0.5959044829872  0.5640678109265  0.2920765068265 1.0
C      1  0.3965940863646  0.4396881710347  0.7097280616815 1.0
C      1  0.5554690503530  0.7350948257393  0.5747653846308 1.0
C      1  0.4069792101582  0.3380191184963  0.3868637782776 1.0
C      1  0.5155689463845  0.6138359174392  0.3002812771425 1.0
C      1  0.4729956870746  0.3866796521824  0.6852244353141 1.0
C      1  0.6595484501438  0.5596252961168  0.6524627199806 1.0
C      1  0.3582035943930  0.4207976940158  0.3607859820557 1.0
C      1  0.5138266976641  0.2668417000240  0.5716126106875 1.0
C      1  0.4646103176210  0.7330995756920  0.4093117669753 1.0
C      1  0.4031926951154  0.4823735730244  0.2983096880719 1.0
C      1  0.6002004705625  0.5043264409990  0.7027857213266 1.0
C      1  0.6009957398001  0.3884008610604  0.3004884847767 1.0
C      1  0.4010278238102  0.6141765689811  0.7012973333168 1.0
C      1  0.5582089939049  0.7382164550726  0.4205064456466 1.0
C      1  0.4245680388440  0.2785593329479  0.5478127090897 1.0
C      1  0.3585100856441  0.6696590758523  0.5426293590179 1.0
C      1  0.6328915250907  0.3025780375206  0.4490530167841 1.0
C      1  0.5834872613990  0.3179280495947  0.3704682373233 1.0
C      1  0.4056411656405  0.6778360955915  0.6273437132275 1.0
C      1  0.6023704889305  0.3917699453523  0.5821891689467 1.0
C      1  0.4151204148182  0.5906267404431  0.4183421147588 1.0
C      1  0.6973120003765  0.5786467343521  0.4388031839498 1.0
C      1  0.2977324568587  0.4389809352684  0.5695320689245 1.0
C      1  0.3040891858013  0.3715134367705  0.4960366348428 1.0
C      1  0.6724197098918  0.6462701653032  0.5050158861204 1.0
C      1  0.3648714168200  0.5130045235249  0.5467085993472 1.0
C      1  0.6987875861091  0.4914591365972  0.4812511260583 1.0
C      1  0.2712488445585  0.5091596535133  0.4988156358938 1.0
C      1  0.7514055737938  0.4155521193658  0.4667160945544 1.0
C      1  0.5651853634098  0.4215648729072  0.6694290064080 1.0
C      1  0.4319572764601  0.5683144899659  0.3254258734856 1.0
C      1  0.5308936670093  0.5022558268723  0.4992113033478 1.0
END
