TITL C-110611-5339-9 -4.058 3375.00 -662.53390989 0 0 83 (C1) n - 1
REM
REM Run started: at 2020.12.27 16:06:36 in /rds/project/t2_vol4/rds-t2-cs072/BORA/CARBON/AIRSS/Generating-Clusters/Str-Search/Higher-Symm/C10-100
REM VASP from code version vasp.5.4.4.18Apr17-6-g9f103f2a35 (build Oct 11 2019 16:45:47) gamma-only
REM
REM
REM
REM
REM ./C.cell (f39ce9773e2efe3fa5bbdf770a4156b8)
REM AIRSS Version 0.9.1 bugfix July 2018 build 013d7b7c2542+ Fri, 06 Jul 2018 19:26:36 +0100
REM compiler GCC version 4.8.5 20150623 (Red Hat 4.8.5-39)
REM options -cpp -mtune=generic -march=x86-64 -g -O0
REM seed 1000767098 -562178325 715361106 -572044761 846298448 770382091 -1815787542 1775594097 1436011389 1219528427 -157196994 1985590386
REM
REM C.POTCAR (d86ddea03c3ceb6dc662c8ad6801f873)
REM 
CELL 1.54180   15.00000   15.00000   15.00000   90.00000   90.00000   90.00000
LATT -1
SFAC C  
C      1  0.4459179514292  0.4807078113218  0.1442913282034 1.0
C      1  0.4459917817206  0.2148724897553  0.2846044488620 1.0
C      1  0.4537823667225  0.1610566982634  0.5746281279165 1.0
C      1  0.4669189173116  0.3030988054641  0.7972185066017 1.0
C      1  0.4690099249228  0.6368598499611  0.8241547553813 1.0
C      1  0.4742124700827  0.8386707328070  0.5651198348703 1.0
C      1  0.4593729742627  0.7579384770249  0.2658458901730 1.0
C      1  0.2865930477203  0.5135075583513  0.6910566892683 1.0
C      1  0.2932139038897  0.6561125861778  0.6060832257809 1.0
C      1  0.3024508708046  0.6669428309315  0.4465783960200 1.0
C      1  0.2885750925167  0.5691199351383  0.3280723648668 1.0
C      1  0.2869983695224  0.4131645155642  0.3381075733597 1.0
C      1  0.2943039157219  0.3237367106933  0.4660407156528 1.0
C      1  0.3066150500718  0.3703783473633  0.6135515913844 1.0
C      1  0.6410087836760  0.3256910215262  0.3672769896227 1.0
C      1  0.6491450639441  0.2895457020197  0.5395064623764 1.0
C      1  0.6397817330226  0.4046527221929  0.6745507691268 1.0
C      1  0.6039172208747  0.5790879796864  0.6519035895083 1.0
C      1  0.6686709132781  0.6950530928452  0.5302309371445 1.0
C      1  0.6513965088638  0.6466521600502  0.3567775686342 1.0
C      1  0.6404227581600  0.4820523297029  0.2843095884718 1.0
C      1  0.5677373634880  0.4813819598692  0.2327517085416 1.0
C      1  0.5688574209680  0.2822532080821  0.3382774886649 1.0
C      1  0.5762454083345  0.2438014697023  0.5602626714364 1.0
C      1  0.5771063229708  0.3838391115692  0.7356027234877 1.0
C      1  0.5636915680677  0.6238341368898  0.7224312407900 1.0
C      1  0.5957765252248  0.7462798316729  0.5356928077041 1.0
C      1  0.5807781110947  0.6883045241563  0.3210248548622 1.0
C      1  0.4073666184461  0.4797457248839  0.2352894038690 1.0
C      1  0.4086872705030  0.2850911933340  0.3440616189432 1.0
C      1  0.4181278491867  0.2521037083500  0.5659575986016 1.0
C      1  0.4174342602780  0.3794942821233  0.7617392136071 1.0
C      1  0.4034100864724  0.6565951274990  0.7574030058317 1.0
C      1  0.4345768968170  0.7522872661353  0.5407145948145 1.0
C      1  0.4205624996681  0.6839191548500  0.3189253910161 1.0
C      1  0.3342893809788  0.6482206580636  0.3528390209907 1.0
C      1  0.3217509424348  0.4838293885295  0.2855453177787 1.0
C      1  0.3249856121671  0.3276771894797  0.3760492805321 1.0
C      1  0.3347033142244  0.3015460741273  0.5534002096165 1.0
C      1  0.3492594498570  0.4251182736834  0.6895485403412 1.0
C      1  0.3340242156012  0.6048154638888  0.6895449958392 1.0
C      1  0.3420283133906  0.7108035311689  0.5340589026800 1.0
C      1  0.6721822154623  0.3946349643761  0.4173400046180 1.0
C      1  0.6748851384772  0.3733986158569  0.5171785753419 1.0
C      1  0.6735561529151  0.4357910325246  0.5954901731192 1.0
C      1  0.6592725645854  0.5349313216029  0.5807428379306 1.0
C      1  0.7037049209096  0.6038208898887  0.5104405280815 1.0
C      1  0.6787482688422  0.5786277623518  0.4088498481351 1.0
C      1  0.6733241793395  0.4850131772808  0.3688366938285 1.0
C      1  0.4882512639751  0.4282430319059  0.7287950504092 1.0
C      1  0.4717844898687  0.6406871402088  0.6935001695967 1.0
C      1  0.5092361142692  0.6998310900778  0.5208181598992 1.0
C      1  0.4965505855081  0.6432350766002  0.3504039355877 1.0
C      1  0.4826017764425  0.4811882995555  0.2875089757831 1.0
C      1  0.4850457444628  0.3249977543545  0.3746206206097 1.0
C      1  0.4934719176777  0.3039793481677  0.5566530727247 1.0
C      1  0.5516376377907  0.3117690866821  0.8004439756095 1.0
C      1  0.5566269318253  0.6436878351605  0.8189484462664 1.0
C      1  0.5586948932595  0.8347459878840  0.5612755292391 1.0
C      1  0.5435738159472  0.7593625495987  0.2654355606832 1.0
C      1  0.5299361374322  0.4788447071419  0.1427913071186 1.0
C      1  0.5301210743466  0.2111597159402  0.2839232986424 1.0
C      1  0.5379085821851  0.1569070284465  0.5789130792886 1.0
C      1  0.2250026743093  0.4503736573399  0.4047684027646 1.0
C      1  0.2314277619371  0.3988754976659  0.4819467452821 1.0
C      1  0.2376458497956  0.4236695904874  0.5723688152381 1.0
C      1  0.2321870779877  0.5087534391356  0.6151928998227 1.0
C      1  0.2347714050975  0.5912067196516  0.5617810691628 1.0
C      1  0.2215215980048  0.6077771695092  0.4652814911103 1.0
C      1  0.2218655568657  0.5453922671868  0.3963184776024 1.0
C      1  0.4890117992006  0.3939319994426  0.5196102137764 1.0
C      1  0.4397554390223  0.4754538043720  0.6612264189708 1.0
C      1  0.4210736573236  0.5743261707859  0.6468656350352 1.0
C      1  0.5074462639189  0.6040734713003  0.5070207209814 1.0
C      1  0.4997787694484  0.5714903552289  0.4140824174648 1.0
C      1  0.4855759553675  0.4872011664809  0.3840719231874 1.0
C      1  0.4863000987665  0.4037602588432  0.4300180224966 1.0
C      1  0.4244536108762  0.5629924515610  0.5464862892173 1.0
C      1  0.4776620007616  0.4751351418742  0.5704689451790 1.0
C      1  0.8009842448314  0.6095804908356  0.5188355740126 1.0
C      1  0.3443369357771  0.6087223385964  0.5200619218716 1.0
C      1  0.5589082454294  0.5458385239018  0.5711202112466 1.0
C      1  0.8841297010642  0.5945400352953  0.5181587198903 1.0
END
