TITL C-119777-6416-1 -11.122 3375.00 -2826.37581023 0 0 339 (C1) n - 1
REM
REM Run started: at 2020.11.24 15:05:41 in /rds/project/t2_vol4/rds-t2-cs072/BORA/CARBON/AIRSS/Generating-Clusters/Str-Search/Higher-Symm
REM VASP from code version vasp.5.4.4.18Apr17-6-g9f103f2a35 (build Oct 11 2019 16:45:47) gamma-only
REM
REM
REM
REM
REM ./C.cell (e5ae0387ce4d49c7c0135a1433873289)
REM AIRSS Version 0.9.1 bugfix July 2018 build 013d7b7c2542+ Fri, 06 Jul 2018 19:26:36 +0100
REM compiler GCC version 4.8.5 20150623 (Red Hat 4.8.5-39)
REM options -cpp -mtune=generic -march=x86-64 -g -O0
REM seed 1383087088 -239981419 -2078723384 1435961481 -60509879 -1012018923 337981199 1027483337 -679286597 -1167672686 1227437101 1496636314
REM
REM C.POTCAR (d86ddea03c3ceb6dc662c8ad6801f873)
REM 
CELL 1.54180   15.00000   15.00000   15.00000   90.00000   90.00000   90.00000
LATT -1
SFAC C  
C      1  0.5030011198488  0.1304236107980  0.2099157344997 1.0
C      1  0.7250909652569  0.1391065217525  0.3146818744402 1.0
C      1  0.7734758735403  0.1254083409512  0.5794612574955 1.0
C      1  0.6016968788096  0.1548700294182  0.7671296600046 1.0
C      1  0.3611900345836  0.0897730948351  0.7751592393360 1.0
C      1  0.2016480616474  0.1239067911559  0.5673321676611 1.0
C      1  0.2551025684945  0.1318538938487  0.3181147634389 1.0
C      1  0.7932566130205  0.6631258228853  0.4499253693016 1.0
C      1  0.6980417291822  0.6615333539331  0.6838337675145 1.0
C      1  0.4710378094269  0.6610492231752  0.7925127080005 1.0
C      1  0.2747703407999  0.6551358855824  0.6369526395935 1.0
C      1  0.2372358319282  0.6536763069282  0.4003342703181 1.0
C      1  0.4082361672987  0.6740817110970  0.2285684671405 1.0
C      1  0.6551666533075  0.6467470349255  0.2443248684179 1.0
C      1  0.4479246822882  0.3006544234622  0.0587892871497 1.0
C      1  0.8288100223029  0.2850442181731  0.1623391259742 1.0
C      1  0.9152644153531  0.3082503359374  0.5556325492885 1.0
C      1  0.7367655271765  0.2857887364419  0.8916369356403 1.0
C      1  0.3495832486896  0.2539709886698  0.9223841756334 1.0
C      1  0.0738409136308  0.2937036446688  0.6562563439654 1.0
C      1  0.1074827855006  0.3117324785220  0.2537189463692 1.0
C      1  0.7462119388969  0.1702526904106  0.4896191653867 1.0
C      1  0.6835370310470  0.1676610538532  0.7134384531155 1.0
C      1  0.4548899115371  0.0949910009159  0.8087268427664 1.0
C      1  0.2608055749091  0.1470885803614  0.6500800091155 1.0
C      1  0.2498482216297  0.1764815853852  0.4110357455495 1.0
C      1  0.4081890444046  0.1485625540299  0.2427653468840 1.0
C      1  0.6463056447647  0.1905675729261  0.2810425725046 1.0
C      1  0.3816307221413  0.0287324533671  0.3590015122791 1.0
C      1  0.5766533403160  0.0583362055319  0.3528459324741 1.0
C      1  0.6364762801279  0.0659046124539  0.4210981739546 1.0
C      1  0.6277709323947  0.0422003462937  0.6267774413525 1.0
C      1  0.5511967166007  0.0367725726788  0.6774436743457 1.0
C      1  0.3657397854775  0.0376507141834  0.5989003486934 1.0
C      1  0.3348840670746  0.0597030045659  0.5155808091440 1.0
C      1  0.5901062845435  0.2412537752192  0.1274876388924 1.0
C      1  0.8662300125447  0.2020362654202  0.3436833094579 1.0
C      1  0.8399650598698  0.2152187718547  0.7079058914728 1.0
C      1  0.5618081773020  0.1771830207368  0.9183667413995 1.0
C      1  0.2169150420519  0.1821567687356  0.8058029064573 1.0
C      1  0.0941201789431  0.2164238026272  0.4759460004082 1.0
C      1  0.2626817785970  0.2160529544170  0.1735274460888 1.0
C      1  0.4004152279711  0.7907706072433  0.1142225892963 1.0
C      1  0.7268985042998  0.7984173855628  0.1631250384411 1.0
C      1  0.9187872724259  0.8074821239335  0.4528502842957 1.0
C      1  0.7589912351471  0.8273129356364  0.7652573405910 1.0
C      1  0.4438622468612  0.7901779000596  0.8782224934175 1.0
C      1  0.1694247511612  0.7857851561030  0.7062644706282 1.0
C      1  0.1384568186183  0.8002054810366  0.3456919825615 1.0
C      1  0.8855935255127  0.5668191194651  0.5452654427714 1.0
C      1  0.7529173097979  0.4439390658157  0.8828657410783 1.0
C      1  0.3926194537600  0.5298223339686  0.9405720662159 1.0
C      1  0.0481964659888  0.4484705262039  0.6931999403087 1.0
C      1  0.1332109183545  0.4603642329354  0.2690461308320 1.0
C      1  0.4421315120321  0.5220125898325  0.0304273247855 1.0
C      1  0.8202207404934  0.4367160357811  0.1712963740319 1.0
C      1  0.6063657509151  0.7025096092437  0.3955797605592 1.0
C      1  0.6432442719253  0.6743188522874  0.4857754901114 1.0
C      1  0.5436423187472  0.6419080485139  0.6130361639770 1.0
C      1  0.4431130312177  0.6656017372495  0.6159867693930 1.0
C      1  0.3923992524997  0.7201110696970  0.5290539145601 1.0
C      1  0.4155236457659  0.6784955062329  0.4363895990210 1.0
C      1  0.5085661190300  0.6789527729240  0.3759285688829 1.0
C      1  0.0652838420375  0.4628278965604  0.4594575914825 1.0
C      1  0.2817987872972  0.4555112166248  0.0605228263658 1.0
C      1  0.6733855853303  0.4766638114573  0.0946180634217 1.0
C      1  0.9197694745486  0.4549881446276  0.3754311139474 1.0
C      1  0.8822517726634  0.4552223220263  0.7961174729476 1.0
C      1  0.6074657279418  0.5800448622995  0.9147483744155 1.0
C      1  0.1624039919565  0.4322853594583  0.8572690417190 1.0
C      1  0.2955792056279  0.4857099573029  0.9617337860688 1.0
C      1  0.1837067209795  0.5131258384215  0.6714637606086 1.0
C      1  0.1569379932986  0.4426227782212  0.1740769685460 1.0
C      1  0.5365228480755  0.4736882766920  0.0443142851274 1.0
C      1  0.9058071228287  0.4094139392157  0.2211385101478 1.0
C      1  0.9576992415811  0.4500375185879  0.6462629879524 1.0
C      1  0.6533866219044  0.4340429274582  0.9157295845340 1.0
C      1  0.4404093904662  0.9818089434048  0.2981330790009 1.0
C      1  0.5363285641059  0.9883942302181  0.3009320747329 1.0
C      1  0.6887705960215  0.0003781693075  0.4794949713099 1.0
C      1  0.6723384104185  0.9795069401998  0.5701572505263 1.0
C      1  0.4907868471784  0.9625138313263  0.6869331259310 1.0
C      1  0.4075980026560  0.9514070817433  0.6241623878214 1.0
C      1  0.3322618910641  0.0004824057776  0.4369104377549 1.0
C      1  0.0840313456154  0.3753774466886  0.4088978638846 1.0
C      1  0.2907885552291  0.3550915010412  0.0930977484921 1.0
C      1  0.6901156137702  0.3695363320095  0.0940557011379 1.0
C      1  0.8971905356399  0.3487718334445  0.3881644891554 1.0
C      1  0.8483483482047  0.3621651323452  0.7886296523653 1.0
C      1  0.5001244318989  0.3164495358591  0.9166705284149 1.0
C      1  0.1518646977334  0.3495502069152  0.7941122758945 1.0
C      1  0.5329007463131  0.5473847120354  0.7302995489956 1.0
C      1  0.3759950908440  0.5523446675807  0.7008102665132 1.0
C      1  0.2788349609907  0.5486706668799  0.5258082544842 1.0
C      1  0.3547571397317  0.5791757599471  0.3520186633147 1.0
C      1  0.5153812555332  0.5563369315916  0.2762784298567 1.0
C      1  0.6925063672908  0.5458814250313  0.3657320403688 1.0
C      1  0.7116497620806  0.5574423574287  0.5647262975308 1.0
C      1  0.5559513345277  0.7662922496686  0.0910422844990 1.0
C      1  0.8111790003011  0.7919407593230  0.3004122713549 1.0
C      1  0.8716323842079  0.7957557025614  0.6166263766866 1.0
C      1  0.6055779415509  0.8132158767440  0.8452617036947 1.0
C      1  0.2828597780321  0.7533679118989  0.8460459480646 1.0
C      1  0.1331861192453  0.7661171105812  0.5529669769868 1.0
C      1  0.2551399907503  0.7687037805234  0.2254682453601 1.0
C      1  0.6555820391778  0.2372906236203  0.3745968321312 1.0
C      1  0.6654962913431  0.1920111028411  0.5525472247780 1.0
C      1  0.6153973719814  0.2471419475974  0.7361207705935 1.0
C      1  0.4446208466243  0.1660145541153  0.6807875158913 1.0
C      1  0.2963215497172  0.2104869875982  0.5785967307984 1.0
C      1  0.3436424937853  0.1925633234491  0.3801721876244 1.0
C      1  0.4859164872601  0.1973885394729  0.2896451319249 1.0
C      1  0.7436372186735  0.6399973092535  0.3706639714650 1.0
C      1  0.7522032842592  0.6448059873554  0.6025787404378 1.0
C      1  0.5706948361855  0.6385561000680  0.7680997001512 1.0
C      1  0.3258063097588  0.6398220041207  0.7180232424431 1.0
C      1  0.2406415795035  0.6363553689474  0.4946635226135 1.0
C      1  0.3213090815083  0.6996699410089  0.2705981894351 1.0
C      1  0.5578487680955  0.6357063563560  0.2280332910426 1.0
C      1  0.2169101212955  0.1888428638966  0.2556393939695 1.0
C      1  0.5140529694862  0.1789729653624  0.1292610743360 1.0
C      1  0.8009342636161  0.1721727264436  0.2781592692444 1.0
C      1  0.8394919381560  0.1786474244952  0.6155911543116 1.0
C      1  0.6317297606545  0.1591592108350  0.8601755448257 1.0
C      1  0.3043485861997  0.1351829567455  0.8324546533836 1.0
C      1  0.1229717815614  0.1723198865643  0.5628854180569 1.0
C      1  0.3326608145763  0.6794299543109  0.3684281974119 1.0
C      1  0.4968308256595  0.7081000227237  0.2746902826569 1.0
C      1  0.6697137319823  0.6908292809410  0.3314162330725 1.0
C      1  0.7340555978540  0.7081487060163  0.5220249072861 1.0
C      1  0.6082175185690  0.6664941830743  0.6849198192691 1.0
C      1  0.4089595398619  0.6993362013377  0.7080373087784 1.0
C      1  0.2987317535975  0.6920721523254  0.5570081299143 1.0
C      1  0.5741221743464  0.4016644052544  0.5175062141734 1.0
C      1  0.5314708314920  0.4389426095606  0.6035549286928 1.0
C      1  0.4445699876156  0.4004413039197  0.6024515510272 1.0
C      1  0.3912800378499  0.4326231630672  0.5316946079375 1.0
C      1  0.4189169559242  0.4054972959623  0.4441261629543 1.0
C      1  0.4806196891283  0.4313716271087  0.3896072785418 1.0
C      1  0.5711014465116  0.4453887935598  0.4302302637955 1.0
C      1  0.2212964738567  0.2921754696488  0.1281406317320 1.0
C      1  0.6107876764907  0.3025679291166  0.0462000375988 1.0
C      1  0.9082667859576  0.2801356608449  0.3137543453692 1.0
C      1  0.8835555196663  0.2974970045707  0.7205609700512 1.0
C      1  0.5835009547787  0.2735574519770  0.9535600739545 1.0
C      1  0.1921493699533  0.2658202040195  0.8478331753096 1.0
C      1  0.0394172321094  0.3056502106746  0.4733177238288 1.0
C      1  0.4639324931158  0.4150512189675  0.7981279793075 1.0
C      1  0.2416308955053  0.4325116290161  0.6674232492656 1.0
C      1  0.2252948119919  0.4282390485086  0.4010210795492 1.0
C      1  0.4038869959593  0.4383984337643  0.1756651483725 1.0
C      1  0.6670194316951  0.4266984717687  0.2376528301403 1.0
C      1  0.7531011125065  0.3910830578606  0.4601522215252 1.0
C      1  0.7089702805764  0.4511019215480  0.7115497485282 1.0
C      1  0.5536098143895  0.6700386403261  0.9438155107170 1.0
C      1  0.2454673643041  0.4659867733276  0.8862580574951 1.0
C      1  0.9687188533958  0.4516429220657  0.4715062372859 1.0
C      1  0.2233568947004  0.4945331108052  0.1313594523595 1.0
C      1  0.6317170228909  0.4967390796160  0.9940758816257 1.0
C      1  0.9704881661490  0.4375919680532  0.2894393385863 1.0
C      1  0.9103659378033  0.4994570583190  0.7190387868626 1.0
C      1  0.8039932070682  0.6102371281316  0.2974670880288 1.0
C      1  0.8557539502603  0.6270650057777  0.6214613902053 1.0
C      1  0.6508519958053  0.6484700573648  0.8399183038088 1.0
C      1  0.2890307175667  0.6072293353292  0.8098271071473 1.0
C      1  0.1491592941962  0.6064609113551  0.5398290013220 1.0
C      1  0.2498285002826  0.6226719386044  0.2463939279430 1.0
C      1  0.5829781711255  0.6157518091890  0.1230449185095 1.0
C      1  0.6459969228278  0.3571560084160  0.5715539155970 1.0
C      1  0.5896783762885  0.3747466632972  0.6544228021983 1.0
C      1  0.4039929755549  0.3293935081978  0.6565461339787 1.0
C      1  0.3202138694697  0.3618514553536  0.5269902705972 1.0
C      1  0.3508991447319  0.3401367924653  0.4286330667341 1.0
C      1  0.5013462987089  0.3734624671611  0.3131625725760 1.0
C      1  0.5952328102047  0.3784384646033  0.3615208639741 1.0
C      1  0.3916049511899  0.8270220242906  0.4985637762030 1.0
C      1  0.4297445902086  0.8380794003623  0.4044725278419 1.0
C      1  0.5200492161493  0.8384876183344  0.3773378562402 1.0
C      1  0.5996229450310  0.8679759197309  0.4213772665690 1.0
C      1  0.6184996911261  0.8402731454311  0.5144632437068 1.0
C      1  0.4881508435753  0.8232475122255  0.6206484980691 1.0
C      1  0.4442111974503  0.8867296644440  0.5577283139471 1.0
C      1  0.6045124650930  0.5370242095640  0.4193338557772 1.0
C      1  0.6513985481915  0.5761623216518  0.4980689592113 1.0
C      1  0.5198209617835  0.5408674758541  0.6292103049473 1.0
C      1  0.4222418627595  0.5669878703675  0.6126376311107 1.0
C      1  0.3790151118126  0.5335848737070  0.5266946013129 1.0
C      1  0.4178909397602  0.5752966482486  0.4349222895705 1.0
C      1  0.5180934347246  0.5780948617494  0.3801574810992 1.0
C      1  0.7726982239146  0.2205455754257  0.1950508511422 1.0
C      1  0.8789764075048  0.2277751089546  0.5424568295125 1.0
C      1  0.7267613360689  0.1976677524612  0.8543960282518 1.0
C      1  0.3682841661166  0.1675337642635  0.9036896461010 1.0
C      1  0.1146291995405  0.2083531621710  0.6569992590060 1.0
C      1  0.1493817570461  0.2430772671060  0.2999284532052 1.0
C      1  0.4317458775007  0.2180464273404  0.1071784221280 1.0
C      1  0.1228948171520  0.7161238125330  0.2958634523092 1.0
C      1  0.4288730222208  0.6361834515061  0.0483058728935 1.0
C      1  0.7725735383140  0.7121256201602  0.1694474469595 1.0
C      1  0.9932152439902  0.7063395882000  0.5489862783105 1.0
C      1  0.7366635506822  0.6562682155732  0.7787005842594 1.0
C      1  0.3871999903073  0.6374706346997  0.9421361416083 1.0
C      1  0.0888705724760  0.6393675506827  0.6860486966820 1.0
C      1  0.6314478647358  0.8709187318212  0.6888658756178 1.0
C      1  0.3835067085681  0.8617885311731  0.7578826691407 1.0
C      1  0.2646653871332  0.8670217131185  0.6025762211850 1.0
C      1  0.2854254607081  0.8777633578317  0.3495313730095 1.0
C      1  0.5082334455035  0.8684805849769  0.2103466982640 1.0
C      1  0.6720035952844  0.9013406007417  0.2774461515168 1.0
C      1  0.7878072129007  0.8601603105963  0.4706316187337 1.0
C      1  0.2312395565185  0.3613749336542  0.7378898653471 1.0
C      1  0.1734967454927  0.3447257800468  0.4312102012945 1.0
C      1  0.3312325221820  0.3728144705623  0.1890124125928 1.0
C      1  0.6498342126542  0.3465672290912  0.1844545413599 1.0
C      1  0.8086707698652  0.3191465954877  0.4200177646674 1.0
C      1  0.7815201003830  0.3964259939353  0.7186154397624 1.0
C      1  0.5135482887885  0.3384053236721  0.8316733076421 1.0
C      1  0.1673477342934  0.3483077451120  0.5325238371492 1.0
C      1  0.3040189306206  0.3637592067333  0.2714591087188 1.0
C      1  0.5518843030941  0.3406014483355  0.1634996839915 1.0
C      1  0.7242535505870  0.3142802286178  0.3726832899137 1.0
C      1  0.8091798634240  0.3958964547888  0.6267573957587 1.0
C      1  0.6104744148251  0.3265897283784  0.8011623043788 1.0
C      1  0.3072671295551  0.3428394255978  0.7901909342243 1.0
C      1  0.2223599829633  0.4765737911353  0.4907446292761 1.0
C      1  0.3638126689808  0.5226544359257  0.2044892058094 1.0
C      1  0.5629592641692  0.4792273909226  0.2219724200278 1.0
C      1  0.7490188731875  0.4673782537183  0.3869662588355 1.0
C      1  0.7320847257355  0.4742546801902  0.6113597368868 1.0
C      1  0.5566052671170  0.4676794535608  0.7750508608149 1.0
C      1  0.3230224783767  0.4720131990698  0.7214423804447 1.0
C      1  0.2995521256179  0.3813202669971  0.3571772143925 1.0
C      1  0.4961358230350  0.4033431416183  0.2192128346130 1.0
C      1  0.6920921397546  0.3975335576587  0.3283832191840 1.0
C      1  0.7353680032915  0.3888939757527  0.5575284569116 1.0
C      1  0.6240762270131  0.4080457455517  0.7405374952475 1.0
C      1  0.3808662827365  0.3899880007568  0.7458107282091 1.0
C      1  0.2371872127784  0.4032242228668  0.5639057131165 1.0
C      1  0.8439275063761  0.5247061389298  0.3757932339671 1.0
C      1  0.8621893744151  0.5786692104262  0.7098583481834 1.0
C      1  0.5677156951967  0.4959326707148  0.8708167440473 1.0
C      1  0.2785242944662  0.5136307202009  0.8070042674685 1.0
C      1  0.1294043834031  0.5174664428705  0.4939020553748 1.0
C      1  0.2791315992927  0.5533243218441  0.1833480569805 1.0
C      1  0.5832331922251  0.5121915291602  0.1268679147797 1.0
C      1  0.7634684690332  0.1850123104587  0.7663952839701 1.0
C      1  0.4653999139116  0.1410939660192  0.8891787509357 1.0
C      1  0.1908608867955  0.1778656813852  0.7137511681468 1.0
C      1  0.1686376722655  0.2408081637943  0.4036798467917 1.0
C      1  0.3591235865426  0.1953079648797  0.1675337772277 1.0
C      1  0.6697136776870  0.2417092548060  0.1964307445571 1.0
C      1  0.8280885270895  0.2236653028297  0.4540254151859 1.0
C      1  0.1502583256017  0.7011768141881  0.3860671257399 1.0
C      1  0.3866784560727  0.6921809540491  0.1273669407685 1.0
C      1  0.6752012608097  0.6734052513011  0.1461571115290 1.0
C      1  0.0023384956586  0.7591942502951  0.4725577227037 1.0
C      1  0.7904096429014  0.7429940896694  0.7712538383283 1.0
C      1  0.4630092909087  0.6895055323360  0.8929632884271 1.0
C      1  0.1350695762376  0.7023660467822  0.7363365386374 1.0
C      1  0.5177401153917  0.8035801964533  0.2839001054648 1.0
C      1  0.6712584382014  0.9030203319262  0.3726999531792 1.0
C      1  0.7162205878267  0.8116522282387  0.5270231735758 1.0
C      1  0.5359347663471  0.8768669621889  0.6861014672359 1.0
C      1  0.4079935161132  0.7948789535995  0.6820634292129 1.0
C      1  0.2999972950494  0.8666281868675  0.5141369083980 1.0
C      1  0.3766981769895  0.8592167285735  0.3286407439862 1.0
C      1  0.5624907609037  0.1363777960475  0.2896827438978 1.0
C      1  0.6940642291168  0.1461564530527  0.4094245918620 1.0
C      1  0.6836115858546  0.1266041427966  0.6240430395898 1.0
C      1  0.5186630820900  0.1109837383735  0.7323086089407 1.0
C      1  0.3536691508048  0.1047525243313  0.6755888417732 1.0
C      1  0.2734741323827  0.1412430493655  0.5032535931989 1.0
C      1  0.3549398541995  0.1132852580611  0.3191847748088 1.0
C      1  0.4466490726946  0.5634454136971  0.7777548601556 1.0
C      1  0.2204330760579  0.5778290099050  0.6097179044645 1.0
C      1  0.2498946854601  0.5719401438058  0.3344468124636 1.0
C      1  0.4135505949194  0.5768513894552  0.2641971582130 1.0
C      1  0.7203818586975  0.5658036917342  0.2569328122922 1.0
C      1  0.8495807457061  0.5895161359383  0.4586124578936 1.0
C      1  0.8006677817398  0.5820865976832  0.7817993315517 1.0
C      1  0.1825913092419  0.6954765014659  0.2292583462054 1.0
C      1  0.5306870668871  0.6728504476438  0.0482752133588 1.0
C      1  0.8210125076486  0.7025511692546  0.2499140859110 1.0
C      1  0.9134616563362  0.7096569495600  0.6030398304677 1.0
C      1  0.6186826743721  0.7302643378345  0.8884874645946 1.0
C      1  0.3034831985782  0.6649938802793  0.8845627761697 1.0
C      1  0.0857342632921  0.6752464175615  0.5846287383575 1.0
C      1  0.2056983765114  0.7546658640594  0.7857391526343 1.0
C      1  0.1031566660799  0.7653511484026  0.4480013656980 1.0
C      1  0.3164065562788  0.7716699302365  0.1393204196379 1.0
C      1  0.6465678875983  0.7640341358707  0.1216869823592 1.0
C      1  0.8417948126251  0.8127167492165  0.3904169775653 1.0
C      1  0.8247756137409  0.7998170772639  0.6991853171831 1.0
C      1  0.5135851750434  0.8471295862821  0.8468445390019 1.0
C      1  0.9506319221453  0.3483017810880  0.4748577792068 1.0
C      1  0.7916742496431  0.3554399330064  0.8695454575809 1.0
C      1  0.4155100615189  0.3122565297049  0.9637305609689 1.0
C      1  0.0782359312143  0.3617063797562  0.7228649221878 1.0
C      1  0.0660205638964  0.3899010624244  0.3051109152349 1.0
C      1  0.3776151227699  0.3612168980288  0.0418168835486 1.0
C      1  0.7901436505568  0.3630067573131  0.1196111804468 1.0
C      1  0.6025829451405  0.2581554023841  0.5674283468317 1.0
C      1  0.5608540154893  0.2763290566443  0.6599604545431 1.0
C      1  0.4648746977213  0.2530886549217  0.6714924473646 1.0
C      1  0.3365151792263  0.2908732709391  0.5908503740006 1.0
C      1  0.3969080141037  0.2614082980510  0.3940023987004 1.0
C      1  0.4835999134358  0.2762173033039  0.3451530001008 1.0
C      1  0.5725514474478  0.2870770052524  0.4026962126800 1.0
C      1  0.3865978661150  0.4549174643788  0.0772413432417 1.0
C      1  0.7330807184962  0.4904960222784  0.1869408077531 1.0
C      1  0.9392829759926  0.4955898480183  0.5555528681093 1.0
C      1  0.8114448386659  0.5067073066905  0.8409597530654 1.0
C      1  0.4529158787777  0.4980960691084  0.8608947230496 1.0
C      1  0.0987435872555  0.5337229912506  0.6976487895046 1.0
C      1  0.1926082073146  0.4918604469177  0.3315461400416 1.0
C      1  0.7402392179707  0.9380741275995  0.4321855390678 1.0
C      1  0.6719905565010  0.8833904573791  0.5945601279970 1.0
C      1  0.4775836355596  0.9008559096769  0.7700090724989 1.0
C      1  0.3412143899888  0.8787090189198  0.6684870211006 1.0
C      1  0.2803619913947  0.9224037467285  0.4370277183839 1.0
C      1  0.4225160650466  0.9031476994074  0.2527748427554 1.0
C      1  0.5831983102502  0.9299310187023  0.2444182487111 1.0
C      1  0.1807371837928  0.8202048353663  0.6171902624434 1.0
C      1  0.2224193526249  0.8338809214241  0.3032028830889 1.0
C      1  0.4902665404775  0.8230366340003  0.1236048816492 1.0
C      1  0.7407301462423  0.8451216210380  0.2455301965103 1.0
C      1  0.8709426279785  0.8417432922304  0.5279632793245 1.0
C      1  0.6664688384527  0.8488560338235  0.7710033355136 1.0
C      1  0.3586573379633  0.8106905531938  0.8379638114685 1.0
C      1  0.5327367820965  0.3622086907969  0.0698473683697 1.0
C      1  0.9005825968973  0.3140383312869  0.2235529698130 1.0
C      1  0.9056772872915  0.3586559612298  0.6371752698785 1.0
C      1  0.6481230290405  0.3277509710877  0.8982699565967 1.0
C      1  0.2825813031000  0.2971708807195  0.8678567777156 1.0
C      1  0.0848698524349  0.3258818808378  0.5612488605820 1.0
C      1  0.1500500484786  0.3423301593622  0.1691210294020 1.0
C      1  0.5491226221308  0.3038136168771  0.4976157331179 1.0
C      1  0.5528920231017  0.7824539292243  0.5568008876967 1.0
C      1  0.5730440400663  0.6984408133870  0.5442353099302 1.0
END
