TITL C-113542-5098-38 -2.862 3375.00 -480.73389952 0 0 60 (C1) n - 1
REM
REM Run started: at 2020.12.17 13:29:11 in /rds/project/t2_vol4/rds-t2-cs072/BORA/CARBON/AIRSS/Generating-Clusters/Str-Search/Higher-Symm/Only-C60
REM VASP from code version vasp.5.4.4.18Apr17-6-g9f103f2a35 (build Oct 11 2019 16:45:47) gamma-only
REM
REM
REM
REM
REM ./C.cell (5f7b7a0d59291d2373303da1f58b8d66)
REM AIRSS Version 0.9.1 bugfix July 2018 build 013d7b7c2542+ Fri, 06 Jul 2018 19:26:36 +0100
REM compiler GCC version 4.8.5 20150623 (Red Hat 4.8.5-39)
REM options -cpp -mtune=generic -march=x86-64 -g -O0
REM seed 1441596200 -1951883605 -1965632545 471838056 -1883736429 -617495826 253121704 -338314203 779634879 1849715943 -1674784443 -148161723
REM
REM C.POTCAR (d86ddea03c3ceb6dc662c8ad6801f873)
REM 
CELL 1.54180   15.00000   15.00000   15.00000   90.00000   90.00000   90.00000
LATT -1
SFAC C  
C      1  0.4089227913351  0.6078297698665  0.3510805322734 1.0
C      1  0.6586076392058  0.5818616504666  0.6718306602571 1.0
C      1  0.4398425279589  0.5205639363665  0.5728183651773 1.0
C      1  0.6895484063797  0.3141016243615  0.4712129240545 1.0
C      1  0.6496227580360  0.3231981465551  0.5549902057228 1.0
C      1  0.5473584931383  0.6848896350216  0.4487000565044 1.0
C      1  0.4142275955278  0.5366795037346  0.2729453435592 1.0
C      1  0.6060469134152  0.4682108014597  0.5659518519242 1.0
C      1  0.3628473858405  0.6350660011166  0.6952329905069 1.0
C      1  0.4629518103409  0.6845322420471  0.4020754128038 1.0
C      1  0.6262801807200  0.6140227845610  0.4520245139500 1.0
C      1  0.5837339103580  0.6884796119009  0.6115808006065 1.0
C      1  0.5772169215574  0.5319245335774  0.5003433782200 1.0
C      1  0.7333993597272  0.3889540356046  0.4326615586781 1.0
C      1  0.6626156687372  0.4864650350421  0.6593532235196 1.0
C      1  0.7091556361144  0.5684072945064  0.3940834840555 1.0
C      1  0.5068673478219  0.3977761804562  0.3184819040826 1.0
C      1  0.3150130300212  0.6653996867605  0.4626207860762 1.0
C      1  0.5183910452159  0.3970355957131  0.7186132851381 1.0
C      1  0.7449161483871  0.4560813007133  0.4991427319894 1.0
C      1  0.4158961179916  0.4513587976243  0.3359250696444 1.0
C      1  0.2982584234815  0.6323810584422  0.5527293619759 1.0
C      1  0.5546275832443  0.4568001189863  0.2577438419417 1.0
C      1  0.3630629631453  0.2510366947159  0.3930040869416 1.0
C      1  0.3988841284698  0.3113813375364  0.5444318792697 1.0
C      1  0.4755890979957  0.2971398661080  0.5994388946566 1.0
C      1  0.3485059218182  0.4731327200027  0.6034298907094 1.0
C      1  0.3636611433982  0.6763646849815  0.6115972086562 1.0
C      1  0.5081038961767  0.5418161421250  0.6459178422443 1.0
C      1  0.5652837157576  0.4616929903959  0.6622030118246 1.0
C      1  0.3955941924882  0.7150966427612  0.4656639021595 1.0
C      1  0.6553309883600  0.3406438085202  0.3890028476182 1.0
C      1  0.5589438234660  0.3409083525680  0.3765679582368 1.0
C      1  0.3282397129676  0.4408116907694  0.3793799891814 1.0
C      1  0.4647117861500  0.5310049242058  0.3906921521696 1.0
C      1  0.3439422031615  0.3853868156792  0.5463949150836 1.0
C      1  0.4250334446656  0.4035894958472  0.7313638296311 1.0
C      1  0.4228297391500  0.2786361572124  0.4523265990533 1.0
C      1  0.2758646023579  0.5246253347370  0.3918869395846 1.0
C      1  0.2985862088414  0.4126449254290  0.4677144560320 1.0
C      1  0.7172273940369  0.5186350766919  0.3160736321597 1.0
C      1  0.3590168007231  0.5603036799299  0.7330884957843 1.0
C      1  0.6340050810692  0.5042993715562  0.2890148224624 1.0
C      1  0.6917849294223  0.4218638795049  0.5802470627442 1.0
C      1  0.4815195163782  0.5267012468868  0.4902592702261 1.0
C      1  0.6985507057596  0.6223425849434  0.5222550634306 1.0
C      1  0.4690619714836  0.3262405311819  0.6868253997492 1.0
C      1  0.2497127209592  0.4950582439820  0.4815114773226 1.0
C      1  0.4291933472141  0.7219914735619  0.5538729902517 1.0
C      1  0.5259656456589  0.7142778743088  0.5432507811384 1.0
C      1  0.3639196398820  0.4706293333695  0.7053448399209 1.0
C      1  0.4986457422866  0.5381824103956  0.2336682428679 1.0
C      1  0.5190806828845  0.2951934093640  0.4515936437700 1.0
C      1  0.7475137359446  0.5498141222034  0.4793835755057 1.0
C      1  0.5484192525596  0.5487580217497  0.3148931852721 1.0
C      1  0.5633497220244  0.6128044924365  0.6697261564868 1.0
C      1  0.5545020221089  0.2975299627936  0.5420800078132 1.0
C      1  0.3170444505762  0.6072400809855  0.3883968096022 1.0
C      1  0.6747243113507  0.6516723331210  0.6058960978802 1.0
C      1  0.2782470647518  0.5385300425543  0.5594595598979 1.0
END
