TITL C-116947-6896-6 -2.416 3375.00 -388.47701020 0 0 48 (C1) n - 1
REM
REM Run started: at 2020.11.23 21:21:19 in /rds/project/t2_vol4/rds-t2-cs072/BORA/CARBON/AIRSS/Generating-Clusters/Str-Search/Higher-Symm
REM VASP from code version vasp.5.4.4.18Apr17-6-g9f103f2a35 (build Oct 11 2019 16:45:47) gamma-only
REM
REM
REM
REM
REM ./C.cell (e5ae0387ce4d49c7c0135a1433873289)
REM AIRSS Version 0.9.1 bugfix July 2018 build 013d7b7c2542+ Fri, 06 Jul 2018 19:26:36 +0100
REM compiler GCC version 4.8.5 20150623 (Red Hat 4.8.5-39)
REM options -cpp -mtune=generic -march=x86-64 -g -O0
REM seed 962557366 -2026386352 1094675777 1007317297 2125311641 1315086980 -2114628060 -1487987957 -225458509 2028861910 -1923455914 764005385
REM
REM C.POTCAR (d86ddea03c3ceb6dc662c8ad6801f873)
REM 
CELL 1.54180   15.00000   15.00000   15.00000   90.00000   90.00000   90.00000
LATT -1
SFAC C  
C      1  0.5783940886315  0.4853948057641  0.7303595223018 1.0
C      1  0.7367405452215  0.4853441279103  0.5534517487855 1.0
C      1  0.6601337354868  0.4985839831185  0.3145930627994 1.0
C      1  0.4330117326438  0.4957682055128  0.2669524779553 1.0
C      1  0.2621634746731  0.4961926994082  0.4557271936204 1.0
C      1  0.3323023681485  0.4988642522516  0.6788979590994 1.0
C      1  0.4667643232322  0.7157285280998  0.4080250518730 1.0
C      1  0.4052346603763  0.7159646429704  0.4764987232281 1.0
C      1  0.4369078468305  0.7132677456213  0.5697908874372 1.0
C      1  0.5288984261559  0.7031279558183  0.5938790980997 1.0
C      1  0.5963622235290  0.7031204097829  0.5187489038152 1.0
C      1  0.5628589455352  0.7131560635551  0.4297962254161 1.0
C      1  0.4473239282925  0.5678294078146  0.3177881207606 1.0
C      1  0.3136069945752  0.5683214469970  0.4663821679300 1.0
C      1  0.3695268189349  0.5662602284348  0.6332238520909 1.0
C      1  0.5553388948981  0.5615671145620  0.6779146489740 1.0
C      1  0.6827099090236  0.5617589437068  0.5359116315779 1.0
C      1  0.6189340937551  0.5661298261641  0.3563631581366 1.0
C      1  0.4366039365557  0.5307825760378  0.5671728196891 1.0
C      1  0.5270070767167  0.5273282302930  0.5871150871784 1.0
C      1  0.5894221309730  0.5274108446970  0.5175115331488 1.0
C      1  0.5600960909986  0.5305956849674  0.4298334429024 1.0
C      1  0.4685820670751  0.5327541222712  0.4097827137812 1.0
C      1  0.4071581645709  0.5329953652813  0.4782805679599 1.0
C      1  0.6598045473619  0.3355134840869  0.5789747556519 1.0
C      1  0.6264821505549  0.3398815687371  0.3657915852244 1.0
C      1  0.4458553054745  0.3385206460316  0.3270803643266 1.0
C      1  0.3221004810980  0.3386832168557  0.4649329020126 1.0
C      1  0.3796227677325  0.3396683435581  0.6408506044406 1.0
C      1  0.5949961606240  0.3352849757604  0.6514011908537 1.0
C      1  0.6552633198493  0.4114974012720  0.3331541270897 1.0
C      1  0.4320620662159  0.4089563850748  0.2827541407254 1.0
C      1  0.2775524034581  0.4093493670985  0.4534449018621 1.0
C      1  0.3505686544252  0.4118261482835  0.6720719408818 1.0
C      1  0.5862022766137  0.4040660137310  0.7121465856430 1.0
C      1  0.7192466120412  0.4041433393524  0.5635629078594 1.0
C      1  0.4845578448056  0.6581723330536  0.3276190289240 1.0
C      1  0.3270427277798  0.6585360055501  0.5026330855837 1.0
C      1  0.3598179744800  0.6569815179960  0.5953028920183 1.0
C      1  0.5504912982261  0.6500363890363  0.6681351238315 1.0
C      1  0.6725429077383  0.6502149129170  0.5326150174352 1.0
C      1  0.5801464165970  0.6567465126162  0.3505818762843 1.0
C      1  0.4709986336618  0.3023039690003  0.4081030114069 1.0
C      1  0.4051782709102  0.3022072964298  0.4816576437197 1.0
C      1  0.4352862097746  0.3013210153923  0.5763478494773 1.0
C      1  0.5281052733850  0.2929800509744  0.5900045451178 1.0
C      1  0.5917340820296  0.2932371225802  0.5188358339106 1.0
C      1  0.5682591383296  0.3016241735714  0.4279974871586 1.0
END
