TITL C-114782-3840-8 -1.194 3375.00 -182.52587009 0 0 24 (C1) n - 1
REM
REM Run started: at 2020.12.27 14:31:31 in /rds/project/t2_vol4/rds-t2-cs072/BORA/CARBON/AIRSS/Generating-Clusters/Str-Search/Higher-Symm/C10-100
REM VASP from code version vasp.5.4.4.18Apr17-6-g9f103f2a35 (build Oct 11 2019 16:45:47) gamma-only
REM
REM
REM
REM
REM ./C.cell (f39ce9773e2efe3fa5bbdf770a4156b8)
REM AIRSS Version 0.9.1 bugfix July 2018 build 013d7b7c2542+ Fri, 06 Jul 2018 19:26:36 +0100
REM compiler GCC version 4.8.5 20150623 (Red Hat 4.8.5-39)
REM options -cpp -mtune=generic -march=x86-64 -g -O0
REM seed 1135104498 -1784110014 2141373702 -199842916 1034185720 631629252 755449961 -189518799 -27957803 415228232 532082263 -1129294184
REM
REM C.POTCAR (d86ddea03c3ceb6dc662c8ad6801f873)
REM 
CELL 1.54180   15.00000   15.00000   15.00000   90.00000   90.00000   90.00000
LATT -1
SFAC C  
C      1  0.4822938119448  0.6852482195772  0.3483020191639 1.0
C      1  0.6006432861024  0.3471772740897  0.2622373711100 1.0
C      1  0.5778585806340  0.2229532465639  0.5969744289199 1.0
C      1  0.4711481425448  0.4843345037898  0.7117289267885 1.0
C      1  0.5476146493163  0.6945075782727  0.5768777305261 1.0
C      1  0.5345912175788  0.6199509319220  0.3903113453321 1.0
C      1  0.5881287192025  0.4308953053793  0.2907419457031 1.0
C      1  0.5613631053291  0.3062664951957  0.5595349460024 1.0
C      1  0.5252374159829  0.4846481537632  0.6349385140677 1.0
C      1  0.5991418635170  0.6295342102934  0.5594204119994 1.0
C      1  0.4905935871111  0.2507664798594  0.5913786632251 1.0
C      1  0.4509411837385  0.5427993809253  0.6401064353560 1.0
C      1  0.4643665410317  0.6675904327468  0.5344122953174 1.0
C      1  0.4701664340219  0.6697919472829  0.4405924764377 1.0
C      1  0.5851756626868  0.3316849789789  0.3528467666852 1.0
C      1  0.6113025744935  0.5497244430656  0.5152744071612 1.0
C      1  0.5960191197744  0.5523851743035  0.4183815958388 1.0
C      1  0.6094548478459  0.4719547546848  0.3735813947823 1.0
C      1  0.5888821191678  0.3852850457749  0.5178062390221 1.0
C      1  0.5869714523066  0.4691702658645  0.5631796373248 1.0
C      1  0.6116510695769  0.3867046831757  0.4247762659564 1.0
C      1  0.2432257398580  0.5638358514016  0.5202909429590 1.0
C      1  0.4059131962531  0.6019038475813  0.5793398010466 1.0
C      1  0.3226635799811  0.5802110955078  0.5486339392745 1.0
END
