TITL C-110611-5339-4 -2.129 3375.00 -352.96317354 0 0 44 (C1) n - 1
REM
REM Run started: at 2020.12.27 13:55:11 in /rds/project/t2_vol4/rds-t2-cs072/BORA/CARBON/AIRSS/Generating-Clusters/Str-Search/Higher-Symm/C10-100
REM VASP from code version vasp.5.4.4.18Apr17-6-g9f103f2a35 (build Oct 11 2019 16:45:47) gamma-only
REM
REM
REM
REM
REM ./C.cell (f39ce9773e2efe3fa5bbdf770a4156b8)
REM AIRSS Version 0.9.1 bugfix July 2018 build 013d7b7c2542+ Fri, 06 Jul 2018 19:26:36 +0100
REM compiler GCC version 4.8.5 20150623 (Red Hat 4.8.5-39)
REM options -cpp -mtune=generic -march=x86-64 -g -O0
REM seed 1639373202 -396604007 -157575251 -1689053269 856167074 480903060 -657808312 420067149 2113240415 576281816 1581131466 -1650725780
REM
REM C.POTCAR (d86ddea03c3ceb6dc662c8ad6801f873)
REM 
CELL 1.54180   15.00000   15.00000   15.00000   90.00000   90.00000   90.00000
LATT -1
SFAC C  
C      1  0.3939396972094  0.6293694739175  0.4079459242875 1.0
C      1  0.5653768666986  0.5581575523036  0.3441348441405 1.0
C      1  0.7007302690124  0.3944332663759  0.4201409479523 1.0
C      1  0.4880397627895  0.3242650108204  0.3901176298477 1.0
C      1  0.3266985059255  0.4963932620390  0.3661846598551 1.0
C      1  0.6510214336673  0.3315361239779  0.3998257842953 1.0
C      1  0.4568954808376  0.4071237549730  0.3488214100819 1.0
C      1  0.2637387385217  0.5415185598836  0.4228923227584 1.0
C      1  0.4724472084246  0.6790000687448  0.4204580685004 1.0
C      1  0.6559092725675  0.5497477803146  0.3762198023237 1.0
C      1  0.6132593013163  0.6870688933377  0.4352630341695 1.0
C      1  0.7099495886442  0.5508132970360  0.4993199843861 1.0
C      1  0.5748793342289  0.2437418991891  0.5002313329876 1.0
C      1  0.3437407415551  0.3544917160217  0.4486732485334 1.0
C      1  0.2887101335198  0.6234315860708  0.5547270844889 1.0
C      1  0.5336939202565  0.7072194748009  0.4911130164662 1.0
C      1  0.6796177612596  0.6235513091352  0.4385041402290 1.0
C      1  0.5666227963534  0.2667388919789  0.5805622808376 1.0
C      1  0.4180486814305  0.3037922458807  0.4584566028588 1.0
C      1  0.2741549451377  0.5372819060190  0.5180238208897 1.0
C      1  0.3511613780796  0.5388262436782  0.5812486096281 1.0
C      1  0.5366192760278  0.6799982193198  0.5827877881858 1.0
C      1  0.6812588500302  0.5515317720697  0.5926461445881 1.0
C      1  0.5482944640033  0.3436864444140  0.6284720717205 1.0
C      1  0.4056463753568  0.3732496485098  0.5292335955950 1.0
C      1  0.5720648668832  0.2865283775545  0.4155944965647 1.0
C      1  0.3593625886540  0.4108984265840  0.3713368409599 1.0
C      1  0.3079615359289  0.6235682176105  0.4547988471609 1.0
C      1  0.5482355815972  0.6491055973637  0.3714608808222 1.0
C      1  0.7048934465055  0.4848615823862  0.4293234405712 1.0
C      1  0.6765153747818  0.6383619333058  0.6286831271594 1.0
C      1  0.4727765475008  0.3746754686497  0.6803316694743 1.0
C      1  0.3898864538430  0.3821074827038  0.6274458074527 1.0
C      1  0.3744279424592  0.4748258324529  0.6550718392054 1.0
C      1  0.6186478124152  0.6977728640592  0.6313398678566 1.0
C      1  0.4455624816704  0.5354703679882  0.5499471879984 1.0
C      1  0.4997090128910  0.5965903118102  0.6071883380637 1.0
C      1  0.6050873621686  0.5012900618289  0.6223094432435 1.0
C      1  0.5599708992855  0.4270498496660  0.5749855037402 1.0
C      1  0.4795515972225  0.4497859525924  0.5262748077239 1.0
C      1  0.4041493689743  0.5530337433119  0.3498575291239 1.0
C      1  0.4625559025218  0.4705424092940  0.7006905853717 1.0
C      1  0.5299260008776  0.5350040884075  0.6789771096303 1.0
C      1  0.4852885409657  0.5023949316186  0.3334373282702 1.0
END
