TITL C-110611-5339-6 -3.497 3375.00 -578.29192082 0 0 72 (C1) n - 1
REM
REM Run started: at 2020.12.27 14:36:06 in /rds/project/t2_vol4/rds-t2-cs072/BORA/CARBON/AIRSS/Generating-Clusters/Str-Search/Higher-Symm/C10-100
REM VASP from code version vasp.5.4.4.18Apr17-6-g9f103f2a35 (build Oct 11 2019 16:45:47) gamma-only
REM
REM
REM
REM
REM ./C.cell (f39ce9773e2efe3fa5bbdf770a4156b8)
REM AIRSS Version 0.9.1 bugfix July 2018 build 013d7b7c2542+ Fri, 06 Jul 2018 19:26:36 +0100
REM compiler GCC version 4.8.5 20150623 (Red Hat 4.8.5-39)
REM options -cpp -mtune=generic -march=x86-64 -g -O0
REM seed 699030607 2054525402 -1772385105 1153526658 414595670 -1020440904 23800209 -745024065 -646327675 2051343745 -1690898650 -2014536828
REM
REM C.POTCAR (d86ddea03c3ceb6dc662c8ad6801f873)
REM 
CELL 1.54180   15.00000   15.00000   15.00000   90.00000   90.00000   90.00000
LATT -1
SFAC C  
C      1  0.2243816019964  0.5512941044619  0.5640386725953 1.0
C      1  0.7132879001079  0.5913198570062  0.5385093458386 1.0
C      1  0.2281067598459  0.5813710098264  0.4706863908563 1.0
C      1  0.6881692330096  0.5391421163022  0.4542765776026 1.0
C      1  0.2135600222882  0.5027355212587  0.4177055237068 1.0
C      1  0.7206761678625  0.4446881521345  0.4773755053560 1.0
C      1  0.2158707802981  0.4240814116743  0.4755548856642 1.0
C      1  0.7253151116758  0.4366130566579  0.5714161440002 1.0
C      1  0.2245286142764  0.4544876880963  0.5671629275093 1.0
C      1  0.7274716628163  0.5287444657774  0.6079796316008 1.0
C      1  0.5398326268686  0.6691544125912  0.3175998096095 1.0
C      1  0.4392116421383  0.5456192527568  0.2716382555213 1.0
C      1  0.5375191142364  0.4334544486486  0.2830617735779 1.0
C      1  0.4454104103282  0.3057620135601  0.3071718664647 1.0
C      1  0.5386920440214  0.2503842038307  0.4216247890281 1.0
C      1  0.4889879340692  0.3297119034550  0.6707765285506 1.0
C      1  0.5593438278016  0.4718490029811  0.7031166822563 1.0
C      1  0.4600732165844  0.5542572684517  0.7590998177946 1.0
C      1  0.5428295331118  0.6504293290436  0.6617645558574 1.0
C      1  0.4764274669944  0.7644199477356  0.4613348364473 1.0
C      1  0.4698491959545  0.4593702888893  0.7502124845172 1.0
C      1  0.5541918836225  0.5854096807324  0.7330381363106 1.0
C      1  0.4528852147245  0.6595572507670  0.6508039208984 1.0
C      1  0.5638642074996  0.7632183461250  0.4839731292275 1.0
C      1  0.4697616965784  0.7254052501485  0.3116978761558 1.0
C      1  0.5334333039094  0.5326133329577  0.2438269507185 1.0
C      1  0.4457182652759  0.3925531669373  0.2646597627505 1.0
C      1  0.5376688619058  0.2856886363477  0.3294895076311 1.0
C      1  0.4514231203605  0.2413121740911  0.4480326632627 1.0
C      1  0.5690132068646  0.2970985576876  0.6994973815425 1.0
C      1  0.5908460722680  0.6048248436577  0.2586789366673 1.0
C      1  0.3859023934362  0.4633927085289  0.2572178333751 1.0
C      1  0.5975916300370  0.3529414628123  0.3004076364493 1.0
C      1  0.3878825031379  0.2703924583977  0.3773231707037 1.0
C      1  0.6509780604121  0.2936913530616  0.6666606394810 1.0
C      1  0.4205516450016  0.3858426964394  0.7187448141107 1.0
C      1  0.6292604928774  0.5276679608291  0.7485975764730 1.0
C      1  0.3979253919372  0.6122621611139  0.7159640328785 1.0
C      1  0.6495397736853  0.7572419281147  0.5168114049515 1.0
C      1  0.4154120099831  0.7472367651351  0.3850520412957 1.0
C      1  0.3082881790968  0.6054569086478  0.6982190124790 1.0
C      1  0.7204805010887  0.7714151091307  0.5790084268692 1.0
C      1  0.3322048918311  0.7077729459116  0.4061981563365 1.0
C      1  0.6747091930393  0.5871061245979  0.2969684735146 1.0
C      1  0.2957045343237  0.4684313749304  0.2767489478731 1.0
C      1  0.6798513857785  0.3625531551442  0.3395415253705 1.0
C      1  0.3042141441361  0.2988020343263  0.4013984628411 1.0
C      1  0.7395002405155  0.2688725188126  0.6421129503718 1.0
C      1  0.3325885690022  0.3922023519464  0.6866106966919 1.0
C      1  0.7208201925788  0.5165520449057  0.7875955381123 1.0
C      1  0.7189155433476  0.3840187093936  0.4096407673564 1.0
C      1  0.2482166735729  0.3451984446166  0.4415728461291 1.0
C      1  0.7206488442991  0.3538138283089  0.6185985389180 1.0
C      1  0.2689570708271  0.4096306759458  0.6361354610597 1.0
C      1  0.7208360230462  0.5372882133447  0.7014913602495 1.0
C      1  0.2521735489680  0.5978656220371  0.6377465520752 1.0
C      1  0.7046033981929  0.6849889514018  0.5442153144217 1.0
C      1  0.2752783890770  0.6560600012703  0.4383485981707 1.0
C      1  0.7165809564735  0.5745408724819  0.3668279274334 1.0
C      1  0.2378838871284  0.4953030142494  0.3289958133911 1.0
C      1  0.5029922499942  0.3193901160667  0.4877504244703 1.0
C      1  0.5051530696910  0.3704862484862  0.5809808913324 1.0
C      1  0.5611271604971  0.4534173265051  0.6066554381097 1.0
C      1  0.5285901193565  0.5250960528065  0.5423152877138 1.0
C      1  0.5088226894065  0.6226096487325  0.5717852721300 1.0
C      1  0.5114508070899  0.6752176830116  0.4875562350064 1.0
C      1  0.5274602733338  0.6158268514072  0.4075017025079 1.0
C      1  0.4626231890264  0.5506819933292  0.3661627294827 1.0
C      1  0.5191588501038  0.4679766440823  0.3859093180670 1.0
C      1  0.4796625981527  0.4082140346065  0.4513002196937 1.0
C      1  0.5795802928229  0.5344437602541  0.4471204467195 1.0
C      1  0.4575279343994  0.4511823502842  0.5302530458633 1.0
END
