TITL C-114782-3840-5 -1.354 3375.00 -209.59886545 0 0 27 (C1) n - 1
REM
REM Run started: at 2020.12.27 13:45:15 in /rds/project/t2_vol4/rds-t2-cs072/BORA/CARBON/AIRSS/Generating-Clusters/Str-Search/Higher-Symm/C10-100
REM VASP from code version vasp.5.4.4.18Apr17-6-g9f103f2a35 (build Oct 11 2019 16:45:47) gamma-only
REM
REM
REM
REM
REM ./C.cell (f39ce9773e2efe3fa5bbdf770a4156b8)
REM AIRSS Version 0.9.1 bugfix July 2018 build 013d7b7c2542+ Fri, 06 Jul 2018 19:26:36 +0100
REM compiler GCC version 4.8.5 20150623 (Red Hat 4.8.5-39)
REM options -cpp -mtune=generic -march=x86-64 -g -O0
REM seed -232952734 -638360961 -983543752 -1953377225 1846903990 -1445996656 -594802081 -1307987446 -1671919234 410234728 1423675408 1657461470
REM
REM C.POTCAR (d86ddea03c3ceb6dc662c8ad6801f873)
REM 
CELL 1.54180   15.00000   15.00000   15.00000   90.00000   90.00000   90.00000
LATT -1
SFAC C  
C      1  0.5506423624541  0.3152931732432  0.3028751230036 1.0
C      1  0.6106688151220  0.7383938866528  0.6930216255196 1.0
C      1  0.5338139758886  0.7144165609791  0.5256594678122 1.0
C      1  0.4716698729224  0.2881339364827  0.4667338574260 1.0
C      1  0.5756950824738  0.7250135724639  0.6080480430128 1.0
C      1  0.5157926938730  0.2961392274642  0.3850360801700 1.0
C      1  0.4309207546297  0.5472481375135  0.3838077372529 1.0
C      1  0.5761399633412  0.4813167156545  0.6448977074836 1.0
C      1  0.6574287907148  0.5448724924891  0.5345395570712 1.0
C      1  0.3105789024353  0.4406654415798  0.4079072957602 1.0
C      1  0.3769377250183  0.2970356268490  0.4547672724039 1.0
C      1  0.5602171073316  0.6492375260051  0.4547391914913 1.0
C      1  0.4688555853410  0.6214194152212  0.4286535313419 1.0
C      1  0.5103199050156  0.4218318523091  0.6043776476732 1.0
C      1  0.6551738566072  0.4776631051016  0.5937832669727 1.0
C      1  0.3414700401130  0.5171626038733  0.3889172045978 1.0
C      1  0.5207944936858  0.3921144492778  0.3458430319329 1.0
C      1  0.5718646138204  0.6539781507376  0.6744872657681 1.0
C      1  0.3190162019125  0.3556291551304  0.4354100713481 1.0
C      1  0.6359212022795  0.5941808621443  0.4677024757885 1.0
C      1  0.4888636214204  0.4637316405147  0.3917934117955 1.0
C      1  0.5322524630753  0.5732189669173  0.6554697385738 1.0
C      1  0.4732330236364  0.4437017831403  0.4832713094334 1.0
C      1  0.4622369321743  0.5766675256634  0.5890300966722 1.0
C      1  0.5013200519440  0.3621689179534  0.5258337642959 1.0
C      1  0.4610297305981  0.6481067550193  0.5227754726001 1.0
C      1  0.4478259321718  0.4885846196196  0.5619463527986 1.0
END
