TITL C-114261-8675-18 -2.278 3375.00 -389.52568495 0 0 49 (C2) n - 1
REM
REM Run started: at 2020.12.27 17:56:09 in /rds/project/t2_vol4/rds-t2-cs072/BORA/CARBON/AIRSS/Generating-Clusters/Str-Search/Higher-Symm/C10-100
REM VASP from code version vasp.5.4.4.18Apr17-6-g9f103f2a35 (build Oct 11 2019 16:45:47) gamma-only
REM
REM
REM
REM
REM ./C.cell (f39ce9773e2efe3fa5bbdf770a4156b8)
REM AIRSS Version 0.9.1 bugfix July 2018 build 013d7b7c2542+ Fri, 06 Jul 2018 19:26:36 +0100
REM compiler GCC version 4.8.5 20150623 (Red Hat 4.8.5-39)
REM options -cpp -mtune=generic -march=x86-64 -g -O0
REM seed 357530818 969708119 169620604 1306398352 -360113691 -1955358156 -844957122 -437464555 -1401938054 1112580132 -2023899417 -983881233
REM
REM C.POTCAR (d86ddea03c3ceb6dc662c8ad6801f873)
REM 
CELL 1.54180   15.00000   15.00000   15.00000   90.00000   90.00000   90.00000
LATT -1
SFAC C  
C      1  0.5488842397446  0.5510891411152  0.6942354840018 1.0
C      1  0.4501568332254  0.4513479777232  0.6946375777665 1.0
C      1  0.5475180514543  0.5502301108737  0.3135016498865 1.0
C      1  0.4507982619854  0.4522967154935  0.3138443580338 1.0
C      1  0.5476422091793  0.4520408080422  0.6899514497031 1.0
C      1  0.4513550660683  0.5504149779674  0.6904692959775 1.0
C      1  0.5483388243921  0.4512060316436  0.3092315165929 1.0
C      1  0.4500040326742  0.5513097911464  0.3095894639675 1.0
C      1  0.2615728382197  0.5385646252292  0.5408979749416 1.0
C      1  0.7370307474838  0.4661801940842  0.5415642421847 1.0
C      1  0.2253483525924  0.5542729742629  0.4517271532446 1.0
C      1  0.7746330659418  0.4511654216881  0.4527971833894 1.0
C      1  0.2259051823469  0.4488169851180  0.5546808623588 1.0
C      1  0.7709437596463  0.5565577540658  0.5559489707827 1.0
C      1  0.2613645405026  0.4646081974904  0.4651878267565 1.0
C      1  0.7371035975845  0.5402044672091  0.4658435223691 1.0
C      1  0.4016640086076  0.7496923534477  0.5475957357937 1.0
C      1  0.5964955780469  0.2523671186701  0.5475951640345 1.0
C      1  0.4176159589526  0.7361316663550  0.4669581112737 1.0
C      1  0.5810767651387  0.2665661884934  0.4669161357850 1.0
C      1  0.4165821660916  0.2669913964733  0.5365295374932 1.0
C      1  0.5815921768455  0.7358467421396  0.5364060588773 1.0
C      1  0.4012250048240  0.2524980488358  0.4558549631739 1.0
C      1  0.5975685931773  0.7497352022415  0.4557916634921 1.0
C      1  0.5851672401219  0.3978885633361  0.3763767674916 1.0
C      1  0.4135210645466  0.6047242104197  0.3768648419459 1.0
C      1  0.5918818067674  0.3981009702079  0.6285541634196 1.0
C      1  0.4065887920615  0.6045542829235  0.6295297848342 1.0
C      1  0.5922922158322  0.6041717837426  0.3745853719379 1.0
C      1  0.4063611891547  0.3986163248076  0.3753124636192 1.0
C      1  0.5851576274569  0.6043384237324  0.6266245683741 1.0
C      1  0.4132196713299  0.3982883647307  0.6272365015137 1.0
C      1  0.4034041751981  0.5474775900828  0.4575406662385 1.0
C      1  0.5960950093610  0.4551505153291  0.4567048956817 1.0
C      1  0.3616448418951  0.5525450869401  0.5557898254582 1.0
C      1  0.6369242284487  0.4504168146845  0.5550422809747 1.0
C      1  0.3614318892499  0.4507673414749  0.4491469736732 1.0
C      1  0.6370357835885  0.5522244275073  0.4485457323082 1.0
C      1  0.4034457683069  0.4557871332356  0.5468669859391 1.0
C      1  0.5942050744984  0.5468682713294  0.5460556776644 1.0
C      1  0.4552459246995  0.6901575986690  0.3950426210072 1.0
C      1  0.5434930391759  0.3124644683979  0.3949817156111 1.0
C      1  0.4469864928456  0.6892481595669  0.6076020521153 1.0
C      1  0.5512982771305  0.3132960596296  0.6071335083260 1.0
C      1  0.4465938782321  0.3135452227684  0.3965214812177 1.0
C      1  0.5520959935275  0.6891421539693  0.3960143133065 1.0
C      1  0.4543733125327  0.3126230915097  0.6085166455514 1.0
C      1  0.5438752059521  0.6900070782386  0.6083591266280 1.0
C      1  0.4991556433604  0.5015324729568  0.5019660332822 1.0
END
