TITL C-113584-3185-20 -1.816 3375.00 -282.12499940 0 0 35 (Cs) n - 1
REM
REM Run started: at 2020.12.27 18:46:05 in /rds/project/t2_vol4/rds-t2-cs072/BORA/CARBON/AIRSS/Generating-Clusters/Str-Search/Higher-Symm/C10-100
REM VASP from code version vasp.5.4.4.18Apr17-6-g9f103f2a35 (build Oct 11 2019 16:45:47) gamma-only
REM
REM
REM
REM
REM ./C.cell (f39ce9773e2efe3fa5bbdf770a4156b8)
REM AIRSS Version 0.9.1 bugfix July 2018 build 013d7b7c2542+ Fri, 06 Jul 2018 19:26:36 +0100
REM compiler GCC version 4.8.5 20150623 (Red Hat 4.8.5-39)
REM options -cpp -mtune=generic -march=x86-64 -g -O0
REM seed -1705934150 -946748804 1733172368 1426994020 706201665 -1018568697 1937233259 -795227408 -589118559 -953078960 647978368 1152673112
REM
REM C.POTCAR (d86ddea03c3ceb6dc662c8ad6801f873)
REM 
CELL 1.54180   15.00000   15.00000   15.00000   90.00000   90.00000   90.00000
LATT -1
SFAC C  
C      1  0.3087022081221  0.4937358214669  0.5770261890966 1.0
C      1  0.2998053549770  0.4181771393909  0.5146718183075 1.0
C      1  0.2828908707877  0.4557633086127  0.4285167223873 1.0
C      1  0.2829550497412  0.5542266834889  0.4365415585733 1.0
C      1  0.2993905216775  0.5781255812561  0.5275724897204 1.0
C      1  0.5000692168199  0.7146022306750  0.5631186725289 1.0
C      1  0.5235505388655  0.4832746233623  0.7041695533377 1.0
C      1  0.5018551957705  0.2786367883710  0.5272704636745 1.0
C      1  0.4980093392415  0.3813035016785  0.3576012464075 1.0
C      1  0.4978325860517  0.6396714601443  0.3790081925398 1.0
C      1  0.6955842945578  0.4150560560549  0.5686753541494 1.0
C      1  0.7070345399926  0.3996205560897  0.4766557593482 1.0
C      1  0.6390630421576  0.5113425090341  0.3705699893123 1.0
C      1  0.7063641218046  0.6037441060251  0.4946894365085 1.0
C      1  0.6947825174590  0.5726193682220  0.5825441949421 1.0
C      1  0.3459405810325  0.4603990575441  0.3557237658555 1.0
C      1  0.3457659215256  0.5618440487182  0.3637540424786 1.0
C      1  0.3411820737952  0.6540785997422  0.5586945167513 1.0
C      1  0.3619159566433  0.4875885073127  0.6525483182309 1.0
C      1  0.3427815721182  0.3387247378142  0.5330110182061 1.0
C      1  0.4210030263804  0.6135386178754  0.3606904846468 1.0
C      1  0.4153426626199  0.6955560526291  0.5588644985064 1.0
C      1  0.4352386187384  0.4845602088499  0.6914722077302 1.0
C      1  0.4171320182867  0.2980877559520  0.5265398812887 1.0
C      1  0.4210668171369  0.4098107083276  0.3438373403037 1.0
C      1  0.5769666291533  0.3111858850638  0.4880729557849 1.0
C      1  0.5763826083001  0.3647085836941  0.4032240229115 1.0
C      1  0.5757034669660  0.6492658670321  0.4274174710362 1.0
C      1  0.5753601487868  0.6878300551299  0.5200327381961 1.0
C      1  0.6038820127333  0.4842209517831  0.6839339406227 1.0
C      1  0.6620777369319  0.3352766128160  0.5292100793283 1.0
C      1  0.6539177023778  0.4252148153524  0.3991101130847 1.0
C      1  0.6539170075880  0.5911616776906  0.4135767545014 1.0
C      1  0.6604509735591  0.6576343507867  0.5572128733750 1.0
C      1  0.6760835673006  0.4894129720135  0.6244414363269 1.0
END
