TITL C-114782-3840-20 -3.178 3375.00 -554.47160418 0 0 69 (C1) n - 1
REM
REM Run started: at 2020.12.27 17:50:30 in /rds/project/t2_vol4/rds-t2-cs072/BORA/CARBON/AIRSS/Generating-Clusters/Str-Search/Higher-Symm/C10-100
REM VASP from code version vasp.5.4.4.18Apr17-6-g9f103f2a35 (build Oct 11 2019 16:45:47) gamma-only
REM
REM
REM
REM
REM ./C.cell (f39ce9773e2efe3fa5bbdf770a4156b8)
REM AIRSS Version 0.9.1 bugfix July 2018 build 013d7b7c2542+ Fri, 06 Jul 2018 19:26:36 +0100
REM compiler GCC version 4.8.5 20150623 (Red Hat 4.8.5-39)
REM options -cpp -mtune=generic -march=x86-64 -g -O0
REM seed -79112745 -1173076758 946401728 -1131296598 -1533537909 1033735551 -1775457822 -1266278036 -1635777728 -797285501 397228314 -1091741739
REM
REM C.POTCAR (d86ddea03c3ceb6dc662c8ad6801f873)
REM 
CELL 1.54180   15.00000   15.00000   15.00000   90.00000   90.00000   90.00000
LATT -1
SFAC C  
C      1  0.5554725170164  0.7050824517150  0.6303008568594 1.0
C      1  0.4502388843260  0.7054447155284  0.3717492134556 1.0
C      1  0.4611740591084  0.7067989807218  0.6278276216263 1.0
C      1  0.5455468532981  0.6972406513425  0.3685940976071 1.0
C      1  0.6118224145152  0.6825059437749  0.5513578676978 1.0
C      1  0.3940911228897  0.7169419028893  0.4444220811169 1.0
C      1  0.4075491600053  0.6881399640587  0.5464427000277 1.0
C      1  0.6015574132425  0.6673676821411  0.4432606845545 1.0
C      1  0.5417914035888  0.4713017162710  0.4459485688343 1.0
C      1  0.4409329117859  0.4085063076128  0.5278561639571 1.0
C      1  0.4358736527086  0.4576917076749  0.4414833833813 1.0
C      1  0.5295218626962  0.4432743843727  0.5488812781307 1.0
C      1  0.5924893051176  0.5696544397645  0.2605157627121 1.0
C      1  0.4051031826781  0.5641991949066  0.7196285698085 1.0
C      1  0.3983105506636  0.5668140946028  0.2657103759271 1.0
C      1  0.5982107231797  0.5715181426331  0.7440068648678 1.0
C      1  0.5530989047302  0.6445906688426  0.7119209545013 1.0
C      1  0.4436689529086  0.6438047042550  0.2913502832356 1.0
C      1  0.4529471349176  0.6431683439880  0.7027641749482 1.0
C      1  0.5434361340740  0.6431479453730  0.2883753280441 1.0
C      1  0.4509156596342  0.4910709158936  0.2247670717316 1.0
C      1  0.5460380633481  0.4897614514249  0.7718325732355 1.0
C      1  0.5432132414527  0.4920198564838  0.2243394121754 1.0
C      1  0.4547879521677  0.4865243266469  0.7586648825148 1.0
C      1  0.5556391896263  0.3136676124128  0.3817143629445 1.0
C      1  0.4740982586700  0.2843490334769  0.6391684582443 1.0
C      1  0.4513852206653  0.3028314854084  0.3786028638123 1.0
C      1  0.5743533092691  0.2987376783505  0.6317504211817 1.0
C      1  0.2921452478190  0.4196327484308  0.5364399200170 1.0
C      1  0.6870468506115  0.3965109379873  0.3922821246850 1.0
C      1  0.6877864176341  0.4022815727590  0.6142325526301 1.0
C      1  0.2931723848547  0.4159766681263  0.4408310493164 1.0
C      1  0.4663584117954  0.2289550395474  0.4522615564207 1.0
C      1  0.5737087368983  0.2284556620497  0.5529116386202 1.0
C      1  0.5592897445270  0.2404762929125  0.4519775794915 1.0
C      1  0.4783242106414  0.2309730866895  0.5583725946460 1.0
C      1  0.3402769656345  0.5005793872213  0.6772616316258 1.0
C      1  0.6656860278626  0.5109499395720  0.2921598504362 1.0
C      1  0.6720233993018  0.5098009216547  0.7162657579676 1.0
C      1  0.3311178220693  0.5011984220831  0.3005843667586 1.0
C      1  0.6215207081642  0.4322130364452  0.7495666954573 1.0
C      1  0.3876885185631  0.4258707159193  0.2604894576286 1.0
C      1  0.3933524073686  0.4255183224675  0.7126563517428 1.0
C      1  0.6147608376103  0.4341900362492  0.2584540280844 1.0
C      1  0.6237775812891  0.3611806526372  0.3187084098997 1.0
C      1  0.4052900987896  0.3480845519853  0.6589459513100 1.0
C      1  0.3915583842911  0.3481854721048  0.3106847940728 1.0
C      1  0.6346644249548  0.3590646180406  0.6880959614153 1.0
C      1  0.7121694880122  0.6602080706134  0.5413399328430 1.0
C      1  0.3081021436820  0.6742291658897  0.4509656343823 1.0
C      1  0.3059451527939  0.6667865731356  0.5457118700601 1.0
C      1  0.7049402193913  0.6463456602515  0.4475873473650 1.0
C      1  0.3701081800772  0.3722041151837  0.5707859094918 1.0
C      1  0.5958300356705  0.3978454907196  0.4151627668924 1.0
C      1  0.5998745806482  0.3859631858955  0.5857962991955 1.0
C      1  0.3811647863269  0.3801999683048  0.4012787520078 1.0
C      1  0.7100385361922  0.5545434482825  0.5534944614024 1.0
C      1  0.2965481028132  0.5717119051542  0.4447766050383 1.0
C      1  0.2726712835337  0.5754949276318  0.5445504101713 1.0
C      1  0.7271961564674  0.5506204712467  0.4481494697634 1.0
C      1  0.4437627454710  0.5909335126130  0.5269883753528 1.0
C      1  0.5718675087168  0.5672739356911  0.4646285588425 1.0
C      1  0.6085282277060  0.5799275671318  0.5548424812336 1.0
C      1  0.3947401700988  0.5439959615114  0.4652002615945 1.0
C      1  0.7146909622930  0.4924706889440  0.6326857301137 1.0
C      1  0.2813699444827  0.4964554552360  0.3798455500766 1.0
C      1  0.2851157760618  0.4990247950764  0.5971611019708 1.0
C      1  0.7105949846588  0.4912411584252  0.3768141350643 1.0
C      1  0.5201682959383  0.5438691556127  0.5674043977786 1.0
END
