TITL C-113955-4923-4 -5.558 3375.00 -940.33722432 0 0 114 (C1) n - 1
REM
REM Run started: at 2020.12.27 15:27:53 in /rds/project/t2_vol4/rds-t2-cs072/BORA/CARBON/AIRSS/Generating-Clusters/Str-Search/Higher-Symm/C100-200
REM VASP from code version vasp.5.4.4.18Apr17-6-g9f103f2a35 (build Oct 11 2019 16:45:47) gamma-only
REM
REM
REM
REM
REM ./C.cell (533062f00bc710175b3da973d35f2034)
REM AIRSS Version 0.9.1 bugfix July 2018 build 013d7b7c2542+ Fri, 06 Jul 2018 19:26:36 +0100
REM compiler GCC version 4.8.5 20150623 (Red Hat 4.8.5-39)
REM options -cpp -mtune=generic -march=x86-64 -g -O0
REM seed 1878629459 -24245848 -604277581 1057490949 235383305 772873318 -1384124540 2058588926 856128314 1545647797 584090450 -2140006423
REM
REM C.POTCAR (d86ddea03c3ceb6dc662c8ad6801f873)
REM 
CELL 1.54180   15.00000   15.00000   15.00000   90.00000   90.00000   90.00000
LATT -1
SFAC C  
C      1  0.3950067085053  0.4522552175293  0.6235310792982 1.0
C      1  0.5716511358649  0.4648026259345  0.6269609947265 1.0
C      1  0.6582534471907  0.4645779613907  0.4822948032471 1.0
C      1  0.5281440574172  0.4658748406399  0.3635489413219 1.0
C      1  0.3617938006354  0.4577499708160  0.4445136425524 1.0
C      1  0.8290912598717  0.5205990355197  0.5865666583835 1.0
C      1  0.6866890351782  0.5025557977952  0.2089848888688 1.0
C      1  0.3027373263734  0.5322910843433  0.2529835145897 1.0
C      1  0.1712446772174  0.5126705769312  0.6233064411886 1.0
C      1  0.5148434140805  0.5205662873117  0.8330090741432 1.0
C      1  0.6164827112041  0.6285300455140  0.7526258840395 1.0
C      1  0.7786333803365  0.6248954377345  0.4657146995606 1.0
C      1  0.5725756981645  0.6258462054432  0.2428605686851 1.0
C      1  0.2718274360953  0.6390423788882  0.3757248927751 1.0
C      1  0.2917537598359  0.6182934583900  0.6854462526993 1.0
C      1  0.4969176998604  0.7853751686155  0.6414841138859 1.0
C      1  0.6539436720240  0.7914557852459  0.5595503506248 1.0
C      1  0.5447930255344  0.7876898897975  0.4500885370199 1.0
C      1  0.4053321610130  0.7955473075000  0.3648882772859 1.0
C      1  0.3426681091395  0.7778169450447  0.5238189840872 1.0
C      1  0.7042827672748  0.3944465504325  0.6977882035172 1.0
C      1  0.7545201423198  0.3809376152507  0.3719148265836 1.0
C      1  0.4697915201133  0.4026906358562  0.2281469957636 1.0
C      1  0.2170496525753  0.4015946159843  0.4507795846464 1.0
C      1  0.3624415556360  0.3952302512626  0.7604967930143 1.0
C      1  0.7359956139598  0.3641732407258  0.2776440724952 1.0
C      1  0.3699151717700  0.3914436622158  0.2143442116961 1.0
C      1  0.1723822116006  0.3844862923787  0.5398751266850 1.0
C      1  0.4396702325813  0.3798481136919  0.8242895039407 1.0
C      1  0.7859583177070  0.3765005038927  0.6462271367421 1.0
C      1  0.7068752803047  0.7343235714431  0.6194843496618 1.0
C      1  0.6774115190215  0.7097414917660  0.3272887864742 1.0
C      1  0.4306014787838  0.7366310873189  0.2908134474549 1.0
C      1  0.2768064788214  0.7160822856356  0.5622313322753 1.0
C      1  0.4492117530142  0.7268722478957  0.7088678940197 1.0
C      1  0.6924683177996  0.2411491287210  0.3588583873966 1.0
C      1  0.4296160261944  0.2672607281332  0.2819327130101 1.0
C      1  0.2644884331754  0.2653657867146  0.5022274323525 1.0
C      1  0.4290178359242  0.2638312097004  0.7219131532418 1.0
C      1  0.6905064270689  0.2556445891396  0.6357314080159 1.0
C      1  0.6009148846165  0.2094918394762  0.3573867883332 1.0
C      1  0.3967773842933  0.2342526197282  0.3631964898836 1.0
C      1  0.3289069288756  0.2264290669781  0.5598052944525 1.0
C      1  0.5047597591866  0.2342776671225  0.6728309676904 1.0
C      1  0.6677295343042  0.2118457287619  0.5514587184192 1.0
C      1  0.5069804791951  0.2181331112275  0.5778344571122 1.0
C      1  0.5841490291467  0.1885462164885  0.5212649648016 1.0
C      1  0.5493559551388  0.1895141093796  0.4306172345711 1.0
C      1  0.4540115523684  0.2192637335039  0.4397597216064 1.0
C      1  0.4190970848719  0.2090029663020  0.5324015715059 1.0
C      1  0.2367710949255  0.8156936500020  0.3880682092927 1.0
C      1  0.3663475281995  0.7609490244040  0.6779501251110 1.0
C      1  0.6510084652114  0.7655134040103  0.6958310204541 1.0
C      1  0.7027768707320  0.7558429586627  0.4065073105314 1.0
C      1  0.5225704583717  0.7704220353662  0.2922708377551 1.0
C      1  0.3476780264658  0.3101235921988  0.7068274364808 1.0
C      1  0.6498293815629  0.3117647672440  0.7019017802072 1.0
C      1  0.7405072107971  0.2964232534266  0.4215862548195 1.0
C      1  0.5079405729140  0.3123499618740  0.2546607111688 1.0
C      1  0.2604678850842  0.3154712994297  0.4218006375518 1.0
C      1  0.4978367135256  0.4840844194317  0.2683634845499 1.0
C      1  0.2646539159939  0.4839473510026  0.4350326501897 1.0
C      1  0.3624895299210  0.4774280348588  0.7137750873073 1.0
C      1  0.6611363207400  0.4857511728901  0.6697857858098 1.0
C      1  0.7194998968639  0.4728592726858  0.4041548868273 1.0
C      1  0.6427869886553  0.4697979573542  0.5715498943049 1.0
C      1  0.6137435213227  0.4665435187546  0.4027074498951 1.0
C      1  0.4568589490193  0.4438971893604  0.4240394512506 1.0
C      1  0.3757556460406  0.4292958618809  0.5337075643607 1.0
C      1  0.4872863746182  0.4371126767123  0.6048336757343 1.0
C      1  0.6760668934743  0.5858323912938  0.6894402396813 1.0
C      1  0.7494837730464  0.5709799535749  0.3900744168507 1.0
C      1  0.4872607722019  0.5851616293499  0.2494653414502 1.0
C      1  0.2485181258434  0.5836546416274  0.4494569531124 1.0
C      1  0.3662867394154  0.5785260960173  0.7285009692066 1.0
C      1  0.3243069453630  0.6077106079143  0.2992866950146 1.0
C      1  0.2308289066109  0.5788649468959  0.6194448773538 1.0
C      1  0.5280803921988  0.5927301684574  0.7800663032293 1.0
C      1  0.7862878596921  0.5949708444865  0.5593790035938 1.0
C      1  0.6560960937650  0.5779060781417  0.2476684221402 1.0
C      1  0.4050297538663  0.7979733633839  0.5968840199201 1.0
C      1  0.5876534030996  0.8040335662865  0.6325694329699 1.0
C      1  0.6395571541197  0.7965219565826  0.4685787681822 1.0
C      1  0.4984207246840  0.8180210669496  0.3743993355172 1.0
C      1  0.3341938485811  0.7927176578011  0.4271772998909 1.0
C      1  0.4114147742990  0.6449767748008  0.2748072159812 1.0
C      1  0.2411299297810  0.6298129401022  0.5350019732803 1.0
C      1  0.4487588477861  0.6337722087654  0.7426409788047 1.0
C      1  0.7276161821923  0.6393024773470  0.6255207926573 1.0
C      1  0.7102055513053  0.6197972847284  0.3181866298899 1.0
C      1  0.7308225913732  0.4328895874252  0.2177929709225 1.0
C      1  0.3159664737525  0.4658493420199  0.2053820904030 1.0
C      1  0.1282765871133  0.4492034353917  0.5887080314902 1.0
C      1  0.4816430397140  0.4516638904940  0.8646632843903 1.0
C      1  0.8400875814090  0.4459636230538  0.6214546859867 1.0
C      1  0.2180279992576  0.3096600586633  0.5746240968257 1.0
C      1  0.4846056027440  0.3062004669731  0.7896168058316 1.0
C      1  0.7706013960403  0.2946544936399  0.6001963258258 1.0
C      1  0.6858011985274  0.2832683876912  0.2736921743317 1.0
C      1  0.3472733269002  0.3131779350414  0.2595197858294 1.0
C      1  0.5932192745615  0.7145560170900  0.2783822041295 1.0
C      1  0.2567766462316  0.7317172994318  0.3841765418367 1.0
C      1  0.2943593648654  0.7087077288039  0.6578465066553 1.0
C      1  0.6250822964349  0.7202017095496  0.7683026282753 1.0
C      1  0.7686858147296  0.7159990545247  0.4566336372224 1.0
C      1  0.7418897041248  0.2667986146911  0.5118173962956 1.0
C      1  0.5894421575445  0.2690375539341  0.2766168131096 1.0
C      1  0.3148535652197  0.2874287940682  0.3500305365276 1.0
C      1  0.2926601404270  0.2824552096093  0.6342803110993 1.0
C      1  0.5630491415186  0.2850273400946  0.7315714772657 1.0
C      1  0.5066298289105  0.7126544703151  0.4901215853449 1.0
C      1  0.4786695731318  0.6354243370561  0.5117047098683 1.0
C      1  0.4683929860562  0.3946168188418  0.5142314536745 1.0
C      1  0.4732006439362  0.2948444880276  0.5120578581837 1.0
END
