TITL C-113955-4923-2 -5.776 3375.00 -1001.88522594 0 0 122 (C2) n - 1
REM
REM Run started: at 2020.12.27 14:20:55 in /rds/project/t2_vol4/rds-t2-cs072/BORA/CARBON/AIRSS/Generating-Clusters/Str-Search/Higher-Symm/C100-200
REM VASP from code version vasp.5.4.4.18Apr17-6-g9f103f2a35 (build Oct 11 2019 16:45:47) gamma-only
REM
REM
REM
REM
REM ./C.cell (533062f00bc710175b3da973d35f2034)
REM AIRSS Version 0.9.1 bugfix July 2018 build 013d7b7c2542+ Fri, 06 Jul 2018 19:26:36 +0100
REM compiler GCC version 4.8.5 20150623 (Red Hat 4.8.5-39)
REM options -cpp -mtune=generic -march=x86-64 -g -O0
REM seed 1332825877 -1377843135 689842488 245095256 -1413242701 21821857 1779189705 -2144727611 574258066 56349817 311365371 203568221
REM
REM C.POTCAR (d86ddea03c3ceb6dc662c8ad6801f873)
REM 
CELL 1.54180   15.00000   15.00000   15.00000   90.00000   90.00000   90.00000
LATT -1
SFAC C  
C      1  0.7829936902294  0.5896754074749  0.4607590005498 1.0
C      1  0.7687611714691  0.5843611224938  0.5652145238639 1.0
C      1  0.7704095473781  0.4872946707443  0.6023956907056 1.0
C      1  0.7729388892962  0.4067114883843  0.5390187711934 1.0
C      1  0.7760535371886  0.4170510170591  0.4378474229400 1.0
C      1  0.7806568056560  0.5095749315706  0.3966560291195 1.0
C      1  0.2303554245761  0.4065882391470  0.4625433197048 1.0
C      1  0.2272953756210  0.4170956685960  0.5636603697363 1.0
C      1  0.2224514464131  0.5096418890437  0.6048287040606 1.0
C      1  0.2200179634552  0.5896561767886  0.5406047082280 1.0
C      1  0.2342245421979  0.5842301356786  0.4360623026115 1.0
C      1  0.2326325767969  0.4871081382263  0.3990112321217 1.0
C      1  0.4030947527344  0.3090450436430  0.5257935268208 1.0
C      1  0.4044993101500  0.3834336173773  0.3515029828404 1.0
C      1  0.4041867319723  0.5707858505116  0.3302498918961 1.0
C      1  0.4560278141703  0.6805247579457  0.5018233154487 1.0
C      1  0.4057974918552  0.6095368966509  0.6547229794196 1.0
C      1  0.4007364075690  0.4209721721495  0.6785236875321 1.0
C      1  0.5469538831510  0.6804650138065  0.4995500467781 1.0
C      1  0.5974770799730  0.6093490605862  0.3466385343454 1.0
C      1  0.6027929001022  0.4206212680604  0.3231688289075 1.0
C      1  0.6002480269901  0.3090058797170  0.4761689305569 1.0
C      1  0.5988714980802  0.3837535226363  0.6502625927263 1.0
C      1  0.5990934746540  0.5711789894246  0.6710955525057 1.0
C      1  0.5274260462699  0.6226338439742  0.2111005753591 1.0
C      1  0.5282207660635  0.8269879780114  0.4612692692398 1.0
C      1  0.5300441701369  0.6908191706443  0.7490926383217 1.0
C      1  0.5277216154148  0.3776504744310  0.7915264148609 1.0
C      1  0.5284522377302  0.1851442400602  0.5409211560553 1.0
C      1  0.5292078222033  0.3074780404084  0.2487127306988 1.0
C      1  0.4756647035891  0.3771918661198  0.2102054845170 1.0
C      1  0.4749831503328  0.1851398615334  0.4612239552375 1.0
C      1  0.4741459459259  0.3079283057821  0.7530328503109 1.0
C      1  0.4758748290703  0.6230540785715  0.7903831970543 1.0
C      1  0.4750330853680  0.8270536795947  0.5400922473841 1.0
C      1  0.4731655754998  0.6904161345703  0.2522482449034 1.0
C      1  0.4817276871182  0.2506050458288  0.3088349817997 1.0
C      1  0.4813073306244  0.5417498293549  0.1915249872529 1.0
C      1  0.4789377274065  0.8002682717118  0.3799666195283 1.0
C      1  0.4836766895826  0.7500579353310  0.6905869265798 1.0
C      1  0.4804300218372  0.4578387770123  0.8111999404866 1.0
C      1  0.4809739903761  0.2078664426666  0.6202396562767 1.0
C      1  0.5195444693500  0.7497766633490  0.3106765449989 1.0
C      1  0.5230206497340  0.4573345967313  0.1904409314791 1.0
C      1  0.5224587558882  0.2077528368633  0.3818562312078 1.0
C      1  0.5217047497139  0.2509227067117  0.6931164095177 1.0
C      1  0.5221118233860  0.5422582935832  0.8099611987791 1.0
C      1  0.5244412874850  0.8005133295087  0.6213616942529 1.0
C      1  0.4161661798320  0.5344247219841  0.4123545060813 1.0
C      1  0.4060501666536  0.5920526010583  0.4966448138889 1.0
C      1  0.4160178089606  0.5500689561109  0.5877648771012 1.0
C      1  0.4107950013162  0.4544228077604  0.5954235697742 1.0
C      1  0.4106677960312  0.3984543906478  0.5147830154565 1.0
C      1  0.4124738504132  0.4373961252389  0.4242640811688 1.0
C      1  0.5925187466286  0.4542252389053  0.4061726499169 1.0
C      1  0.5925945341165  0.3984400134716  0.4869414621333 1.0
C      1  0.5909355041155  0.4375525924879  0.5773822102491 1.0
C      1  0.5872198513028  0.5345800146290  0.5891014143351 1.0
C      1  0.5970337159020  0.5920548447937  0.5046972206532 1.0
C      1  0.5872474211326  0.5499077909453  0.4136432611012 1.0
C      1  0.2967623247236  0.3144821079820  0.7009763761558 1.0
C      1  0.2989080949469  0.2371854958416  0.4424295166634 1.0
C      1  0.2997990223284  0.4188304824525  0.2438830586770 1.0
C      1  0.3005264265574  0.6869196422630  0.3022065686687 1.0
C      1  0.3086903036392  0.7660780535810  0.5561086999292 1.0
C      1  0.2989397815354  0.5813198226977  0.7567930207038 1.0
C      1  0.7027762198497  0.6872231090266  0.6990262587367 1.0
C      1  0.6945213613749  0.7660954054589  0.4451840221233 1.0
C      1  0.7042243922198  0.5810318494648  0.2446547109979 1.0
C      1  0.7065170849883  0.3140821673668  0.3007908450913 1.0
C      1  0.7044681217159  0.2373539051642  0.5594701156138 1.0
C      1  0.7034866643369  0.4193300028790  0.7577811777353 1.0
C      1  0.2525360486053  0.4746642653783  0.3094180759168 1.0
C      1  0.2459077427229  0.6682350207744  0.3760931042192 1.0
C      1  0.2664250991755  0.6773612690067  0.5580329609449 1.0
C      1  0.2492696351711  0.5249177011457  0.6931587361116 1.0
C      1  0.2497443045528  0.3437801791839  0.6190342990465 1.0
C      1  0.2513233693319  0.3216085308088  0.4268163027674 1.0
C      1  0.7538974349669  0.5247358175579  0.3083108198916 1.0
C      1  0.7535149696971  0.3435879904427  0.3826744820861 1.0
C      1  0.7519316958170  0.3218514249606  0.5748927261748 1.0
C      1  0.7505943182192  0.4750152199700  0.6920155781537 1.0
C      1  0.7573573411078  0.6683977037225  0.6251338994733 1.0
C      1  0.7366093880231  0.6773144093753  0.4432255619445 1.0
C      1  0.3859800158315  0.3723159708156  0.2548124237430 1.0
C      1  0.3848764861318  0.6480145821524  0.2707225962993 1.0
C      1  0.3950161116539  0.7763549099304  0.5070454734723 1.0
C      1  0.3852613431761  0.6295372340081  0.7484281845148 1.0
C      1  0.3821434945993  0.3462660378623  0.7390707319576 1.0
C      1  0.3844958171337  0.2200355182356  0.4880213114691 1.0
C      1  0.6180492177843  0.6293056822886  0.2529123082623 1.0
C      1  0.6212196401436  0.3458633588360  0.2626152969938 1.0
C      1  0.6189386558082  0.2200290419783  0.5139970441967 1.0
C      1  0.6174201733159  0.3727202538689  0.7469717070181 1.0
C      1  0.6184043305748  0.6484747833689  0.7305645639672 1.0
C      1  0.6082663622864  0.7764933426453  0.4943181458965 1.0
C      1  0.3924809347253  0.7059332659075  0.6825594306269 1.0
C      1  0.3862184194102  0.4415298462070  0.7743913715177 1.0
C      1  0.3871624062876  0.2337532521724  0.5881973379987 1.0
C      1  0.3884691214708  0.2921709275445  0.3158667758536 1.0
C      1  0.3888749935101  0.5555156029197  0.2324408967237 1.0
C      1  0.3845817868922  0.7875275298308  0.4090657648081 1.0
C      1  0.6149263711148  0.2925684344665  0.6859434269090 1.0
C      1  0.6144302257255  0.5560134778529  0.7688686551247 1.0
C      1  0.6188451927508  0.7878014352637  0.5922142035774 1.0
C      1  0.6107077702668  0.7057473898537  0.3187237044995 1.0
C      1  0.6171961966118  0.4411163427578  0.2272833282820 1.0
C      1  0.6162202508431  0.2336556202557  0.4138495895429 1.0
C      1  0.3099166654479  0.7465186312859  0.3728887557689 1.0
C      1  0.3096338949813  0.7276092321833  0.6373303431769 1.0
C      1  0.3011044953299  0.4912525545741  0.7695716304860 1.0
C      1  0.3009698598100  0.2608488908732  0.6277240321227 1.0
C      1  0.3019950485269  0.2720988825545  0.3586932463470 1.0
C      1  0.3025974897248  0.5086698467393  0.2324321775915 1.0
C      1  0.7023246137802  0.2605831924105  0.3741238800826 1.0
C      1  0.7013600969555  0.2724588446941  0.6431139625379 1.0
C      1  0.7007103604438  0.5092281623754  0.7689922472590 1.0
C      1  0.6935239785367  0.7468361503338  0.6283527063743 1.0
C      1  0.6934751320311  0.7275189549755  0.3640111168982 1.0
C      1  0.7021972110293  0.4909485462945  0.2318650644112 1.0
C      1  0.6931573869777  0.6116432026651  0.5043322766940 1.0
C      1  0.3099050545791  0.6116070324097  0.4969544565936 1.0
END
