TITL C-110611-5339-29 -1.108 3375.00 -171.00837139 0 0 22 (C1) n - 1
REM
REM Run started: at 2020.12.27 23:29:31 in /rds/project/t2_vol4/rds-t2-cs072/BORA/CARBON/AIRSS/Generating-Clusters/Str-Search/Higher-Symm/C10-100
REM VASP from code version vasp.5.4.4.18Apr17-6-g9f103f2a35 (build Oct 11 2019 16:45:47) gamma-only
REM
REM
REM
REM
REM ./C.cell (f39ce9773e2efe3fa5bbdf770a4156b8)
REM AIRSS Version 0.9.1 bugfix July 2018 build 013d7b7c2542+ Fri, 06 Jul 2018 19:26:36 +0100
REM compiler GCC version 4.8.5 20150623 (Red Hat 4.8.5-39)
REM options -cpp -mtune=generic -march=x86-64 -g -O0
REM seed 1272865601 -981919036 1704747800 252788273 -1577592237 1809576871 -375008928 -1813321900 -270707346 1635502881 -2111640105 -295100948
REM
REM C.POTCAR (d86ddea03c3ceb6dc662c8ad6801f873)
REM 
CELL 1.54180   15.00000   15.00000   15.00000   90.00000   90.00000   90.00000
LATT -1
SFAC C  
C      1  0.5550651719835  0.5432428608898  0.5934210879412 1.0
C      1  0.5704320418667  0.5828025822271  0.5068324083861 1.0
C      1  0.5651153222348  0.5364974901065  0.4216799859813 1.0
C      1  0.4801102634898  0.5826763042204  0.4287932263203 1.0
C      1  0.3965722202638  0.5432990125836  0.4566852563111 1.0
C      1  0.3910545032751  0.5341839915960  0.5494126708806 1.0
C      1  0.4641630052744  0.5339488261086  0.6122694642426 1.0
C      1  0.5339545746796  0.4249431838539  0.6952478433690 1.0
C      1  0.6690330412386  0.4312335440033  0.5919343195682 1.0
C      1  0.6733909864227  0.4227497741867  0.4258728306416 1.0
C      1  0.5452118160115  0.4230316526429  0.3152805411945 1.0
C      1  0.3816740678352  0.4309305263322  0.3443826514772 1.0
C      1  0.2982238501585  0.4255320675895  0.4926237255459 1.0
C      1  0.3640563221343  0.4249896263028  0.6542672317131 1.0
C      1  0.4490666204546  0.4579557397193  0.6763026919412 1.0
C      1  0.6002843041817  0.4669709315252  0.6404502747288 1.0
C      1  0.6942806027721  0.4307663999264  0.5091591708386 1.0
C      1  0.6057440654835  0.4629088193719  0.3748233560006 1.0
C      1  0.4597166260691  0.4304300556087  0.3070059326282 1.0
C      1  0.3431472090656  0.4670201117729  0.4189799847024 1.0
C      1  0.3294117080913  0.4585343213941  0.5738711456202 1.0
C      1  0.5152109770137  0.6585555780383  0.4795303999671 1.0
END
