TITL C-113388-3747-3 -13.412 3375.00 -2548.45344478 0 0 311 (C1) n - 1
REM
REM Run started: at 2020.12.13 10:57:11 in /rds/project/t2_vol4/rds-t2-cs072/BORA/CARBON/AIRSS/Generating-Clusters/Str-Search/Higher-Symm/C200-350
REM VASP from code version vasp.5.4.4.18Apr17-6-g9f103f2a35 (build Oct 11 2019 16:45:47) gamma-only
REM
REM
REM
REM
REM ./C.cell (8a36a0f86d45ee02852e7beefdfb7796)
REM AIRSS Version 0.9.1 bugfix July 2018 build 013d7b7c2542+ Fri, 06 Jul 2018 19:26:36 +0100
REM compiler GCC version 4.8.5 20150623 (Red Hat 4.8.5-39)
REM options -cpp -mtune=generic -march=x86-64 -g -O0
REM seed 466604450 1794085756 -66192046 1993770990 1999412465 280631848 2042897398 -484725137 565646745 -1929141119 246337646 -257156903
REM
REM C.POTCAR (d86ddea03c3ceb6dc662c8ad6801f873)
REM 
CELL 1.54180   15.00000   15.00000   15.00000   90.00000   90.00000   90.00000
LATT -1
SFAC C  
C      1  0.4030981674345  0.1652236771982  0.5412530913071 1.0
C      1  0.5989897014121  0.8366002112055  0.5409589486411 1.0
C      1  0.4472867390749  0.2073325393310  0.4623005602982 1.0
C      1  0.5556045503705  0.7912988106779  0.4627233215505 1.0
C      1  0.5971131939650  0.1637355949482  0.5435407333738 1.0
C      1  0.4073613376704  0.8345170058766  0.5421819498500 1.0
C      1  0.5538931226160  0.2063493198977  0.4638934880004 1.0
C      1  0.4491533389721  0.7913361093575  0.4626672238577 1.0
C      1  0.7235776079558  0.3070571345295  0.3141657492022 1.0
C      1  0.2782238463302  0.6890299010915  0.3124487502060 1.0
C      1  0.7235664298214  0.3115496947292  0.6989202471132 1.0
C      1  0.2777959392249  0.6883364449907  0.6964514950834 1.0
C      1  0.2787523012793  0.3094009106264  0.3094341330485 1.0
C      1  0.7237192975104  0.6908001958753  0.3157975075169 1.0
C      1  0.2755009537587  0.3120642632440  0.6933056111158 1.0
C      1  0.7269521812493  0.6885276268775  0.7051371879886 1.0
C      1  0.2004970699193  0.4509434289979  0.2006287580789 1.0
C      1  0.7893047039200  0.5496601799411  0.2032409489400 1.0
C      1  0.2012076936508  0.4530016745422  0.8029999052812 1.0
C      1  0.7947016623454  0.5462452954779  0.8138853474596 1.0
C      1  0.7882127515112  0.4487947134963  0.2008027347686 1.0
C      1  0.1992958845583  0.5485736724722  0.2032826330421 1.0
C      1  0.7943450218547  0.4513986528221  0.8110516027454 1.0
C      1  0.2016907923687  0.5468687536916  0.8058200624005 1.0
C      1  0.4139220668560  0.6903711109534  0.2184254403769 1.0
C      1  0.5917997654985  0.3051529283529  0.2220620220282 1.0
C      1  0.4091034404005  0.6764424840913  0.7980775768200 1.0
C      1  0.5892463942537  0.3233820642374  0.7996894214618 1.0
C      1  0.5923090369967  0.6932459193997  0.2221215342120 1.0
C      1  0.4147652360120  0.3086147432700  0.2172044727364 1.0
C      1  0.5900750154783  0.6749327662567  0.8014657109111 1.0
C      1  0.4079924845085  0.3224178977001  0.7959164895474 1.0
C      1  0.3944640075828  0.1125374892575  0.7717202823679 1.0
C      1  0.6023796586182  0.8864548125996  0.7732028271371 1.0
C      1  0.4002799734237  0.1173447982143  0.2314268403240 1.0
C      1  0.6041248199974  0.8807241604166  0.2328799457259 1.0
C      1  0.6026672282522  0.1120674047417  0.7729476496480 1.0
C      1  0.3971403245924  0.8881001189367  0.7729471720371 1.0
C      1  0.6034491711728  0.1166693916609  0.2333574639996 1.0
C      1  0.3994823115441  0.8801913869673  0.2322162619463 1.0
C      1  0.7127067964173  0.7431815830981  0.5566457071903 1.0
C      1  0.2698003401081  0.2562564243609  0.5439713037302 1.0
C      1  0.6917711769910  0.7059996353553  0.4748714305719 1.0
C      1  0.3086149472684  0.2968621531061  0.4737478634356 1.0
C      1  0.2723291433841  0.7456893000857  0.5461880328244 1.0
C      1  0.7312873411677  0.2549496443147  0.5476695936103 1.0
C      1  0.3099355354603  0.7026790357539  0.4769672386425 1.0
C      1  0.6931824599761  0.2957807172901  0.4772588102713 1.0
C      1  0.3043944899565  0.2059053468506  0.6660096775371 1.0
C      1  0.7027530856098  0.7982288970419  0.6739090962864 1.0
C      1  0.3111623408998  0.1963637303100  0.3394777775999 1.0
C      1  0.6914858630429  0.8016662636791  0.3427560678209 1.0
C      1  0.6950654861595  0.2050977691183  0.6697266883734 1.0
C      1  0.3093956157145  0.7941955544247  0.6679282226020 1.0
C      1  0.6913117025350  0.1956092102018  0.3429119777074 1.0
C      1  0.3110798269601  0.8009925580948  0.3414596531132 1.0
C      1  0.6077053729639  0.0428970962810  0.3880836932307 1.0
C      1  0.3936557664440  0.9549775073947  0.3861310814155 1.0
C      1  0.6236647694959  0.0425906700144  0.6148864216650 1.0
C      1  0.3759765730292  0.9559807006603  0.6143192656303 1.0
C      1  0.3938101177922  0.0431155868154  0.3864637061958 1.0
C      1  0.6083524036380  0.9548013017259  0.3875773379948 1.0
C      1  0.3730398630036  0.0443014349464  0.6151104498009 1.0
C      1  0.6207137337302  0.9530430896901  0.6132795912662 1.0
C      1  0.4505803893573  0.1531832439245  0.8364231568487 1.0
C      1  0.5466604572338  0.8455401876923  0.8383192148634 1.0
C      1  0.4556407992156  0.1471555387177  0.1609133883769 1.0
C      1  0.5490825210332  0.8509778969499  0.1623276461932 1.0
C      1  0.5457401087971  0.1529627770967  0.8370707693732 1.0
C      1  0.4518554280435  0.8462221430839  0.8380462485273 1.0
C      1  0.5493820698828  0.1470494681041  0.1621940846610 1.0
C      1  0.4550230477804  0.8509523595722  0.1617391750510 1.0
C      1  0.7003866339863  0.4061098769275  0.3512804325955 1.0
C      1  0.3036387161606  0.5916088574560  0.3458998847612 1.0
C      1  0.6981107697632  0.4035419364020  0.6509755288486 1.0
C      1  0.3033162493232  0.5963602274341  0.6502995744055 1.0
C      1  0.3022207554249  0.4070442531104  0.3447130743669 1.0
C      1  0.6984217682596  0.5921906214403  0.3517859587792 1.0
C      1  0.3024301097938  0.4043382594195  0.6458826648239 1.0
C      1  0.6970334880336  0.5957142976903  0.6560650126111 1.0
C      1  0.8225532630249  0.3136376606364  0.7320997034549 1.0
C      1  0.1780327356998  0.6869921030232  0.7289318492896 1.0
C      1  0.8265103069754  0.3010331058679  0.3005114039042 1.0
C      1  0.1729636911297  0.6951912595410  0.3025566687160 1.0
C      1  0.1758188002692  0.3145047468674  0.7244874121024 1.0
C      1  0.8245968389575  0.6855198468828  0.7387339229228 1.0
C      1  0.1748921342078  0.3013566244148  0.2968128606293 1.0
C      1  0.8279265391278  0.6951364350515  0.3060570527157 1.0
C      1  0.6880285792088  0.6804448083125  0.8029203700708 1.0
C      1  0.3100596313447  0.3186705225369  0.7932651139380 1.0
C      1  0.6939909759257  0.6883955663325  0.2183399690026 1.0
C      1  0.3101561709206  0.3136615537419  0.2120063700620 1.0
C      1  0.3114945514376  0.6811785384811  0.7963524531494 1.0
C      1  0.6871313973839  0.3186976197180  0.7990707599068 1.0
C      1  0.3086030393203  0.6853306133612  0.2144872464799 1.0
C      1  0.6927251246442  0.3099447109804  0.2170281000907 1.0
C      1  0.2771536145978  0.4016714699204  0.1656941453768 1.0
C      1  0.7141182953750  0.5980482459584  0.1735415697287 1.0
C      1  0.2787161095041  0.4047026086298  0.8384884211699 1.0
C      1  0.7180442433398  0.5936413367187  0.8502522901965 1.0
C      1  0.7125660816684  0.4007001091351  0.1716587230528 1.0
C      1  0.2760025823612  0.5979133319858  0.1681349145366 1.0
C      1  0.7175375334274  0.4043620114756  0.8469601323420 1.0
C      1  0.2793879291452  0.5948000614696  0.8414606296113 1.0
C      1  0.5564976234458  0.8934293005171  0.3265435910154 1.0
C      1  0.4463498053167  0.1046005532138  0.3258644977183 1.0
C      1  0.5598520484927  0.9446000926721  0.6997994497147 1.0
C      1  0.4345250581982  0.0542672983889  0.6991865273867 1.0
C      1  0.4463437566242  0.8933820513052  0.3259923157285 1.0
C      1  0.5559119548221  0.1042800212522  0.3269672410359 1.0
C      1  0.4385058524293  0.9461608956056  0.6994459000756 1.0
C      1  0.5634751830151  0.0531667385696  0.6992269541480 1.0
C      1  0.2112889546061  0.4494922809230  0.3525280756970 1.0
C      1  0.7870451563947  0.5488188203648  0.3585753075579 1.0
C      1  0.2127662786605  0.4508487757128  0.6451267360803 1.0
C      1  0.7867150360666  0.5504488209407  0.6566726317702 1.0
C      1  0.7897123352990  0.4493369041641  0.3552719439858 1.0
C      1  0.2135064204805  0.5485180422741  0.3555697336228 1.0
C      1  0.7880857994742  0.4495003404803  0.6518949695635 1.0
C      1  0.2136124687746  0.5515155031919  0.6498130037151 1.0
C      1  0.7933826611110  0.3225334839796  0.4543111322048 1.0
C      1  0.2106235088474  0.6753326288892  0.4552958811687 1.0
C      1  0.8103469829083  0.3109719164397  0.5547869175528 1.0
C      1  0.1930248651655  0.6923620547513  0.5555511308350 1.0
C      1  0.2083349958640  0.3227106051062  0.4504301766117 1.0
C      1  0.7896629743608  0.6769325340662  0.4600733356134 1.0
C      1  0.1907912488663  0.3117882733260  0.5507268407420 1.0
C      1  0.8002182911375  0.6896628909800  0.5614464645199 1.0
C      1  0.5443038462321  0.2547579616564  0.8423504656561 1.0
C      1  0.4528253199814  0.7442216311862  0.8430586113838 1.0
C      1  0.5487527528937  0.2498017983469  0.1502936932151 1.0
C      1  0.4565794044235  0.7487269713071  0.1498440409616 1.0
C      1  0.4518939477133  0.2547592791683  0.8411087341404 1.0
C      1  0.5451504382015  0.7439468233073  0.8436208846061 1.0
C      1  0.4571209011093  0.2497556541254  0.1487791119648 1.0
C      1  0.5484656078719  0.7483936543091  0.1505064214924 1.0
C      1  0.1747780774987  0.2312196274331  0.2227814142844 1.0
C      1  0.8319713479493  0.7666723176767  0.2330925402040 1.0
C      1  0.1781080540080  0.2505286468310  0.7894169386254 1.0
C      1  0.8198870992103  0.7506260303408  0.8028081927606 1.0
C      1  0.8297366925911  0.2307055515184  0.2270225398879 1.0
C      1  0.1723600007735  0.7665464674869  0.2291305517193 1.0
C      1  0.8186710580970  0.2494175407628  0.7963476050660 1.0
C      1  0.1810696870021  0.7514770666556  0.7931623055354 1.0
C      1  0.1741468869076  0.4135609730149  0.5583001037309 1.0
C      1  0.8230555382980  0.5921885067316  0.5733946662635 1.0
C      1  0.1712409294166  0.4141629663765  0.4396894063947 1.0
C      1  0.8199340288267  0.5822393662198  0.4508957438022 1.0
C      1  0.8262846509275  0.4124707808405  0.5644054627518 1.0
C      1  0.1754560223572  0.5933683800018  0.5677260780992 1.0
C      1  0.8305716779988  0.4135432672845  0.4410926677522 1.0
C      1  0.1796111281006  0.5816330890402  0.4484592545752 1.0
C      1  0.0778398226252  0.4245691064113  0.5690831887376 1.0
C      1  0.9206796876706  0.5908613355847  0.5858861081348 1.0
C      1  0.0723760140108  0.4031138015955  0.4088478751778 1.0
C      1  0.9182893011879  0.5754692035794  0.4329545672341 1.0
C      1  0.9224712248422  0.4238483761782  0.5720678578844 1.0
C      1  0.0779973075362  0.5914227612650  0.5831912811561 1.0
C      1  0.9281230266123  0.4031282525431  0.4096472673289 1.0
C      1  0.0807042341017  0.5755887716879  0.4314302955911 1.0
C      1  0.2671979122879  0.7747837712497  0.8137547310445 1.0
C      1  0.7324375820876  0.2254372016098  0.8160779241883 1.0
C      1  0.2566933479326  0.7784245661490  0.1966605967297 1.0
C      1  0.7448273821322  0.2180158358737  0.1967255708450 1.0
C      1  0.7326985198873  0.7744550621901  0.8196813864517 1.0
C      1  0.2638674218107  0.2261865752736  0.8110380483036 1.0
C      1  0.7482997915804  0.7797734131689  0.1993677756343 1.0
C      1  0.2602265415308  0.2204562750939  0.1925537294761 1.0
C      1  0.4214173658490  0.5565466597802  0.5827215458609 1.0
C      1  0.5794548533918  0.4436392175460  0.5845707651158 1.0
C      1  0.4287009162202  0.5669862731635  0.3876176589290 1.0
C      1  0.5749024322731  0.4308272939108  0.3934437571850 1.0
C      1  0.5790811240455  0.5531128353919  0.5848286794754 1.0
C      1  0.4221824056086  0.4444378996487  0.5814646871393 1.0
C      1  0.5731731884031  0.5663444324717  0.3918163243404 1.0
C      1  0.4287813058985  0.4312852855353  0.3858006928636 1.0
C      1  0.0561497852037  0.4434918422609  0.3189479924780 1.0
C      1  0.9418261055821  0.5482969106601  0.3328252443726 1.0
C      1  0.0570494839747  0.4491880787056  0.6720930838871 1.0
C      1  0.9435099769675  0.5554093258873  0.6820564456701 1.0
C      1  0.9428125136293  0.4433757130628  0.3189148881429 1.0
C      1  0.0568496425240  0.5485943880826  0.3325131751459 1.0
C      1  0.9450736449524  0.4487197542619  0.6745210188682 1.0
C      1  0.0576896738824  0.5561765340569  0.6793905910628 1.0
C      1  0.5658065306697  0.4045809098180  0.2257380592374 1.0
C      1  0.4548421340291  0.5939196159867  0.2185663114757 1.0
C      1  0.5469065234995  0.3943445814822  0.7508587810648 1.0
C      1  0.4521881207618  0.6050385986916  0.7501298006604 1.0
C      1  0.4547932201538  0.4052855503361  0.2180130211530 1.0
C      1  0.5661563347046  0.5939673447631  0.2253562746107 1.0
C      1  0.4516480870551  0.3941074071328  0.7488038947039 1.0
C      1  0.5472617854809  0.6042142854359  0.7522331400397 1.0
C      1  0.2537697039721  0.1671097368173  0.5785171478750 1.0
C      1  0.7495043715849  0.8372333919688  0.5814163786512 1.0
C      1  0.2520633418290  0.1359889653372  0.4011485395921 1.0
C      1  0.7502700956880  0.8600835245722  0.4047673797853 1.0
C      1  0.7468626795544  0.1658486231316  0.5821958446239 1.0
C      1  0.2586102638739  0.8344916942244  0.5804154524165 1.0
C      1  0.7497828723107  0.1352457029469  0.4043004501555 1.0
C      1  0.2514802022158  0.8605745415853  0.4023387271648 1.0
C      1  0.4501198929550  0.2736223762455  0.3120854771863 1.0
C      1  0.5526824879676  0.7250176317709  0.3135047585537 1.0
C      1  0.4552899686128  0.2828581008685  0.6241153836594 1.0
C      1  0.5530077764017  0.7129781873046  0.6228203803491 1.0
C      1  0.5530260026331  0.2727454181195  0.3139520408887 1.0
C      1  0.4497285323253  0.7246216826391  0.3128466676712 1.0
C      1  0.5449613218668  0.2824130645550  0.6252079407063 1.0
C      1  0.4629712666335  0.7187899773263  0.6251483537803 1.0
C      1  0.8309259996638  0.8250515843727  0.4393395088737 1.0
C      1  0.1705088170452  0.1702020476637  0.4338907315337 1.0
C      1  0.8423295323131  0.8306055910371  0.5379903205015 1.0
C      1  0.1540862968445  0.1707154644735  0.5324190232062 1.0
C      1  0.1695035542185  0.8267149216605  0.4362280164984 1.0
C      1  0.8312923732384  0.1694330635046  0.4366032182170 1.0
C      1  0.1570406422382  0.8323189788333  0.5348178190885 1.0
C      1  0.8473620474881  0.1701193661119  0.5353601276947 1.0
C      1  0.6870668973835  0.8405004754151  0.2471667095724 1.0
C      1  0.3178864550439  0.1586028611004  0.2441234229535 1.0
C      1  0.6847016648387  0.8417312155846  0.7614752974274 1.0
C      1  0.3142448711685  0.1606535907785  0.7558608485194 1.0
C      1  0.3166643908239  0.8396199521019  0.2461910989831 1.0
C      1  0.6860727434376  0.1571380414447  0.2473594507512 1.0
C      1  0.3177770247042  0.8393904421292  0.7574784652864 1.0
C      1  0.6833763447214  0.1598899842806  0.7592983229570 1.0
C      1  0.1486031121797  0.4121547521822  0.7204423967434 1.0
C      1  0.8502430484410  0.5878427585634  0.7339030065720 1.0
C      1  0.1489028429238  0.4073536810677  0.2788349131047 1.0
C      1  0.8495432202561  0.5910302397928  0.2876009469527 1.0
C      1  0.8504106616926  0.4108123397839  0.7271706778899 1.0
C      1  0.1499636130371  0.5893121920716  0.7267876539184 1.0
C      1  0.8483473847821  0.4069961926022  0.2793229615520 1.0
C      1  0.1477941731470  0.5907523075831  0.2862648639569 1.0
C      1  0.6158860242688  0.5497015271807  0.3038884957546 1.0
C      1  0.3918188875078  0.4494817686151  0.2943554417153 1.0
C      1  0.6064530263390  0.5524962674952  0.6857954044838 1.0
C      1  0.3928774089322  0.4464925705642  0.6814431202367 1.0
C      1  0.3924840781937  0.5494726719703  0.2951518286047 1.0
C      1  0.6164638049121  0.4482665851265  0.3043986150948 1.0
C      1  0.3931480160485  0.5531555892999  0.6826885513883 1.0
C      1  0.6070327006371  0.4457367528998  0.6848896847028 1.0
C      1  0.8785758961033  0.7499027873995  0.5752882833934 1.0
C      1  0.1136954570472  0.2536490444817  0.5642164754721 1.0
C      1  0.8592381364185  0.7288637238975  0.4036580510766 1.0
C      1  0.1433263322250  0.2627258256782  0.3945247072281 1.0
C      1  0.1167674290776  0.7520563739654  0.5696679224850 1.0
C      1  0.8879513595673  0.2526932545874  0.5662974888416 1.0
C      1  0.1415396755743  0.7298973254473  0.4002870337032 1.0
C      1  0.8580921447699  0.2625658043477  0.3975745913842 1.0
C      1  0.3311738126230  0.5518914002883  0.5436951217227 1.0
C      1  0.6719137561509  0.4462909756758  0.5498099144628 1.0
C      1  0.3428488663480  0.5500522497016  0.4358083610957 1.0
C      1  0.6613683104414  0.4478006185978  0.4426831897222 1.0
C      1  0.6711592580167  0.5510741418719  0.5502352270166 1.0
C      1  0.3310913420834  0.4475403135171  0.5436864196792 1.0
C      1  0.6594266696765  0.5505325958366  0.4424802556936 1.0
C      1  0.3421438327755  0.4482398311103  0.4350136941377 1.0
C      1  0.5499049816075  0.5512846353716  0.9582892373480 1.0
C      1  0.4493249313496  0.4536199530059  0.9191510014967 1.0
C      1  0.5415336852251  0.5515123131360  0.0665551213347 1.0
C      1  0.4434316069746  0.4478893514117  0.1263936984982 1.0
C      1  0.4494379410512  0.5438586572805  0.9194327942584 1.0
C      1  0.5494698532902  0.4461727364380  0.9584495231608 1.0
C      1  0.4430738989848  0.5520542858958  0.1268739522062 1.0
C      1  0.5408699929411  0.4474493846393  0.0670098240459 1.0
C      1  0.6912570556604  0.0622861889729  0.4476799924989 1.0
C      1  0.3107554772578  0.9343074513486  0.4455816813008 1.0
C      1  0.6728319150045  0.1001491025687  0.5447580161716 1.0
C      1  0.3315735904350  0.8979408224905  0.5425948991053 1.0
C      1  0.3103675527699  0.0633434136956  0.4454490468939 1.0
C      1  0.6920724766467  0.9362223629663  0.4471215325236 1.0
C      1  0.3276927253345  0.1013110028637  0.5424472332215 1.0
C      1  0.6734778474285  0.8995389231011  0.5431768291690 1.0
C      1  0.0527444116155  0.6762385408744  0.4416311753893 1.0
C      1  0.9471023635544  0.3089159021126  0.4284033290468 1.0
C      1  0.0474108985401  0.6868072101935  0.5480529464888 1.0
C      1  0.9523346910562  0.3203861561280  0.5358585531431 1.0
C      1  0.9455810332103  0.6757501242853  0.4429431721392 1.0
C      1  0.0539143807986  0.3088644754085  0.4270041692387 1.0
C      1  0.9485915488700  0.6857753635336  0.5493789407015 1.0
C      1  0.0485667609149  0.3208572542376  0.5350171219212 1.0
C      1  0.6255338776014  0.7749407150704  0.6129681451167 1.0
C      1  0.3949410854200  0.2115268121442  0.6196612268520 1.0
C      1  0.5892269407130  0.8054832677493  0.3641572740409 1.0
C      1  0.4131550625411  0.1927942614330  0.3628255448538 1.0
C      1  0.4015716844768  0.7898254845592  0.6221772413748 1.0
C      1  0.6052289004859  0.2108033843786  0.6219696442278 1.0
C      1  0.4135076687960  0.8054569176277  0.3638427544969 1.0
C      1  0.5889643993123  0.1919678762620  0.3649969118534 1.0
C      1  0.5508131462802  0.6438838005369  0.5516125595816 1.0
C      1  0.4511100326311  0.3524893559671  0.5511339174416 1.0
C      1  0.5499427069467  0.6593993039791  0.3916757811356 1.0
C      1  0.4519338875761  0.3386454171695  0.3906569391922 1.0
C      1  0.4519154174045  0.6478820512533  0.5531500799240 1.0
C      1  0.5504885231851  0.3521000839013  0.5525953829377 1.0
C      1  0.4513596315141  0.6596905630003  0.3918413014964 1.0
C      1  0.5508488402535  0.3381432199769  0.3928468361739 1.0
C      1  0.3443093254917  0.4514360433065  0.8889409286903 1.0
C      1  0.6499132354609  0.5457089258916  0.9034713938479 1.0
C      1  0.3401905869653  0.4522872451439  0.1162286912338 1.0
C      1  0.6175420528763  0.5523702129724  0.1457128155388 1.0
C      1  0.6500854910523  0.4515307540028  0.9025547604895 1.0
C      1  0.3449497723803  0.5467551713704  0.8899949423440 1.0
C      1  0.6170531222512  0.4462270002729  0.1458377291342 1.0
C      1  0.3394883928462  0.5481116647053  0.1173141905072 1.0
C      1  0.4113547610245  0.6968959070965  0.4721073747476 1.0
C      1  0.5908797659428  0.6954970964436  0.4706917653470 1.0
C      1  0.4104777504194  0.3023701827564  0.4703199713722 1.0
C      1  0.5912593431867  0.3009274574158  0.4725304105651 1.0
C      1  0.0481223559280  0.5196121033802  0.5178235313978 1.0
C      1  0.9507529992313  0.5192954945811  0.5194634629071 1.0
C      1  0.5008734133459  0.4981109886882  0.4187309764272 1.0
END
