TITL C-110611-5339-14 -1.906 3375.00 -322.31220039 0 0 39 (C3v) n - 1
REM
REM Run started: at 2020.12.27 18:03:56 in /rds/project/t2_vol4/rds-t2-cs072/BORA/CARBON/AIRSS/Generating-Clusters/Str-Search/Higher-Symm/C10-100
REM VASP from code version vasp.5.4.4.18Apr17-6-g9f103f2a35 (build Oct 11 2019 16:45:47) gamma-only
REM
REM
REM
REM
REM ./C.cell (f39ce9773e2efe3fa5bbdf770a4156b8)
REM AIRSS Version 0.9.1 bugfix July 2018 build 013d7b7c2542+ Fri, 06 Jul 2018 19:26:36 +0100
REM compiler GCC version 4.8.5 20150623 (Red Hat 4.8.5-39)
REM options -cpp -mtune=generic -march=x86-64 -g -O0
REM seed -1393348770 -949541485 769262190 2112100853 -2119725020 -989593555 296405211 -292719964 737883934 780605939 -1243862742 -361861116
REM
REM C.POTCAR (d86ddea03c3ceb6dc662c8ad6801f873)
REM 
CELL 1.54180   15.00000   15.00000   15.00000   90.00000   90.00000   90.00000
LATT -1
SFAC C  
C      1  0.6682949039501  0.4053101385353  0.4993035804608 1.0
C      1  0.6683117030765  0.5467735514615  0.5822405734970 1.0
C      1  0.6682431687423  0.5479166979322  0.4182937702595 1.0
C      1  0.3044837170935  0.4053191514216  0.4987263545370 1.0
C      1  0.3043508345201  0.5463276799079  0.5823463287129 1.0
C      1  0.3045551179200  0.5483182769844  0.4185450406039 1.0
C      1  0.6682948912439  0.5946898994203  0.4993036491797 1.0
C      1  0.6683117069608  0.4532264747928  0.5822405835962 1.0
C      1  0.6682431874409  0.4520833428625  0.4182937528575 1.0
C      1  0.3044837235950  0.5946807571803  0.4987263990720 1.0
C      1  0.3043508278170  0.4536722264859  0.5823463247460 1.0
C      1  0.3045551049653  0.4516816566227  0.4185449884019 1.0
C      1  0.5409740428282  0.3653032797716  0.3669413878066 1.0
C      1  0.5408940490149  0.4519429386724  0.6830731388180 1.0
C      1  0.5409662208070  0.6827057744678  0.4502429755627 1.0
C      1  0.4435083490643  0.3798362632201  0.3728252531890 1.0
C      1  0.4433931749990  0.4499182008205  0.6675567575281 1.0
C      1  0.4434573046116  0.6703146458076  0.4596432009413 1.0
C      1  0.5409740242434  0.6346967514976  0.3669414904770 1.0
C      1  0.5408940100976  0.5480570965983  0.6830731725550 1.0
C      1  0.5409662754474  0.3172942323829  0.4502428923293 1.0
C      1  0.4435083534019  0.6201637285491  0.3728253312987 1.0
C      1  0.4433931598190  0.5500818004594  0.6675567791779 1.0
C      1  0.4434573173551  0.3296853241397  0.4596431286716 1.0
C      1  0.3827818291711  0.4494186973072  0.3582497439089 1.0
C      1  0.3825516608034  0.4026439322694  0.6145592875370 1.0
C      1  0.3826175099605  0.6480780186662  0.5270372557665 1.0
C      1  0.6077330350970  0.4262616729379  0.3425289557834 1.0
C      1  0.6078373390428  0.4004153496124  0.6425153345381 1.0
C      1  0.6079071632439  0.6732972176585  0.5151092973837 1.0
C      1  0.3827818357311  0.5505812925185  0.3582497890945 1.0
C      1  0.3825516488562  0.5973560187307  0.6145593011682 1.0
C      1  0.3826175075640  0.3519219097134  0.5270372072996 1.0
C      1  0.6077330291327  0.5737383615299  0.3425289891127 1.0
C      1  0.6078372477361  0.5995845329120  0.6425155161659 1.0
C      1  0.6079072337455  0.3267029356798  0.5151094274691 1.0
C      1  0.5847467688344  0.3161935360738  0.6062168821250 1.0
C      1  0.5847471597203  0.6838066000348  0.6062169932391 1.0
C      1  0.5844040623464  0.5000000343609  0.2880892651285 1.0
END
