TITL C-114261-8675-9 -3.231 3375.00 -545.06798814 0 0 66 (C1) n - 1
REM
REM Run started: at 2020.12.27 16:07:03 in /rds/project/t2_vol4/rds-t2-cs072/BORA/CARBON/AIRSS/Generating-Clusters/Str-Search/Higher-Symm/C10-100
REM VASP from code version vasp.5.4.4.18Apr17-6-g9f103f2a35 (build Oct 11 2019 16:45:47) gamma-only
REM
REM
REM
REM
REM ./C.cell (f39ce9773e2efe3fa5bbdf770a4156b8)
REM AIRSS Version 0.9.1 bugfix July 2018 build 013d7b7c2542+ Fri, 06 Jul 2018 19:26:36 +0100
REM compiler GCC version 4.8.5 20150623 (Red Hat 4.8.5-39)
REM options -cpp -mtune=generic -march=x86-64 -g -O0
REM seed 1454804907 -360450981 1093566858 1519194570 2066865830 -1780777425 1050144466 -18433743 -811064265 1919219370 -1448041652 -1172297620
REM
REM C.POTCAR (d86ddea03c3ceb6dc662c8ad6801f873)
REM 
CELL 1.54180   15.00000   15.00000   15.00000   90.00000   90.00000   90.00000
LATT -1
SFAC C  
C      1  0.6307309769484  0.2707416631718  0.5979764750175 1.0
C      1  0.6225575638243  0.2791074863361  0.4202163242279 1.0
C      1  0.4520546127772  0.2550215256814  0.3556759402992 1.0
C      1  0.3418946784075  0.2510818758742  0.4993644662686 1.0
C      1  0.4530394002496  0.2836429553248  0.6393094408958 1.0
C      1  0.3708700438866  0.2664976266976  0.5856543777542 1.0
C      1  0.3737357841287  0.2454770301740  0.4056330799891 1.0
C      1  0.5479014134264  0.2752714991840  0.3665131987433 1.0
C      1  0.6611398303517  0.2685741385914  0.5104711630340 1.0
C      1  0.5450435626331  0.2848725126620  0.6453912257985 1.0
C      1  0.6662085231101  0.4265087505516  0.3560560086095 1.0
C      1  0.3743109496126  0.3653130422949  0.2518780064260 1.0
C      1  0.2245041103925  0.3721028585698  0.5141966321069 1.0
C      1  0.4503752125836  0.4354213835182  0.7018813610198 1.0
C      1  0.7431989955134  0.3914357847426  0.6360423105096 1.0
C      1  0.2936388858534  0.3574427965469  0.3073846147584 1.0
C      1  0.5839662289974  0.4245919618649  0.3054058184796 1.0
C      1  0.7739748107197  0.3904752286310  0.5433966063071 1.0
C      1  0.5446152439300  0.4366232166010  0.7173578197567 1.0
C      1  0.2542812491311  0.3899547133220  0.6048961786471 1.0
C      1  0.6629990502397  0.5252083686581  0.3616723493469 1.0
C      1  0.3671410086739  0.4628716984168  0.2572582966090 1.0
C      1  0.2244714837050  0.4701029570205  0.4989247547140 1.0
C      1  0.4501912647025  0.5300707801477  0.6741957496320 1.0
C      1  0.7525935449859  0.4876160175620  0.6385068619757 1.0
C      1  0.2867331877567  0.4542651791421  0.3109232869075 1.0
C      1  0.5738820946008  0.5221617256320  0.3181490232504 1.0
C      1  0.7838106996609  0.4876893341955  0.5451997867422 1.0
C      1  0.5468148697911  0.5349612046543  0.7024156220067 1.0
C      1  0.2470444211495  0.4887202887459  0.5896761244040 1.0
C      1  0.4036971061654  0.5302218963445  0.3137870009574 1.0
C      1  0.2965592094425  0.5271447038601  0.4632554292397 1.0
C      1  0.3998793060831  0.5625144177108  0.6059119163807 1.0
C      1  0.7033958317783  0.5668080695380  0.6533975231094 1.0
C      1  0.7101624075077  0.5888557047882  0.4164621299059 1.0
C      1  0.4906645401215  0.5699413371276  0.3261471131603 1.0
C      1  0.7530678060068  0.5661142432792  0.5023014061322 1.0
C      1  0.6145870822236  0.5953453567219  0.6812129702434 1.0
C      1  0.3252119770833  0.5456194639053  0.5586004179460 1.0
C      1  0.3231826531763  0.5226640134125  0.3739042826611 1.0
C      1  0.6213139794117  0.7480161611147  0.4065777288322 1.0
C      1  0.4410115877369  0.7348271498743  0.3848879227753 1.0
C      1  0.3450974907672  0.8085675435317  0.5105790913172 1.0
C      1  0.4518698792873  0.7828973643161  0.6530752568179 1.0
C      1  0.6661119858322  0.6980204655804  0.5739062688337 1.0
C      1  0.3693818284004  0.7769279256731  0.4271121679777 1.0
C      1  0.5348934020442  0.7343242833370  0.3804753939093 1.0
C      1  0.6682672310111  0.7358218795580  0.4884129708002 1.0
C      1  0.5205923667975  0.7331743680819  0.6511171926253 1.0
C      1  0.3721908142698  0.8136943691838  0.5985551492228 1.0
C      1  0.7345628998772  0.3320026400057  0.4854021540352 1.0
C      1  0.5379113793534  0.3458629101821  0.2970324996607 1.0
C      1  0.2935309559192  0.2956207727432  0.3767986315306 1.0
C      1  0.3230467665581  0.3380008458728  0.6366242078202 1.0
C      1  0.5895595033362  0.3571347624305  0.6985204964527 1.0
C      1  0.2628707133993  0.3028875448837  0.4672234627409 1.0
C      1  0.4476780546275  0.3182027911624  0.2794770778525 1.0
C      1  0.6900350847434  0.3499706221190  0.4024057191517 1.0
C      1  0.6745996302797  0.3354691255161  0.6600733372857 1.0
C      1  0.4049056232814  0.3586147021453  0.6812440875825 1.0
C      1  0.4858391395457  0.6602719700353  0.3510632833042 1.0
C      1  0.3783025040384  0.8415135401294  0.6838705949557 1.0
C      1  0.2893038801294  0.8272754916093  0.4349001471230 1.0
C      1  0.5964949982711  0.6841066022531  0.6406172684625 1.0
C      1  0.6892055027162  0.6803589324020  0.4153289875281 1.0
C      1  0.7221753770334  0.6213496250560  0.5771298074287 1.0
END
