TITL C-114261-8675-32 -3.185 3375.00 -516.28026950 0 0 64 (C1) n - 1
REM
REM Run started: at 2020.12.27 21:43:44 in /rds/project/t2_vol4/rds-t2-cs072/BORA/CARBON/AIRSS/Generating-Clusters/Str-Search/Higher-Symm/C10-100
REM VASP from code version vasp.5.4.4.18Apr17-6-g9f103f2a35 (build Oct 11 2019 16:45:47) gamma-only
REM
REM
REM
REM
REM ./C.cell (f39ce9773e2efe3fa5bbdf770a4156b8)
REM AIRSS Version 0.9.1 bugfix July 2018 build 013d7b7c2542+ Fri, 06 Jul 2018 19:26:36 +0100
REM compiler GCC version 4.8.5 20150623 (Red Hat 4.8.5-39)
REM options -cpp -mtune=generic -march=x86-64 -g -O0
REM seed 1007994414 1464507684 159418314 601660219 1284946088 1130360142 1255687138 739700892 1941808231 247892524 -136881868 -1701203097
REM
REM C.POTCAR (d86ddea03c3ceb6dc662c8ad6801f873)
REM 
CELL 1.54180   15.00000   15.00000   15.00000   90.00000   90.00000   90.00000
LATT -1
SFAC C  
C      1  0.2597149443598  0.4611245232173  0.5804785809796 1.0
C      1  0.6989342922794  0.4496351522207  0.6721232430586 1.0
C      1  0.5522989432830  0.4495423007574  0.2682199300658 1.0
C      1  0.2557825494903  0.5545324329275  0.5532279354837 1.0
C      1  0.6728705603737  0.5445557119482  0.6808995847229 1.0
C      1  0.5708949217072  0.5451201901763  0.2987596324040 1.0
C      1  0.5242379528223  0.4904608493188  0.5551938350275 1.0
C      1  0.5615499133468  0.4945387621704  0.4660576833211 1.0
C      1  0.3873040953940  0.4642227420004  0.4508621663772 1.0
C      1  0.5180439643560  0.5287368195384  0.6384583966974 1.0
C      1  0.6000528688758  0.5491138109324  0.4019406892312 1.0
C      1  0.3576307834344  0.5480278124338  0.4415393571338 1.0
C      1  0.4474243969906  0.6731628088324  0.6795667731198 1.0
C      1  0.7359994363615  0.6385844391654  0.4591355484433 1.0
C      1  0.3359711209059  0.6471587359635  0.3146095279617 1.0
C      1  0.4873451801681  0.3346746317129  0.6809293536963 1.0
C      1  0.6740142651157  0.3295690301920  0.4278745080114 1.0
C      1  0.3605251483164  0.3217406795445  0.3917363738847 1.0
C      1  0.2380079989704  0.4100305282603  0.4997997566010 1.0
C      1  0.6433927875133  0.4032714655700  0.7363420221815 1.0
C      1  0.6366869031292  0.4065813970199  0.2741999589669 1.0
C      1  0.2509920343102  0.5531166008471  0.4497133352669 1.0
C      1  0.5801398592878  0.5412559158273  0.7234622062809 1.0
C      1  0.6734963711139  0.5458184139721  0.3215785762346 1.0
C      1  0.3191584125461  0.4036570240101  0.6294422238940 1.0
C      1  0.7141983398374  0.3902485876257  0.5997160773458 1.0
C      1  0.4856169360612  0.3832561353192  0.2791666936567 1.0
C      1  0.2920824744248  0.6300246991609  0.5963519771811 1.0
C      1  0.6904508072041  0.6204494891063  0.6303219257408 1.0
C      1  0.5144177207740  0.6256992757620  0.2870407683490 1.0
C      1  0.3299797874109  0.7164418710663  0.5819197524448 1.0
C      1  0.6462108203216  0.6973735632787  0.5956886272617 1.0
C      1  0.4991288298796  0.7080274086278  0.3282639206108 1.0
C      1  0.3581863515382  0.3248297046604  0.5993109594152 1.0
C      1  0.6693127545302  0.3110731125118  0.5804356655073 1.0
C      1  0.4949684028074  0.2977285581018  0.3149741447702 1.0
C      1  0.3556083389979  0.6630330022759  0.6570881800489 1.0
C      1  0.7133414033495  0.6552020004902  0.5445396706361 1.0
C      1  0.4240348957546  0.6575421703308  0.2975054959134 1.0
C      1  0.3938576205676  0.3621841529717  0.6770838352760 1.0
C      1  0.7193303830775  0.3499399250735  0.5117885995603 1.0
C      1  0.4083277409121  0.3366752506883  0.3114653065933 1.0
C      1  0.5119321320224  0.2669780578633  0.4042468052360 1.0
C      1  0.4226404395064  0.2798261034077  0.5449613485248 1.0
C      1  0.5867290772087  0.2746423790778  0.5514381434223 1.0
C      1  0.5076239264114  0.7625579404293  0.4038712099183 1.0
C      1  0.4073776702080  0.7644338647551  0.5551625685943 1.0
C      1  0.5675758448848  0.7445030070474  0.5753792974132 1.0
C      1  0.5916502804292  0.2770790437950  0.4542489008944 1.0
C      1  0.4242606377666  0.2754252400498  0.4489586726165 1.0
C      1  0.5031846051733  0.2823223747019  0.5970676956832 1.0
C      1  0.5472868107867  0.7768328029808  0.4878898751258 1.0
C      1  0.4522713943867  0.7867556218724  0.4757703535630 1.0
C      1  0.4796157686705  0.7380534469227  0.6177515796739 1.0
C      1  0.6837365235310  0.6035391538162  0.3979881642883 1.0
C      1  0.3095008701585  0.6127590819886  0.3934508289516 1.0
C      1  0.5013882748137  0.5943419594885  0.6956750240107 1.0
C      1  0.6872601016599  0.3720285339044  0.3468745695385 1.0
C      1  0.3125239990946  0.3973174439960  0.4341672188598 1.0
C      1  0.5529141510304  0.3720213364782  0.7345878116282 1.0
C      1  0.7084546723574  0.4565738995851  0.3050109515811 1.0
C      1  0.2292497874022  0.4598697300834  0.4237421822286 1.0
C      1  0.5764681801633  0.4555126074088  0.7738670900157 1.0
C      1  0.4768212404340  0.4587141847371  0.4826493088746 1.0
END
