TITL C-110687-6275-2 -5.741 3375.00 -987.45855396 0 0 122 (C1) n - 1
REM
REM Run started: at 2020.12.28 17:00:32 in /rds/project/t2_vol4/rds-t2-cs072/BORA/CARBON/AIRSS/Generating-Clusters/Str-Search/Higher-Symm/C100-200
REM VASP from code version vasp.5.4.4.18Apr17-6-g9f103f2a35 (build Oct 11 2019 16:45:47) gamma-only
REM
REM
REM
REM
REM ./C.cell (533062f00bc710175b3da973d35f2034)
REM AIRSS Version 0.9.1 bugfix July 2018 build 013d7b7c2542+ Fri, 06 Jul 2018 19:26:36 +0100
REM compiler GCC version 4.8.5 20150623 (Red Hat 4.8.5-39)
REM options -cpp -mtune=generic -march=x86-64 -g -O0
REM seed 2021074733 199113388 1999028697 -355301302 831979105 -2006829911 -1125977975 -138974763 1980230139 -1967157852 778456388 643249915
REM
REM C.POTCAR (d86ddea03c3ceb6dc662c8ad6801f873)
REM 
CELL 1.54180   15.00000   15.00000   15.00000   90.00000   90.00000   90.00000
LATT -1
SFAC C  
C      1  0.6474120839064  0.8107512678448  0.3127891950932 1.0
C      1  0.6405098851703  0.8965451569617  0.5749963835790 1.0
C      1  0.6645774025819  0.7051538476097  0.7906436761614 1.0
C      1  0.6892949857555  0.6321305735636  0.8422593812455 1.0
C      1  0.6853700157592  0.3267189153680  0.8131363443910 1.0
C      1  0.6815940163901  0.2551578638754  0.7599546571550 1.0
C      1  0.6663107059404  0.1417269071684  0.4677207796662 1.0
C      1  0.6799763074424  0.1547094889592  0.3803174873250 1.0
C      1  0.6667168441127  0.3775911889567  0.1606087113481 1.0
C      1  0.6613156639252  0.4640334774985  0.1412592025907 1.0
C      1  0.6489062736230  0.7555775276783  0.2429525419081 1.0
C      1  0.6879522146445  0.6506070917697  0.5724632074152 1.0
C      1  0.6916732610266  0.5839445353598  0.6377676455450 1.0
C      1  0.6956008466007  0.4924929719950  0.6602132315952 1.0
C      1  0.6955454498221  0.4038628438431  0.6317146345333 1.0
C      1  0.6954062751890  0.3461886743109  0.5575739987917 1.0
C      1  0.6914949915257  0.3373014405190  0.4647855801066 1.0
C      1  0.6889311027209  0.3826109409626  0.3826569404149 1.0
C      1  0.6823280633129  0.4640313261436  0.3370160748822 1.0
C      1  0.6791188821887  0.5573126267874  0.3428910316674 1.0
C      1  0.6769223362560  0.6343610904476  0.3953052292553 1.0
C      1  0.6828803226622  0.6714998961280  0.4808933163135 1.0
C      1  0.5920174304914  0.5911475122490  0.6591960047505 1.0
C      1  0.5969453799569  0.4891936764437  0.6864093460463 1.0
C      1  0.5945651080412  0.3912209361071  0.6502374692319 1.0
C      1  0.5961594021692  0.3258637762838  0.5678606857220 1.0
C      1  0.5899843074276  0.3159996682149  0.4636367693521 1.0
C      1  0.5899812741190  0.3624458242699  0.3699962821181 1.0
C      1  0.5808763456581  0.4545065149329  0.3208321147920 1.0
C      1  0.5787125454658  0.5595064730511  0.3264545004462 1.0
C      1  0.5750943407471  0.6450837853350  0.3892843487769 1.0
C      1  0.5819887562877  0.6887101228261  0.4855867587718 1.0
C      1  0.5876197823666  0.6676180537669  0.5870680464488 1.0
C      1  0.5659595006446  0.6353427143112  0.7475715728724 1.0
C      1  0.5806635595020  0.4825479822172  0.7927405207284 1.0
C      1  0.5623323779167  0.3344873890617  0.7302448632698 1.0
C      1  0.5740576378812  0.2281961301061  0.6078723561467 1.0
C      1  0.5561698634879  0.2209266806194  0.4455140389070 1.0
C      1  0.5711159280055  0.2855888052913  0.2968898425231 1.0
C      1  0.5463048287876  0.4310024007995  0.2264367050823 1.0
C      1  0.5530760356897  0.5941242380286  0.2263843514290 1.0
C      1  0.5341634021564  0.7191309344939  0.3292988228370 1.0
C      1  0.5526175763364  0.7889021493300  0.4740319558311 1.0
C      1  0.5613377580151  0.7549122525349  0.6385725726413 1.0
C      1  0.4124372740054  0.3433466681822  0.2537220689685 1.0
C      1  0.4024867999039  0.5057921412174  0.2231272142129 1.0
C      1  0.3967621325518  0.6496428915562  0.2797124358389 1.0
C      1  0.3975032574705  0.7504225052251  0.4102397035037 1.0
C      1  0.4097035806922  0.7657922132414  0.5649828983345 1.0
C      1  0.4171559575680  0.6966877678110  0.7108507863408 1.0
C      1  0.4274555074243  0.5637218011209  0.7963456685722 1.0
C      1  0.4244826971964  0.4051369721591  0.7846505245768 1.0
C      1  0.4210224468655  0.2808081962152  0.6727574452637 1.0
C      1  0.4166359225936  0.2193943009671  0.5312462154745 1.0
C      1  0.4177483010652  0.2346268212752  0.3642140004294 1.0
C      1  0.2747503728641  0.6274483754106  0.4579041735108 1.0
C      1  0.2789282365506  0.6404778969861  0.5592663586135 1.0
C      1  0.2781181733820  0.6066282726808  0.6448902381721 1.0
C      1  0.2756173274396  0.5276110811455  0.7049868445356 1.0
C      1  0.2772615830303  0.4332655768813  0.7084550478478 1.0
C      1  0.2673212277767  0.3653746756631  0.6421173789573 1.0
C      1  0.2581340679041  0.2992385840231  0.5030697857338 1.0
C      1  0.2663085484832  0.3113632417448  0.4122053123828 1.0
C      1  0.2664864132327  0.3882810907489  0.3477042468386 1.0
C      1  0.2697193875616  0.4798316705675  0.3408751882816 1.0
C      1  0.2707537022188  0.5731076561900  0.3831148739883 1.0
C      1  0.6065810714349  0.2057932266104  0.3570722361142 1.0
C      1  0.6005003046726  0.3439825510195  0.2139737584141 1.0
C      1  0.5903119450264  0.5095938645054  0.1761699369714 1.0
C      1  0.5815604974093  0.6937429060345  0.2416349556408 1.0
C      1  0.5809651076422  0.7993479593209  0.3739202994416 1.0
C      1  0.5894141278809  0.8258609103162  0.5666511621427 1.0
C      1  0.6054973647795  0.7323642465681  0.7308398157133 1.0
C      1  0.6180746181009  0.5797234745702  0.8139968629752 1.0
C      1  0.6145461950249  0.3839690520203  0.8031666686006 1.0
C      1  0.6099206581500  0.2466183818737  0.7045331075474 1.0
C      1  0.6054040623160  0.1732184663891  0.5252196197393 1.0
C      1  0.9714796274786  0.3924427534866  0.5190676290981 1.0
C      1  0.9072515440491  0.4273151168160  0.4581379772896 1.0
C      1  0.8761217381485  0.4966232857941  0.4239661751713 1.0
C      1  0.8610938657982  0.5828540265456  0.4076745913295 1.0
C      1  0.8699954042133  0.6592933913272  0.4412799639585 1.0
C      1  0.8764746253576  0.7182254382899  0.5075947507204 1.0
C      1  0.8953996084257  0.7060715167506  0.5893256637906 1.0
C      1  0.9055872826292  0.6564900103676  0.6615058437569 1.0
C      1  0.9224122803517  0.5743188474687  0.6745909804924 1.0
C      1  0.9335499756843  0.4885029793046  0.6587418010771 1.0
C      1  0.9539528318375  0.4292126215869  0.6025765422662 1.0
C      1  0.4717223417418  0.6411485834408  0.7643757025632 1.0
C      1  0.4771300262682  0.4831757633545  0.8049682556479 1.0
C      1  0.4650956376470  0.3351013050255  0.7343259177266 1.0
C      1  0.4721600437328  0.2312585942581  0.6085625289817 1.0
C      1  0.4577519391040  0.2146135843519  0.4467715930564 1.0
C      1  0.4695885546493  0.2787633524882  0.2961008475412 1.0
C      1  0.4489310108623  0.4248964857398  0.2247663964462 1.0
C      1  0.4515785730285  0.5882629354556  0.2305171597172 1.0
C      1  0.4369011654869  0.7145338127918  0.3333544073521 1.0
C      1  0.4527724495233  0.7832129610232  0.4810304295247 1.0
C      1  0.4580732164415  0.7495423751365  0.6437390179091 1.0
C      1  0.0949879926282  0.5757989874501  0.5228747413959 1.0
C      1  0.1237216613802  0.5013192943118  0.5527178804637 1.0
C      1  0.1367053884999  0.4119611511766  0.5389998577280 1.0
C      1  0.0596554679664  0.3766112423204  0.4840866186040 1.0
C      1  0.0670437903733  0.3747707567823  0.3922672406819 1.0
C      1  0.0632950051514  0.4154572616896  0.3185770697048 1.0
C      1  0.0604956749378  0.4801859221666  0.2590732531212 1.0
C      1  0.0572795281973  0.5653854511669  0.2634027874609 1.0
C      1  0.0626285885958  0.6438272830393  0.3013094777005 1.0
C      1  0.0671160732092  0.6597843931596  0.3862965462077 1.0
C      1  0.0816562024112  0.6430559017317  0.4693378750822 1.0
C      1  0.3267864775562  0.2639251735611  0.3536359244410 1.0
C      1  0.3242419574076  0.3323732453306  0.2888595075222 1.0
C      1  0.3159639693057  0.5197601691850  0.2633224728862 1.0
C      1  0.3130138878614  0.6058102641102  0.2991798505288 1.0
C      1  0.3173177536564  0.7164205925993  0.4505867341443 1.0
C      1  0.3237539982883  0.7265104119664  0.5434480482153 1.0
C      1  0.3309494898899  0.6541580254986  0.7137972406077 1.0
C      1  0.3344600508579  0.5758107619747  0.7687495899482 1.0
C      1  0.3321820021260  0.4193289679097  0.7841471808007 1.0
C      1  0.3315707659056  0.2930366763120  0.6376251068850 1.0
C      1  0.3277995307023  0.2531012192071  0.5526973715481 1.0
C      1  0.2152879587046  0.3626929922809  0.5628473355181 1.0
END
