TITL C-115768-1926-7 -6.822 3375.00 -1110.68777681 0 0 136 (C1) n - 1
REM
REM Run started: at 2020.11.24 09:12:50 in /rds/project/t2_vol4/rds-t2-cs072/BORA/CARBON/AIRSS/Generating-Clusters/Str-Search/Higher-Symm
REM VASP from code version vasp.5.4.4.18Apr17-6-g9f103f2a35 (build Oct 11 2019 16:45:47) gamma-only
REM
REM
REM
REM
REM ./C.cell (e5ae0387ce4d49c7c0135a1433873289)
REM AIRSS Version 0.9.1 bugfix July 2018 build 013d7b7c2542+ Fri, 06 Jul 2018 19:26:36 +0100
REM compiler GCC version 4.8.5 20150623 (Red Hat 4.8.5-39)
REM options -cpp -mtune=generic -march=x86-64 -g -O0
REM seed -82699595 -833071754 1311960492 80065673 1110338978 -728120277 -90829194 1134577232 1003710652 -1732816714 1563838549 309709645
REM
REM C.POTCAR (d86ddea03c3ceb6dc662c8ad6801f873)
REM 
CELL 1.54180   15.00000   15.00000   15.00000   90.00000   90.00000   90.00000
LATT -1
SFAC C  
C      1  0.7525182473024  0.5756117476364  0.7031558614262 1.0
C      1  0.7795967819499  0.6978631168411  0.4922828078113 1.0
C      1  0.7962765805450  0.5312710939445  0.3148204967516 1.0
C      1  0.7873421643825  0.3119945594663  0.4194448969724 1.0
C      1  0.7687989726472  0.3411283346649  0.6599007352958 1.0
C      1  0.7067511842411  0.4987796860315  0.7389224617834 1.0
C      1  0.7292213156949  0.7080243634181  0.5725069915658 1.0
C      1  0.7475480164998  0.6130806559347  0.3272141399267 1.0
C      1  0.7459981871988  0.3548796139680  0.3447192523643 1.0
C      1  0.7321149932328  0.2844942334381  0.5927553167586 1.0
C      1  0.5954688018692  0.6225985913343  0.3813413001201 1.0
C      1  0.6050766142716  0.4306228594905  0.3510321379863 1.0
C      1  0.5847100423406  0.3251522267110  0.5306095302257 1.0
C      1  0.5645024799899  0.4540165090001  0.6732071469559 1.0
C      1  0.5776102676217  0.6541969432201  0.5920632449686 1.0
C      1  0.3899998728821  0.5535226831409  0.7751975386020 1.0
C      1  0.4270048731855  0.7988112426622  0.4976611473101 1.0
C      1  0.4304730396428  0.6116251110012  0.2093462674716 1.0
C      1  0.4198111712555  0.2915893318983  0.3171115797052 1.0
C      1  0.4087961910211  0.2242355523846  0.6542316073284 1.0
C      1  0.5086717662794  0.1441984848921  0.3202847200777 1.0
C      1  0.5334268901656  0.1857386147996  0.7954707625819 1.0
C      1  0.4958096943722  0.6476964862772  0.8782001641513 1.0
C      1  0.5370387939618  0.9066680387357  0.4250281327718 1.0
C      1  0.5319053019692  0.5743692526837  0.0783858983855 1.0
C      1  0.8997268112266  0.5690863236379  0.5014461881417 1.0
C      1  0.9060190593643  0.4898143159234  0.4486118543767 1.0
C      1  0.9014119332739  0.4150025847548  0.5073665635108 1.0
C      1  0.8932109518043  0.4480966895141  0.5972691564050 1.0
C      1  0.8908555124315  0.5430442484954  0.5933408879492 1.0
C      1  0.7617891708087  0.6502255294897  0.6416036861712 1.0
C      1  0.7841289911478  0.6586951315185  0.4034948329337 1.0
C      1  0.7928493780119  0.4356444091869  0.3259289323036 1.0
C      1  0.7820817610924  0.2884617675855  0.5127664421844 1.0
C      1  0.7577305010341  0.4229792803728  0.7102554962593 1.0
C      1  0.4446716434537  0.4831150471330  0.3711670086998 1.0
C      1  0.4169249516737  0.3702211351117  0.5319025983217 1.0
C      1  0.4027451759850  0.4173409460278  0.6168645419277 1.0
C      1  0.4093570701264  0.6315115226745  0.5565638081923 1.0
C      1  0.4301825508746  0.5818383453393  0.3904928875199 1.0
C      1  0.4576624699684  0.8532788934450  0.4284402382580 1.0
C      1  0.4515440476637  0.5665051171137  0.1311244730038 1.0
C      1  0.4315416027356  0.1993639701770  0.3346465983513 1.0
C      1  0.3464949288986  0.2490824972093  0.7024471280514 1.0
C      1  0.4213475206250  0.6323766813705  0.8187182759547 1.0
C      1  0.4701954493411  0.4415761579864  0.6800856381306 1.0
C      1  0.4887559861111  0.6799092300213  0.5846119791412 1.0
C      1  0.5063082719161  0.6299106326822  0.3520306214969 1.0
C      1  0.5108740676395  0.4296683331012  0.3335957353455 1.0
C      1  0.4927407583346  0.3063610003150  0.5402547694879 1.0
C      1  0.2304036824758  0.6145721492282  0.7090447718734 1.0
C      1  0.2670147701343  0.7537547282667  0.4361411922601 1.0
C      1  0.2505090365576  0.5623730961872  0.2413832219057 1.0
C      1  0.2485021270549  0.3078098468598  0.3650896539239 1.0
C      1  0.1651222453995  0.3911746293872  0.6762170106495 1.0
C      1  0.8506044526497  0.6432602625082  0.4669688313523 1.0
C      1  0.8622046992628  0.4860888756972  0.3630671994050 1.0
C      1  0.8545235455124  0.3365927248589  0.4800247110924 1.0
C      1  0.8361251339149  0.4045885367970  0.6614993591794 1.0
C      1  0.8301739477173  0.5892558464154  0.6516832572359 1.0
C      1  0.2214037930798  0.6755403650760  0.4424911036105 1.0
C      1  0.2125863363734  0.5367041649305  0.3200295815026 1.0
C      1  0.2054646400230  0.3717298595785  0.4141724610745 1.0
C      1  0.1570293443723  0.4361250662171  0.5952252008153 1.0
C      1  0.1939948596684  0.6028115228160  0.6259546961685 1.0
C      1  0.4974687922352  0.9195217083778  0.2704007651905 1.0
C      1  0.4600537412774  0.4562411165118  0.0010880416370 1.0
C      1  0.4410588037589  0.0615327657823  0.4389006239523 1.0
C      1  0.4091989170583  0.2509438717609  0.8823128819354 1.0
C      1  0.4556242335195  0.8018822853367  0.8571708272566 1.0
C      1  0.3651274309741  0.5215648156587  0.3344644555831 1.0
C      1  0.3558472218588  0.3719333783854  0.4616716437473 1.0
C      1  0.3075945691169  0.4202763146597  0.6336095799074 1.0
C      1  0.3462872260916  0.5980243861865  0.6109259294335 1.0
C      1  0.3772749906996  0.6345639037200  0.4602987591101 1.0
C      1  0.3796163277235  0.1283200982912  0.4648185167638 1.0
C      1  0.3324559403526  0.2990413436970  0.8448991201603 1.0
C      1  0.3890053753984  0.7818395713659  0.7791958746931 1.0
C      1  0.4397717405681  0.8395398756325  0.2751944348667 1.0
C      1  0.3915913906744  0.4400663377013  0.0692053619062 1.0
C      1  0.4126093122222  0.8099960646366  0.3590398333558 1.0
C      1  0.3847200286150  0.4995301734960  0.1397443108746 1.0
C      1  0.3711872423542  0.1992663138347  0.4061494590939 1.0
C      1  0.3010339533272  0.3083193431961  0.7574730918809 1.0
C      1  0.3747864965308  0.6922232792135  0.7642759508447 1.0
C      1  0.5023686737269  0.7389537148264  0.8954912369755 1.0
C      1  0.5284086115237  0.9667729588955  0.3448183443010 1.0
C      1  0.5213543937517  0.5281113926691  0.9901544188700 1.0
C      1  0.4994591959225  0.0574037541051  0.3649704670643 1.0
C      1  0.4835641432896  0.2036150344331  0.8634372695326 1.0
C      1  0.1381328513809  0.6394301407128  0.6972350809455 1.0
C      1  0.1708653905333  0.7557586224465  0.4240163529215 1.0
C      1  0.1542953397110  0.5500871021017  0.2430746875486 1.0
C      1  0.1523815599013  0.3118182320988  0.3598692221957 1.0
C      1  0.0779536839680  0.4030515926409  0.6359074031058 1.0
C      1  0.3502158614084  0.5475631141382  0.2330150520516 1.0
C      1  0.3447378268077  0.2995986429165  0.3884022493838 1.0
C      1  0.2569672438156  0.3791923781031  0.7014923100321 1.0
C      1  0.3310256011570  0.6108996812440  0.7109805796381 1.0
C      1  0.3650645989556  0.7455812144897  0.4358111106304 1.0
C      1  0.4892252816258  0.7717339823687  0.5588222800266 1.0
C      1  0.5042125969007  0.6400481548571  0.2586734349385 1.0
C      1  0.4953854395211  0.3401010819515  0.3005443860454 1.0
C      1  0.4867529233872  0.2406585445762  0.6097446460674 1.0
C      1  0.4535620422401  0.4881101066648  0.7648516057614 1.0
C      1  0.2625421253384  0.5663732218523  0.5619395785637 1.0
C      1  0.2787473956943  0.5972121892195  0.4626902782289 1.0
C      1  0.2774491673636  0.5176204355708  0.3946503270863 1.0
C      1  0.2705519282318  0.4304720964838  0.4613148419066 1.0
C      1  0.2478368128376  0.4615792260296  0.5600001826359 1.0
C      1  0.6069274922939  0.4876211902971  0.7536045428572 1.0
C      1  0.6356986322858  0.7302161452906  0.5734284485998 1.0
C      1  0.6531912901897  0.6232946700993  0.3041109713408 1.0
C      1  0.6497476322561  0.3525223487186  0.3234320452982 1.0
C      1  0.6370206774122  0.2684875588256  0.5874518548038 1.0
C      1  0.5340713659167  0.5609264172277  0.9001284798307 1.0
C      1  0.5964808188932  0.8739610289488  0.4851497566258 1.0
C      1  0.6020919081050  0.6046886147881  0.1327534589401 1.0
C      1  0.5833491318964  0.1956106897617  0.2949637179019 1.0
C      1  0.5892910510240  0.1842740187395  0.7285803915273 1.0
C      1  0.6296727753811  0.4703614126514  0.4354753446746 1.0
C      1  0.6155935658777  0.4179133412997  0.5151127550340 1.0
C      1  0.6090556747149  0.4783808308076  0.5899292681438 1.0
C      1  0.6097400287368  0.5689529107733  0.5548898322196 1.0
C      1  0.6199785798304  0.5630305424165  0.4575617993938 1.0
C      1  0.5379470723321  0.5041488433919  0.8165890260981 1.0
C      1  0.5817063514619  0.8039956635207  0.5463241970460 1.0
C      1  0.5956786916260  0.6290627627527  0.2227893878027 1.0
C      1  0.5813329063321  0.2888614774323  0.2948719355638 1.0
C      1  0.5771097669188  0.2201166023559  0.6438659745781 1.0
C      1  0.3997370719988  0.0562620154780  0.5246026825777 1.0
C      1  0.3702027799648  0.3232167682724  0.9270689358939 1.0
C      1  0.4022846430330  0.8652459587596  0.8132144600401 1.0
C      1  0.4763535311610  0.8680486933104  0.1937574755666 1.0
C      1  0.3953352020612  0.3921934681861  0.9878020545947 1.0
C      1  0.5354222106848  0.4992648644682  0.5079515609303 1.0
END
