TITL C-113955-4923-10 -9.545 3375.00 -1573.28589813 0 0 192 (Ci) n - 1
REM
REM Run started: at 2020.12.27 23:07:34 in /rds/project/t2_vol4/rds-t2-cs072/BORA/CARBON/AIRSS/Generating-Clusters/Str-Search/Higher-Symm/C100-200
REM VASP from code version vasp.5.4.4.18Apr17-6-g9f103f2a35 (build Oct 11 2019 16:45:47) gamma-only
REM
REM
REM
REM
REM ./C.cell (533062f00bc710175b3da973d35f2034)
REM AIRSS Version 0.9.1 bugfix July 2018 build 013d7b7c2542+ Fri, 06 Jul 2018 19:26:36 +0100
REM compiler GCC version 4.8.5 20150623 (Red Hat 4.8.5-39)
REM options -cpp -mtune=generic -march=x86-64 -g -O0
REM seed -303723849 208696235 -1108246032 -1771057500 880513912 1035846428 1620950622 1044883704 -1429856927 1653695705 -573677920 -1086479630
REM
REM C.POTCAR (d86ddea03c3ceb6dc662c8ad6801f873)
REM 
CELL 1.54180   15.00000   15.00000   15.00000   90.00000   90.00000   90.00000
LATT -1
SFAC C  
C      1  0.3256393032047  0.4470757873777  0.7968399202244 1.0
C      1  0.6743592647523  0.5529213335753  0.2031602711006 1.0
C      1  0.8610235935632  0.3348845702658  0.5375597069239 1.0
C      1  0.1389785072704  0.6651169797982  0.4624373945985 1.0
C      1  0.2280406393788  0.6847215624084  0.5120964763131 1.0
C      1  0.7719603445731  0.3152796718668  0.4879039682959 1.0
C      1  0.2810125750521  0.5360295291954  0.4267057641108 1.0
C      1  0.7189900741370  0.4639693290532  0.5732935307083 1.0
C      1  0.5108936389577  0.4324156490727  0.2621777128048 1.0
C      1  0.4891042461684  0.5675826363094  0.7378225554913 1.0
C      1  0.5037164568565  0.9039256965884  0.5640874023493 1.0
C      1  0.4962828707916  0.0960732559837  0.4359134524263 1.0
C      1  0.2615185484445  0.1390161519607  0.3633922789295 1.0
C      1  0.7384835334393  0.8609774866122  0.6366139218198 1.0
C      1  0.4319744132757  0.0428612309606  0.3991258474103 1.0
C      1  0.5680258339599  0.9571397223066  0.6008772150359 1.0
C      1  0.6529050965199  0.5481201738953  0.3714931341481 1.0
C      1  0.3470937618640  0.4518827280949  0.6285060933404 1.0
C      1  0.3411434061365  0.6031969027162  0.8114258112698 1.0
C      1  0.6588521748352  0.3968014274157  0.1885704639441 1.0
C      1  0.6964819253307  0.8204436429123  0.4207485519499 1.0
C      1  0.3035170226711  0.1795558682861  0.5792527166256 1.0
C      1  0.4214794128134  0.8555537174832  0.5483856363058 1.0
C      1  0.5785209342643  0.1444438643136  0.4516143005537 1.0
C      1  0.5758458110655  0.2939385704523  0.8284149480554 1.0
C      1  0.4241565786422  0.7060629588480  0.1715839029258 1.0
C      1  0.9535664166804  0.5104061151673  0.4952403335372 1.0
C      1  0.0464321940652  0.4895908554964  0.5047526981406 1.0
C      1  0.2865407623821  0.7729853708678  0.5116178099889 1.0
C      1  0.7134597686492  0.2270135603492  0.4883813536109 1.0
C      1  0.3257032497647  0.4430178969912  0.4172608226078 1.0
C      1  0.6742993439234  0.5569824181666  0.5827393385785 1.0
C      1  0.5402174246529  0.6502007485538  0.3839991814221 1.0
C      1  0.4597829617892  0.3498018368130  0.6160019882800 1.0
C      1  0.5075028097139  0.8124197902988  0.2589889418361 1.0
C      1  0.4924967389837  0.1875834815973  0.7410091495088 1.0
C      1  0.6011000947834  0.4628330995421  0.8812508257883 1.0
C      1  0.3989000257675  0.5371703289261  0.1187507153793 1.0
C      1  0.4986251991793  0.7710374027033  0.1732824614133 1.0
C      1  0.5013763035816  0.2289657211714  0.8267173888392 1.0
C      1  0.3662426589017  0.5128132939053  0.2024878271949 1.0
C      1  0.6337669549825  0.4871852394119  0.7975165790527 1.0
C      1  0.5771715849247  0.4147143716310  0.4374567476624 1.0
C      1  0.4228326345018  0.5852867650378  0.5625432342944 1.0
C      1  0.8694855818932  0.4263009036793  0.4844361613175 1.0
C      1  0.1305149439880  0.5737032895143  0.5155610304791 1.0
C      1  0.8262162470390  0.6894515581600  0.2873267939316 1.0
C      1  0.1737823578864  0.3105375125674  0.7126750708913 1.0
C      1  0.4331405029203  0.6289418812618  0.1138635777025 1.0
C      1  0.5668603392724  0.3710613438631  0.8861369196358 1.0
C      1  0.3781316066321  0.3075984026638  0.0909050474376 1.0
C      1  0.6218575023999  0.6924096040807  0.9091021944794 1.0
C      1  0.1857763363224  0.5182568056671  0.4479111845105 1.0
C      1  0.8142265068911  0.4817439823847  0.5520883977709 1.0
C      1  0.5830639467106  0.4419780097362  0.7210794041354 1.0
C      1  0.4169456578900  0.5580237439739  0.2789245719583 1.0
C      1  0.5480855789885  0.5326193040650  0.0472469263555 1.0
C      1  0.4519157086646  0.4673830992176  0.9527542694210 1.0
C      1  0.4842739813978  0.3765407521861  0.9265941877192 1.0
C      1  0.5157254800571  0.6234602229942  0.0734043435785 1.0
C      1  0.2908827550394  0.6149690778032  0.3632446544219 1.0
C      1  0.7091203091511  0.3850279929447  0.6367557952216 1.0
C      1  0.6025322487722  0.7661421913035  0.2682475271384 1.0
C      1  0.3974669307963  0.2338569242824  0.7317513955063 1.0
C      1  0.4360133272992  0.5964846801496  0.8075639478249 1.0
C      1  0.5639802390450  0.4035161975534  0.1924319164235 1.0
C      1  0.2669695234712  0.0662234171633  0.4067096214885 1.0
C      1  0.7330289548868  0.9337804872327  0.5932884372842 1.0
C      1  0.8476246769675  0.5223009943853  0.2806072544258 1.0
C      1  0.1523761467171  0.4776900789025  0.7193876808826 1.0
C      1  0.6921270484055  0.5539598243133  0.7538106656279 1.0
C      1  0.3078802667546  0.4460418869859  0.2461915065307 1.0
C      1  0.6310646184336  0.5760328440628  0.1207659048089 1.0
C      1  0.3689339265487  0.4239668062966  0.8792343904283 1.0
C      1  0.3472823942363  0.4015504241273  0.7144316324244 1.0
C      1  0.6527186857528  0.5984494855416  0.2855666244243 1.0
C      1  0.4243252223900  0.7935922817140  0.3031761618336 1.0
C      1  0.5756748337352  0.2064071733710  0.6968224658883 1.0
C      1  0.5523411635476  0.1554468847457  0.5437508570080 1.0
C      1  0.4476614873772  0.8445524841802  0.4562507164227 1.0
C      1  0.5368952310358  0.8700563633174  0.4718193793067 1.0
C      1  0.4631044910492  0.1299456877682  0.5281810989547 1.0
C      1  0.4003214516936  0.7534841151164  0.7504268881635 1.0
C      1  0.5996732352697  0.2465167211572  0.2495747155994 1.0
C      1  0.7969563178602  0.3819380128176  0.6860415560019 1.0
C      1  0.2030464007644  0.6180618487044  0.3139551889799 1.0
C      1  0.1903054659181  0.6258551272931  0.5856828805989 1.0
C      1  0.8096921073292  0.3741469719214  0.4143150385563 1.0
C      1  0.2830611023412  0.5342258894948  0.7870930783041 1.0
C      1  0.7169362184293  0.4657721415275  0.2129043734551 1.0
C      1  0.3853278840771  0.7162557433518  0.2570482033432 1.0
C      1  0.6146771236344  0.2837454725308  0.7429524919686 1.0
C      1  0.8547783333165  0.6052260938020  0.2790046288348 1.0
C      1  0.1452175750621  0.3947703450076  0.7209909268623 1.0
C      1  0.3996195252955  0.6337485283736  0.4825950765604 1.0
C      1  0.6003814311775  0.3662509590754  0.5174046094458 1.0
C      1  0.2064903649755  0.5524822191308  0.7333701786272 1.0
C      1  0.7935076914793  0.4475143272831  0.2666245332732 1.0
C      1  0.4451238351212  0.6537453890647  0.4038020892843 1.0
C      1  0.5548772420295  0.3462580939732  0.5961993136364 1.0
C      1  0.7613163524666  0.7693090454228  0.4841330391782 1.0
C      1  0.2386850180929  0.2306921551775  0.5158681775980 1.0
C      1  0.6215424898146  0.7675798784180  0.6923799862626 1.0
C      1  0.3784586823299  0.2324207531811  0.3076241699812 1.0
C      1  0.6473051581017  0.9309114884153  0.5519540228024 1.0
C      1  0.3526950355165  0.0690902648184  0.4480483385763 1.0
C      1  0.7431052582312  0.6206116380123  0.5525395434240 1.0
C      1  0.2568956628467  0.3793891185149  0.4474601331473 1.0
C      1  0.2934304346129  0.2837075574628  0.4435843473284 1.0
C      1  0.7065707457302  0.7162943923219  0.5564189196702 1.0
C      1  0.7918103559471  0.5519320505314  0.7398782713372 1.0
C      1  0.2081951409968  0.4480695486935  0.2601193075424 1.0
C      1  0.4084028434467  0.4103704166995  0.4677660607550 1.0
C      1  0.5915966568655  0.5896297277849  0.5322349544555 1.0
C      1  0.7869723149246  0.3671574707016  0.3246955827553 1.0
C      1  0.2130242201721  0.6328409526496  0.6753037024395 1.0
C      1  0.6106366208287  0.1839554238469  0.6116054291690 1.0
C      1  0.3893687065270  0.8160426511919  0.3883961391216 1.0
C      1  0.5945070120256  0.6618970125835  0.1125921399820 1.0
C      1  0.4054926947390  0.3381031447538  0.8874073666564 1.0
C      1  0.3800531920249  0.6384131175622  0.3230351093450 1.0
C      1  0.6199511147609  0.3615871275548  0.6769664843073 1.0
C      1  0.5919174318785  0.6710676580755  0.3028866323201 1.0
C      1  0.4080814197695  0.3289323879140  0.6971121629166 1.0
C      1  0.3463554421075  0.8051088842523  0.5834008452736 1.0
C      1  0.6536430411073  0.1948905358865  0.4166002817465 1.0
C      1  0.5123204844868  0.2536200022670  0.2061560993927 1.0
C      1  0.4876741687823  0.7463793884862  0.7938421998189 1.0
C      1  0.1008832464019  0.3112708476469  0.4487481073099 1.0
C      1  0.8991167025219  0.6887298577093  0.5512500484360 1.0
C      1  0.5135646848834  0.3332523288151  0.1484077465834 1.0
C      1  0.4864305604883  0.6667484296303  0.8515880067204 1.0
C      1  0.4173261080789  0.2219572188361  0.2207515091769 1.0
C      1  0.5826703612647  0.7780427965873  0.7792502358177 1.0
C      1  0.4479570635700  0.3713068315986  0.0921280916616 1.0
C      1  0.5520350328463  0.6286954007497  0.9078714649792 1.0
C      1  0.3279631238352  0.6905808435986  0.7809551728239 1.0
C      1  0.6720315013092  0.3094220117712  0.2190441271635 1.0
C      1  0.6076333292575  0.6888320642863  0.5567480733182 1.0
C      1  0.3923677811357  0.3111667406333  0.4432556811457 1.0
C      1  0.5144009961910  0.5626698019543  0.5953064777912 1.0
C      1  0.4856022980909  0.4373307472575  0.4046954620043 1.0
C      1  0.8690728059534  0.4509951900296  0.6382887900842 1.0
C      1  0.1309318954930  0.5490051001667  0.3617094715855 1.0
C      1  0.2949144043720  0.2236237042771  0.3537820267439 1.0
C      1  0.7050876705053  0.7763787999283  0.6462222528997 1.0
C      1  0.3597120472226  0.5387028976362  0.6093663970975 1.0
C      1  0.6402899048200  0.4612963222502  0.3906345486166 1.0
C      1  0.5484130756044  0.5291010098028  0.9413251772411 1.0
C      1  0.4515817789340  0.4709000974992  0.0586733470036 1.0
C      1  0.1842930958608  0.4257316007881  0.4764417042702 1.0
C      1  0.8157072892633  0.5742676491722  0.5235547086103 1.0
C      1  0.3037144574828  0.7944665112795  0.4226689422459 1.0
C      1  0.6962869956493  0.2055318214494  0.5773305680423 1.0
C      1  0.4124972784394  0.2597073148127  0.8341257045135 1.0
C      1  0.5875035803781  0.7402951119002  0.1658712586236 1.0
C      1  0.9072881346554  0.5937560318047  0.5083393206860 1.0
C      1  0.0927111369886  0.4062425939986  0.4916546712756 1.0
C      1  0.4044851840257  0.4052324057117  0.5655470512695 1.0
C      1  0.5955146919940  0.5947691361633  0.4344536360461 1.0
C      1  0.7257109182037  0.2968468054213  0.2949454037251 1.0
C      1  0.2742863417097  0.7031549981203  0.7050518670688 1.0
C      1  0.4505814019477  0.3824755189580  0.3248520136849 1.0
C      1  0.5494171487215  0.6175213832852  0.6751497844481 1.0
C      1  0.3411174139347  0.7701019545710  0.6712267844232 1.0
C      1  0.6588765074649  0.2299003160818  0.3287732431850 1.0
C      1  0.2327624046013  0.2532790803820  0.7008202477087 1.0
C      1  0.7672309620397  0.7467141767981  0.2991867592142 1.0
C      1  0.5695965848539  0.7075314081725  0.6381379765975 1.0
C      1  0.4304063616945  0.2924665939317  0.3618655681091 1.0
C      1  0.3535081403340  0.4189940953551  0.3226433832573 1.0
C      1  0.6464941795713  0.5810028190556  0.6773578583998 1.0
C      1  0.1300390650833  0.6453285816615  0.3732140134362 1.0
C      1  0.8699646357778  0.3546732506258  0.6267828422639 1.0
C      1  0.1114437361833  0.3278247425254  0.3519551484494 1.0
C      1  0.8885584622613  0.6721724974851  0.6480459244045 1.0
C      1  0.6911949940622  0.7918287033107  0.3291668077637 1.0
C      1  0.3087997336383  0.2081696287011  0.6708348869519 1.0
C      1  0.4867114864415  0.5092541876741  0.3150641539051 1.0
C      1  0.5132887211875  0.4907408143415  0.6849450206057 1.0
C      1  0.1696751478740  0.5320532949864  0.2763951390103 1.0
C      1  0.8303278063978  0.4679461825248  0.7236018175903 1.0
C      1  0.1527737187083  0.2511964277103  0.4958362952529 1.0
C      1  0.8472254134402  0.7488018433564  0.5041621193006 1.0
C      1  0.8437583248571  0.6239419049229  0.7002190627473 1.0
C      1  0.1562470877980  0.3760596799583  0.2997746007775 1.0
C      1  0.3707518109886  0.1260471144009  0.5305173946041 1.0
C      1  0.6292503843484  0.8739545225852  0.4694834283848 1.0
C      1  0.6317877307276  0.7575991024627  0.8569659712274 1.0
C      1  0.3681995306686  0.2424038566729  0.1430384646362 1.0
C      1  0.6980756639654  0.3723491094314  0.5374635221239 1.0
C      1  0.3019251025276  0.6276510434363  0.4625374057609 1.0
END
