TITL C-113584-3185-21 -1.663 3375.00 -267.04604635 0 0 35 (S4) n - 1
REM
REM Run started: at 2020.12.27 18:51:00 in /rds/project/t2_vol4/rds-t2-cs072/BORA/CARBON/AIRSS/Generating-Clusters/Str-Search/Higher-Symm/C10-100
REM VASP from code version vasp.5.4.4.18Apr17-6-g9f103f2a35 (build Oct 11 2019 16:45:47) gamma-only
REM
REM
REM
REM
REM ./C.cell (f39ce9773e2efe3fa5bbdf770a4156b8)
REM AIRSS Version 0.9.1 bugfix July 2018 build 013d7b7c2542+ Fri, 06 Jul 2018 19:26:36 +0100
REM compiler GCC version 4.8.5 20150623 (Red Hat 4.8.5-39)
REM options -cpp -mtune=generic -march=x86-64 -g -O0
REM seed 867711699 -762194726 217073632 851723922 699604772 798719126 -747273362 -450121251 1724491489 2036433504 962331298 -514863781
REM
REM C.POTCAR (d86ddea03c3ceb6dc662c8ad6801f873)
REM 
CELL 1.54180   15.00000   15.00000   15.00000   90.00000   90.00000   90.00000
LATT -1
SFAC C  
C      1  0.3253685377906  0.3633429656609  0.4642067818423 1.0
C      1  0.4631954762547  0.6408347222741  0.6862136689767 1.0
C      1  0.6853394840096  0.3631162267872  0.5466288869594 1.0
C      1  0.5457726954203  0.6411574443264  0.3257508134744 1.0
C      1  0.4816723881460  0.3283045617888  0.4239062992423 1.0
C      1  0.4227931155223  0.6757913954844  0.5292864053504 1.0
C      1  0.5281160955082  0.3285157104233  0.5866211958130 1.0
C      1  0.5852063063580  0.6758902877346  0.4828858364895 1.0
C      1  0.4304547829335  0.4545054475729  0.5586215724582 1.0
C      1  0.5568222275184  0.5493865450144  0.5801166986917 1.0
C      1  0.5786017481677  0.4549718460260  0.4536852381278 1.0
C      1  0.4521746798019  0.5492804428724  0.4321223027193 1.0
C      1  0.3537307685782  0.5205948260619  0.5482244154992 1.0
C      1  0.5467062909202  0.4834714816754  0.6567878033019 1.0
C      1  0.6552524427316  0.5208623530410  0.4640679365048 1.0
C      1  0.4627622743158  0.4836829598210  0.3552653076075 1.0
C      1  0.3871897368508  0.2991273428995  0.4390493659603 1.0
C      1  0.4383653051267  0.7047692187801  0.6237510963410 1.0
C      1  0.6223989118589  0.2992806343922  0.5706641569202 1.0
C      1  0.5697014238534  0.7050861584919  0.3884990031145 1.0
C      1  0.5082443473509  0.5677831897548  0.6708644710714 1.0
C      1  0.6697047361661  0.4365214642122  0.5021441111549 1.0
C      1  0.5006992886570  0.5680988299984  0.3412117377268 1.0
C      1  0.3402645325397  0.4360558774642  0.5100685871752 1.0
C      1  0.4101200019234  0.2264079465917  0.4948219197815 1.0
C      1  0.4915687099991  0.7788234092290  0.5994313755976 1.0
C      1  0.5970643429683  0.2251272746589  0.5182789789759 1.0
C      1  0.5164864041182  0.7789914827806  0.4128658069203 1.0
C      1  0.4928239194444  0.4062426553986  0.6205733879858 1.0
C      1  0.6187846564020  0.5979719925920  0.5179579915793 1.0
C      1  0.5167228803207  0.4065297782857  0.3912867301191 1.0
C      1  0.3899731225416  0.5975572155455  0.4941634189449 1.0
C      1  0.5038785081968  0.2698801897650  0.5057112458878 1.0
C      1  0.5038955720643  0.7345406924232  0.5060126812022 1.0
C      1  0.5044820856406  0.5019361301713  0.5061319704829 1.0
END
