TITL C-113584-3185-27 -4.341 3375.00 -756.43335732 0 0 92 (C3) n - 1
REM
REM Run started: at 2020.12.27 20:21:52 in /rds/project/t2_vol4/rds-t2-cs072/BORA/CARBON/AIRSS/Generating-Clusters/Str-Search/Higher-Symm/C10-100
REM VASP from code version vasp.5.4.4.18Apr17-6-g9f103f2a35 (build Oct 11 2019 16:45:47) gamma-only
REM
REM
REM
REM
REM ./C.cell (f39ce9773e2efe3fa5bbdf770a4156b8)
REM AIRSS Version 0.9.1 bugfix July 2018 build 013d7b7c2542+ Fri, 06 Jul 2018 19:26:36 +0100
REM compiler GCC version 4.8.5 20150623 (Red Hat 4.8.5-39)
REM options -cpp -mtune=generic -march=x86-64 -g -O0
REM seed 1447146388 1980163310 -496598560 1553653596 1818216275 -1697194785 1872960778 -264256742 -1711069504 -1230809695 -1230301808 455612963
REM
REM C.POTCAR (d86ddea03c3ceb6dc662c8ad6801f873)
REM 
CELL 1.54180   15.00000   15.00000   15.00000   90.00000   90.00000   90.00000
LATT -1
SFAC C  
C      1  0.5211762061863  0.5112659532771  0.2444920509282 1.0
C      1  0.2703395850163  0.5112638374102  0.6074179108940 1.0
C      1  0.7099233369334  0.5115304447043  0.6428483331628 1.0
C      1  0.7548306451904  0.4471714343135  0.4447452710312 1.0
C      1  0.3271309156223  0.4469651013785  0.3045995902062 1.0
C      1  0.4199654979990  0.4470822194839  0.7454451235805 1.0
C      1  0.3756546121506  0.5986127389670  0.2368004335997 1.0
C      1  0.3371608397892  0.5985962596972  0.7368642828360 1.0
C      1  0.7894018330035  0.5986637034451  0.5207045306858 1.0
C      1  0.6579633419635  0.3636442809214  0.6654148212305 1.0
C      1  0.5665849750990  0.3634239073419  0.2785906128061 1.0
C      1  0.2774325802077  0.3634957879433  0.5508971567281 1.0
C      1  0.7152008714632  0.6548260306723  0.3217723105359 1.0
C      1  0.2400807211729  0.6535412115283  0.4013843628568 1.0
C      1  0.5469218969291  0.6540146497190  0.7718458436104 1.0
C      1  0.7245650756165  0.4200900277355  0.6159242814064 1.0
C      1  0.4904999533066  0.4197761134714  0.2454345972512 1.0
C      1  0.2866913992240  0.4198835512610  0.6334991590822 1.0
C      1  0.4724539808534  0.2185013901973  0.5886297081220 1.0
C      1  0.5929807642624  0.2185069079867  0.4778166362665 1.0
C      1  0.4368346206093  0.2185176300647  0.4288448715432 1.0
C      1  0.4731727512861  0.6021905109822  0.2618171685213 1.0
C      1  0.3094955301213  0.6021930090629  0.6400501182559 1.0
C      1  0.7188793002809  0.6024446784846  0.5926060832852 1.0
C      1  0.6959475889683  0.3087604056011  0.4055926264481 1.0
C      1  0.3228812764607  0.3087569758853  0.3756996318746 1.0
C      1  0.4835076928398  0.3087168037521  0.7139754322362 1.0
C      1  0.4772747577875  0.5979187957188  0.3631912012229 1.0
C      1  0.3951852003718  0.5979444722329  0.5856800550750 1.0
C      1  0.6290189717304  0.5981884547910  0.5454986354301 1.0
C      1  0.3878172801415  0.5974057189847  0.4123531397257 1.0
C      1  0.4825269331544  0.5976181887188  0.6385905381587 1.0
C      1  0.6311803156228  0.5977256455917  0.4435107302920 1.0
C      1  0.3836858717681  0.2518976852431  0.6093339762129 1.0
C      1  0.6553708216311  0.2518985830159  0.5443776241490 1.0
C      1  0.4632448675097  0.2517763304186  0.3415023280701 1.0
C      1  0.6026158309167  0.5131019520894  0.2939771673714 1.0
C      1  0.2724493595923  0.5130733516448  0.5120651627363 1.0
C      1  0.6263551252475  0.5133391830632  0.6888095946881 1.0
C      1  0.3903513791599  0.3049013257608  0.6881411617765 1.0
C      1  0.7202281646973  0.3049476136988  0.4991418432791 1.0
C      1  0.3916335222008  0.3047810482379  0.3078644027118 1.0
C      1  0.5393632841193  0.8007237895135  0.4012821310725 1.0
C      1  0.3966083407604  0.8004436550223  0.5129300397088 1.0
C      1  0.5647550712816  0.8006157582615  0.5804022026446 1.0
C      1  0.3246597881854  0.2800017447365  0.5393926926070 1.0
C      1  0.6243521744193  0.2800625299954  0.6304740384563 1.0
C      1  0.5532750852422  0.2799010121578  0.3252779630169 1.0
C      1  0.4472132524910  0.7753939405137  0.4301331938543 1.0
C      1  0.4677945537233  0.7753518758398  0.5782435976275 1.0
C      1  0.5859832150589  0.7756588326570  0.4861511257890 1.0
C      1  0.6111085796915  0.6902279055287  0.7161769644174 1.0
C      1  0.6345104820897  0.6903411059087  0.2938049649605 1.0
C      1  0.2560054293667  0.6898216544484  0.4848413138708 1.0
C      1  0.3677461516293  0.5490215924973  0.4981398163573 1.0
C      1  0.5667993331240  0.5493320543878  0.6130889866239 1.0
C      1  0.5669893352007  0.5492655244138  0.3832513889724 1.0
C      1  0.4631486820087  0.4197252868025  0.5592588010655 1.0
C      1  0.5724551415931  0.4198108860867  0.5003526798697 1.0
C      1  0.4668032617580  0.4197080252820  0.4352760274905 1.0
C      1  0.2717071040144  0.6849221098362  0.5795637848538 1.0
C      1  0.6853705153098  0.6853566367657  0.6553231931284 1.0
C      1  0.5446767232692  0.6850369264721  0.2599041699141 1.0
C      1  0.7727277693091  0.5387229562189  0.4515966577030 1.0
C      1  0.3240758356671  0.5385361769054  0.2857033544021 1.0
C      1  0.4052707845126  0.5386645009948  0.7572712276016 1.0
C      1  0.3069989488865  0.6084142426449  0.3562602147734 1.0
C      1  0.4743006748609  0.6088238123166  0.7365626321733 1.0
C      1  0.7202553434188  0.6088569127639  0.4017552306742 1.0
C      1  0.4590634683573  0.6749441553411  0.5831802011814 1.0
C      1  0.5948307231926  0.6752139549978  0.4913002643832 1.0
C      1  0.4473669895315  0.6749670816504  0.4198414155121 1.0
C      1  0.5067704615160  0.3963990445231  0.7408362624579 1.0
C      1  0.7074535375528  0.3963625502683  0.3718634494689 1.0
C      1  0.2876626678211  0.3963215784974  0.3822021414799 1.0
C      1  0.3166197865306  0.7505424166957  0.5287144909149 1.0
C      1  0.6186583600355  0.7507817900746  0.6416467657296 1.0
C      1  0.5657732872064  0.7506455912845  0.3242485446221 1.0
C      1  0.3507994196331  0.3903123021651  0.7002573036007 1.0
C      1  0.7503645998093  0.3904076748290  0.5271976365884 1.0
C      1  0.4007860708661  0.3901271793199  0.2673912352251 1.0
C      1  0.4110726499971  0.4610880091467  0.4958077560837 1.0
C      1  0.5433703981640  0.4612566178827  0.5770427033889 1.0
C      1  0.5476965381663  0.4612750827599  0.4219340563401 1.0
C      1  0.6179573346158  0.2561866678384  0.3915892411660 1.0
C      1  0.3497105193758  0.2562446756191  0.4503135006540 1.0
C      1  0.5346137648022  0.2562053669266  0.6533352834506 1.0
C      1  0.5964316974931  0.4224568506899  0.7130177169063 1.0
C      1  0.6385537012262  0.4223031400727  0.3080475006063 1.0
C      1  0.2667183059651  0.4222838242605  0.4738183421546 1.0
C      1  0.5007374348930  0.2036284882252  0.4984296367692 1.0
C      1  0.5004533281702  0.6630193934612  0.4981123478027 1.0
END
