TITL C-110611-5339-10 -3.322 3375.00 -571.39133299 0 0 69 (C1) n - 1
REM
REM Run started: at 2020.12.27 16:26:10 in /rds/project/t2_vol4/rds-t2-cs072/BORA/CARBON/AIRSS/Generating-Clusters/Str-Search/Higher-Symm/C10-100
REM VASP from code version vasp.5.4.4.18Apr17-6-g9f103f2a35 (build Oct 11 2019 16:45:47) gamma-only
REM
REM
REM
REM
REM ./C.cell (f39ce9773e2efe3fa5bbdf770a4156b8)
REM AIRSS Version 0.9.1 bugfix July 2018 build 013d7b7c2542+ Fri, 06 Jul 2018 19:26:36 +0100
REM compiler GCC version 4.8.5 20150623 (Red Hat 4.8.5-39)
REM options -cpp -mtune=generic -march=x86-64 -g -O0
REM seed -560011129 1026217595 266542714 2124754285 776188965 -371036944 2047738091 -2076006340 -450414599 -788650865 -835122028 -839222437
REM
REM C.POTCAR (d86ddea03c3ceb6dc662c8ad6801f873)
REM 
CELL 1.54180   15.00000   15.00000   15.00000   90.00000   90.00000   90.00000
LATT -1
SFAC C  
C      1  0.6721800469944  0.6827288447282  0.4539752268171 1.0
C      1  0.2524802131879  0.5483943236699  0.4631663239530 1.0
C      1  0.5849833951218  0.2677669716532  0.4411273462309 1.0
C      1  0.6640190972792  0.6884388420615  0.5540768333635 1.0
C      1  0.2495604392184  0.5478278128422  0.5637922633152 1.0
C      1  0.5808002237344  0.2739284471522  0.5398066217126 1.0
C      1  0.6710419951608  0.3114039381299  0.4387981903391 1.0
C      1  0.2519662728234  0.4522360219112  0.4626456541483 1.0
C      1  0.5883013391772  0.7308280933145  0.4492915055404 1.0
C      1  0.6649179907632  0.3211706425353  0.5389765814174 1.0
C      1  0.2499754990185  0.4520109240548  0.5632656610898 1.0
C      1  0.5793723304910  0.7333924318827  0.5481317696384 1.0
C      1  0.3509323002682  0.6808865132923  0.4310969175797 1.0
C      1  0.4461969331472  0.3345359266859  0.4132347320489 1.0
C      1  0.7437542169265  0.5308309439292  0.4225510970284 1.0
C      1  0.3343056000516  0.6804561494811  0.6031282064527 1.0
C      1  0.4184888216733  0.2744333550604  0.5861793978080 1.0
C      1  0.7385775865284  0.5550686885094  0.5970788726704 1.0
C      1  0.3514021201533  0.3213217548886  0.4293669604278 1.0
C      1  0.4459954561406  0.6683094624110  0.4166798914193 1.0
C      1  0.7274932158006  0.4530563789976  0.3821148015802 1.0
C      1  0.3368029836242  0.3198272250031  0.6012102338908 1.0
C      1  0.4150150511445  0.7273555102864  0.5893274422254 1.0
C      1  0.7405577098596  0.4615869597311  0.5864701454904 1.0
C      1  0.5558842490133  0.6599729166592  0.3114646124993 1.0
C      1  0.3381427830672  0.4521175290380  0.3269299879106 1.0
C      1  0.6305201835521  0.3680376756006  0.2897434301295 1.0
C      1  0.5354593089432  0.6681814388771  0.6881992270183 1.0
C      1  0.3318059560790  0.4517121399831  0.7016391530895 1.0
C      1  0.6231862633933  0.3883138124982  0.6780966529777 1.0
C      1  0.5457552296568  0.3244706427188  0.2957310318653 1.0
C      1  0.3402078082399  0.5481133156737  0.3282248689867 1.0
C      1  0.6361977662854  0.6073292453437  0.3158631394944 1.0
C      1  0.5412399015959  0.3388520048028  0.6793289264392 1.0
C      1  0.3302350990756  0.5469843245738  0.7029420877907 1.0
C      1  0.6195010962828  0.6231067886520  0.6915437245152 1.0
C      1  0.5839965611369  0.4575730152348  0.7368180044097 1.0
C      1  0.4941570282788  0.5972748288491  0.7436523488344 1.0
C      1  0.4186096159301  0.4495064900950  0.7475479496635 1.0
C      1  0.5867090487199  0.4464546346650  0.2486363863851 1.0
C      1  0.5062807440572  0.5893392357774  0.2640990487392 1.0
C      1  0.4199297016217  0.4487494102322  0.2685202165421 1.0
C      1  0.5819304751046  0.5490207563542  0.7431626263892 1.0
C      1  0.4986016354957  0.4057676365574  0.7375736290770 1.0
C      1  0.4164564609092  0.5500035163205  0.7496466897645 1.0
C      1  0.5910372311122  0.5371915087461  0.2601389809802 1.0
C      1  0.4981480272287  0.4013400432410  0.2535076622657 1.0
C      1  0.4234742945296  0.5478599268226  0.2716836169983 1.0
C      1  0.3014400387424  0.4007547643405  0.4007540915616 1.0
C      1  0.6910317323576  0.3706767601030  0.3655848050057 1.0
C      1  0.5256104326936  0.7132296277652  0.3824041737758 1.0
C      1  0.2959189285465  0.4013177375950  0.6290033951792 1.0
C      1  0.6875408501787  0.3855323894312  0.6056245385156 1.0
C      1  0.5081649123992  0.7203120183387  0.6110513071684 1.0
C      1  0.3027765470286  0.6000540058335  0.4018124841443 1.0
C      1  0.6938079046945  0.6126221884748  0.3934701063931 1.0
C      1  0.5195064033150  0.2825813004556  0.3759760863389 1.0
C      1  0.2945630212227  0.5980582432033  0.6305795421537 1.0
C      1  0.6853596411963  0.6285945323112  0.6230706698944 1.0
C      1  0.5120736952378  0.2842436665309  0.6051093786264 1.0
C      1  0.4530752231470  0.5486976454289  0.5440520291811 1.0
C      1  0.4554569165994  0.4519032746200  0.5434296534570 1.0
C      1  0.4652298740537  0.5879444222133  0.4575436597191 1.0
C      1  0.5210611894452  0.5017810010760  0.4630562432537 1.0
C      1  0.4675096243733  0.4138072669824  0.4558664317738 1.0
C      1  0.5428800039349  0.5019874415237  0.5632999044211 1.0
C      1  0.3502511892653  0.7160333399408  0.5182971023138 1.0
C      1  0.3527334847314  0.2852169097713  0.5161563967891 1.0
C      1  0.7674209792397  0.5195824645324  0.5162171213811 1.0
END
