TITL C-110611-5339-2 -2.395 3375.00 -407.31721383 0 0 49 (C1) n - 1
REM
REM Run started: at 2020.12.27 13:21:51 in /rds/project/t2_vol4/rds-t2-cs072/BORA/CARBON/AIRSS/Generating-Clusters/Str-Search/Higher-Symm/C10-100
REM VASP from code version vasp.5.4.4.18Apr17-6-g9f103f2a35 (build Oct 11 2019 16:45:47) gamma-only
REM
REM
REM
REM
REM ./C.cell (f39ce9773e2efe3fa5bbdf770a4156b8)
REM AIRSS Version 0.9.1 bugfix July 2018 build 013d7b7c2542+ Fri, 06 Jul 2018 19:26:36 +0100
REM compiler GCC version 4.8.5 20150623 (Red Hat 4.8.5-39)
REM options -cpp -mtune=generic -march=x86-64 -g -O0
REM seed -595286148 295636179 505729098 -1145447823 -930051390 -180817293 -1031864781 1605659608 -1719567028 1217016396 1588161221 2059198284
REM
REM C.POTCAR (d86ddea03c3ceb6dc662c8ad6801f873)
REM 
CELL 1.54180   15.00000   15.00000   15.00000   90.00000   90.00000   90.00000
LATT -1
SFAC C  
C      1  0.7384871634461  0.4917881454616  0.5834342080300 1.0
C      1  0.5956157926112  0.6669342274338  0.5268510976406 1.0
C      1  0.4677675777005  0.5873121976840  0.7230404929753 1.0
C      1  0.3211115474728  0.5474752194928  0.5690011723618 1.0
C      1  0.2802595880557  0.4688189946621  0.4014574225031 1.0
C      1  0.6759840476279  0.5087864051306  0.4008045020193 1.0
C      1  0.4313572695076  0.3285966899131  0.4533158244438 1.0
C      1  0.4232803145077  0.7324641730635  0.5446815230666 1.0
C      1  0.5995843776424  0.3262606556778  0.5427203887126 1.0
C      1  0.5273653944843  0.4191390811887  0.6926924518909 1.0
C      1  0.4787490015614  0.5734043341615  0.3102743540001 1.0
C      1  0.4490166146002  0.3960033422891  0.2512999708787 1.0
C      1  0.4634270715256  0.7005453658176  0.6233756672613 1.0
C      1  0.7203609961286  0.5764380750777  0.4506760524019 1.0
C      1  0.5918191504985  0.4909986981565  0.6803801845816 1.0
C      1  0.5203798949063  0.3080335186422  0.5903467299247 1.0
C      1  0.5166303978534  0.3387719237535  0.4021799488691 1.0
C      1  0.5377388749502  0.6729693595278  0.4452808389118 1.0
C      1  0.2950372417846  0.4131257350326  0.4786135426094 1.0
C      1  0.7215914550696  0.4159115535355  0.5262816085674 1.0
C      1  0.3299381077087  0.5983030711404  0.4827163050925 1.0
C      1  0.4034972814079  0.5166558975301  0.7066591327107 1.0
C      1  0.5517142065569  0.5147317092027  0.2779422851506 1.0
C      1  0.3759354627987  0.4472964701868  0.2849624614084 1.0
C      1  0.5988839919344  0.3560494018412  0.4513432755703 1.0
C      1  0.3900414734864  0.5404408019268  0.3208206780537 1.0
C      1  0.4544268610258  0.7166576994119  0.4592784719564 1.0
C      1  0.4374154823620  0.3307774477421  0.5506358224786 1.0
C      1  0.5374044679990  0.4268822175362  0.2509638874121 1.0
C      1  0.4320102057873  0.4328505314827  0.6799329061633 1.0
C      1  0.6743579394352  0.4197862557392  0.4415349294236 1.0
C      1  0.3266597515242  0.5501609482588  0.3974694463871 1.0
C      1  0.3228185546992  0.4485882042910  0.5599543203733 1.0
C      1  0.5501604275991  0.6577409178180  0.6144008710813 1.0
C      1  0.5533725897928  0.5830602912103  0.6793336377248 1.0
C      1  0.7444232367081  0.5729418917080  0.5418141187240 1.0
C      1  0.6717548712294  0.3651842537975  0.5934387881092 1.0
C      1  0.3691070090419  0.6820305365781  0.4844929072698 1.0
C      1  0.6095058705752  0.5480512255936  0.3447090994022 1.0
C      1  0.3448856442525  0.3511794259168  0.4213407581519 1.0
C      1  0.5116949168803  0.3562805204591  0.3106699189941 1.0
C      1  0.3163056028561  0.4036490760483  0.3405108037071 1.0
C      1  0.6817749252303  0.6387121729894  0.5113791483043 1.0
C      1  0.5464258206773  0.6174452680237  0.3713418443186 1.0
C      1  0.5475703018818  0.3294953513583  0.6797418735238 1.0
C      1  0.4093873386581  0.6535407593805  0.6847541563113 1.0
C      1  0.6697601622584  0.4534151561618  0.6415549618228 1.0
C      1  0.3498986484068  0.5785257339615  0.6538140675414 1.0
C      1  0.3874075752916  0.3935836670033  0.6044076411825 1.0
END
