TITL C-114261-8675-1 -3.703 3375.00 -631.61064225 0 0 76 (C1) n - 1
REM
REM Run started: at 2020.12.27 13:28:24 in /rds/project/t2_vol4/rds-t2-cs072/BORA/CARBON/AIRSS/Generating-Clusters/Str-Search/Higher-Symm/C10-100
REM VASP from code version vasp.5.4.4.18Apr17-6-g9f103f2a35 (build Oct 11 2019 16:45:47) gamma-only
REM
REM
REM
REM
REM ./C.cell (f39ce9773e2efe3fa5bbdf770a4156b8)
REM AIRSS Version 0.9.1 bugfix July 2018 build 013d7b7c2542+ Fri, 06 Jul 2018 19:26:36 +0100
REM compiler GCC version 4.8.5 20150623 (Red Hat 4.8.5-39)
REM options -cpp -mtune=generic -march=x86-64 -g -O0
REM seed 1430279039 -1185311131 546844832 365352017 1146929408 -1226905628 1028603629 -49301267 -1602534655 2124148349 -176748043 774042012
REM
REM C.POTCAR (d86ddea03c3ceb6dc662c8ad6801f873)
REM 
CELL 1.54180   15.00000   15.00000   15.00000   90.00000   90.00000   90.00000
LATT -1
SFAC C  
C      1  0.1913093899773  0.3384323259155  0.5349577306101 1.0
C      1  0.1601774329601  0.5504041727058  0.3269803691686 1.0
C      1  0.2026917697756  0.6240879457550  0.6179351998616 1.0
C      1  0.8244186746364  0.3335193828244  0.5554611650961 1.0
C      1  0.8028273172701  0.5415999215262  0.3335549631323 1.0
C      1  0.8201704872880  0.6263841136383  0.6240143345056 1.0
C      1  0.1390303679656  0.5747209859419  0.5653798274113 1.0
C      1  0.1331678935492  0.4138747218133  0.5303060298661 1.0
C      1  0.1157925022656  0.5251645911507  0.4082456977088 1.0
C      1  0.8709128432722  0.5762550658919  0.5625958357872 1.0
C      1  0.8737264272334  0.4134262050938  0.5341217161300 1.0
C      1  0.8607985112580  0.5203809420964  0.4065090390755 1.0
C      1  0.5337187296220  0.3939099027672  0.3583339823842 1.0
C      1  0.5368882438941  0.7207706588468  0.4856123515247 1.0
C      1  0.5605994900538  0.4001763249038  0.7105166379931 1.0
C      1  0.4064542822241  0.3927231007693  0.2594175981160 1.0
C      1  0.4457523878016  0.7090830868065  0.4724926358000 1.0
C      1  0.4631863931695  0.4057395950354  0.6988025394006 1.0
C      1  0.1827013235797  0.3752040421950  0.3831493794003 1.0
C      1  0.2024583740480  0.6563369505905  0.4368576091942 1.0
C      1  0.2271850850807  0.4728710075353  0.6527166689274 1.0
C      1  0.7874506656867  0.3719365797101  0.4068701652974 1.0
C      1  0.7818160313411  0.6522195125565  0.4450326360469 1.0
C      1  0.8050180028409  0.4769543418362  0.6717003145917 1.0
C      1  0.1484140300628  0.4818094697367  0.5933599039691 1.0
C      1  0.1233111662905  0.4351965675080  0.4354057292440 1.0
C      1  0.1329311598864  0.5956775956904  0.4740281250788 1.0
C      1  0.8695744135236  0.4835958142197  0.5958085002687 1.0
C      1  0.8590064346912  0.4320978170366  0.4389291727932 1.0
C      1  0.8568466174478  0.5938668712169  0.4705542911907 1.0
C      1  0.7805826048236  0.5660532354652  0.6906197125690 1.0
C      1  0.7729957267610  0.3107555117437  0.4771363290313 1.0
C      1  0.7543417003432  0.6222526790378  0.3567266021770 1.0
C      1  0.2540413955635  0.5625324638435  0.6725328059765 1.0
C      1  0.2195705972788  0.3152318356183  0.4460364209795 1.0
C      1  0.2165872703592  0.6270411886543  0.3486757090314 1.0
C      1  0.7089119142716  0.4068540457809  0.3592077778220 1.0
C      1  0.7146938439837  0.6791446343670  0.5091029001007 1.0
C      1  0.7336787201517  0.4089941763262  0.6729592055130 1.0
C      1  0.2440400584929  0.4084354930147  0.3157503185451 1.0
C      1  0.2823536592402  0.6791351758550  0.4867459197505 1.0
C      1  0.2996488193050  0.4088874200272  0.6360802013498 1.0
C      1  0.6086845778098  0.5939059342984  0.4081555835053 1.0
C      1  0.6315267287658  0.5326230966204  0.6516307445916 1.0
C      1  0.6225696698228  0.3627707146908  0.4926016202993 1.0
C      1  0.3676674818854  0.5835748720430  0.3828395666206 1.0
C      1  0.3967033196421  0.5346785092414  0.6081836764059 1.0
C      1  0.3705360310785  0.3544371104162  0.4070972805635 1.0
C      1  0.2798642837879  0.6652968666061  0.5797015744720 1.0
C      1  0.2808011513694  0.3436023020382  0.5696461892903 1.0
C      1  0.2344498349136  0.5002764670108  0.2946542889681 1.0
C      1  0.7355483788420  0.6637505152777  0.5998543204607 1.0
C      1  0.7461185487145  0.3380211014882  0.6116612056861 1.0
C      1  0.7205118753899  0.4919094586316  0.3213266371483 1.0
C      1  0.3130486027730  0.3217488783596  0.4720752902845 1.0
C      1  0.2960259326498  0.5773264497564  0.3218021739374 1.0
C      1  0.3357552692357  0.5990022674021  0.6333424810451 1.0
C      1  0.6906313876780  0.3156253474172  0.5299318829837 1.0
C      1  0.6699829726775  0.5764415904942  0.3424183812609 1.0
C      1  0.6928872558762  0.6011171362087  0.6680935143270 1.0
C      1  0.6197753317244  0.3816216301628  0.3945618077440 1.0
C      1  0.6188855001426  0.6695397235464  0.4770489134790 1.0
C      1  0.6430366377138  0.4427862770690  0.6928052483903 1.0
C      1  0.3343757105330  0.3748204457331  0.3175057347933 1.0
C      1  0.3677001838048  0.6643459556646  0.4419229053352 1.0
C      1  0.3901186137837  0.4460421883735  0.6577944780682 1.0
C      1  0.4141576992092  0.5130369646298  0.4287464016131 1.0
C      1  0.4290890956769  0.5106771268708  0.5211021134004 1.0
C      1  0.4532635066619  0.4081388471319  0.4213802131508 1.0
C      1  0.5928875993503  0.5738175105242  0.4955448966378 1.0
C      1  0.5933870298481  0.5163343801201  0.5668877990313 1.0
C      1  0.5646631248119  0.4247874567976  0.5404389658119 1.0
C      1  0.4782736672047  0.7879160448749  0.5166371822889 1.0
C      1  0.5027390966244  0.3427165586632  0.7575961775503 1.0
C      1  0.4889853594182  0.3942189153511  0.2757677256729 1.0
C      1  0.4793682813097  0.4286550834383  0.5133547727627 1.0
END
