TITL C-110611-5339-22 -2.917 3375.00 -490.16234001 0 0 60 (C1) n - 1
REM
REM Run started: at 2020.12.27 20:34:26 in /rds/project/t2_vol4/rds-t2-cs072/BORA/CARBON/AIRSS/Generating-Clusters/Str-Search/Higher-Symm/C10-100
REM VASP from code version vasp.5.4.4.18Apr17-6-g9f103f2a35 (build Oct 11 2019 16:45:47) gamma-only
REM
REM
REM
REM
REM ./C.cell (f39ce9773e2efe3fa5bbdf770a4156b8)
REM AIRSS Version 0.9.1 bugfix July 2018 build 013d7b7c2542+ Fri, 06 Jul 2018 19:26:36 +0100
REM compiler GCC version 4.8.5 20150623 (Red Hat 4.8.5-39)
REM options -cpp -mtune=generic -march=x86-64 -g -O0
REM seed 218290580 198184654 -1670542562 -1675747802 783517354 -1578470760 -56345601 947819130 997339929 1832377892 1956687013 -898489065
REM
REM C.POTCAR (d86ddea03c3ceb6dc662c8ad6801f873)
REM 
CELL 1.54180   15.00000   15.00000   15.00000   90.00000   90.00000   90.00000
LATT -1
SFAC C  
C      1  0.4255286692426  0.6282763644572  0.6553755021798 1.0
C      1  0.5982645130655  0.6176031200052  0.6734801819114 1.0
C      1  0.6704459533724  0.5487581329011  0.6728917439282 1.0
C      1  0.6519015675123  0.4860901662107  0.7385094268786 1.0
C      1  0.5819319574482  0.4784966101524  0.7837692405898 1.0
C      1  0.3465564583974  0.5178226527148  0.7381600801515 1.0
C      1  0.3407592705096  0.5755125920676  0.6657035644307 1.0
C      1  0.4902306591016  0.7300217134861  0.5195560493968 1.0
C      1  0.6352507346078  0.6569792248172  0.4810465540311 1.0
C      1  0.7408139802581  0.4850490708312  0.5265355345094 1.0
C      1  0.6510039619255  0.2707970806283  0.5020906335135 1.0
C      1  0.4237587366643  0.2339359494535  0.4953526010079 1.0
C      1  0.2651346852140  0.4024697053164  0.5195102402292 1.0
C      1  0.2853590609862  0.6283797018125  0.5208121174416 1.0
C      1  0.3375244535152  0.2504168085046  0.5292022612215 1.0
C      1  0.2499232037641  0.4728287880079  0.5756537565468 1.0
C      1  0.3355178764346  0.6986145292072  0.5472844432505 1.0
C      1  0.5800820669671  0.7217608733525  0.5373258304946 1.0
C      1  0.6983197452089  0.6431826250645  0.5583903180091 1.0
C      1  0.7501454225146  0.3944959266069  0.5471751186304 1.0
C      1  0.5860262033310  0.2102606255507  0.5250734358723 1.0
C      1  0.4748386383990  0.6842694420808  0.4260488644582 1.0
C      1  0.6345325944812  0.6460717297602  0.3827994494802 1.0
C      1  0.6925955807105  0.4886873328068  0.4282648815321 1.0
C      1  0.6129165949525  0.3357574413497  0.4310259890210 1.0
C      1  0.4469541502504  0.3097699840064  0.4289569172719 1.0
C      1  0.3228275224818  0.4247122521416  0.4351657998994 1.0
C      1  0.3323754278583  0.5911873607822  0.4365777953831 1.0
C      1  0.3148198575057  0.5087357802565  0.3801936310143 1.0
C      1  0.3890798839080  0.6517687470434  0.3792328408599 1.0
C      1  0.5476078542204  0.6731206446140  0.3525754485634 1.0
C      1  0.6722658917088  0.5629478898975  0.3550454025782 1.0
C      1  0.6665898935766  0.4022173372259  0.3776463049723 1.0
C      1  0.5310139833876  0.3158277041308  0.3743526492712 1.0
C      1  0.3807150998550  0.3649745811016  0.3769735342913 1.0
C      1  0.2791446098090  0.3095308728357  0.5357949779229 1.0
C      1  0.2756969265880  0.5600068862181  0.5926917615323 1.0
C      1  0.4191416389400  0.7014963717573  0.5845055189905 1.0
C      1  0.6288089073630  0.6839953361702  0.6124448345905 1.0
C      1  0.7235901268924  0.5571363298599  0.5899742114352 1.0
C      1  0.7227155572431  0.3156691070368  0.5421677219044 1.0
C      1  0.5026788982771  0.1959962507210  0.5224589282221 1.0
C      1  0.4723763327292  0.3887736293113  0.4894509081848 1.0
C      1  0.4047358064817  0.4531108786037  0.4867111213794 1.0
C      1  0.4107004451583  0.5450535046028  0.4813709142097 1.0
C      1  0.4870674613577  0.5948346101135  0.4763875566541 1.0
C      1  0.5729471560881  0.5733391106191  0.4948055793728 1.0
C      1  0.6064240195682  0.4887090188370  0.4833741755536 1.0
C      1  0.5638838481106  0.4056605396608  0.4863634300782 1.0
C      1  0.6129761400066  0.4269079069123  0.3044185905691 1.0
C      1  0.5224828652144  0.3827569427990  0.3094960757897 1.0
C      1  0.4260353945445  0.4178610527679  0.3122836667056 1.0
C      1  0.3797045152065  0.5081900151073  0.3112615338862 1.0
C      1  0.4160919753253  0.6014707939528  0.3046441537837 1.0
C      1  0.5081225237315  0.6232160199081  0.2809003716760 1.0
C      1  0.6265561853462  0.5198231502746  0.2817310943062 1.0
C      1  0.5069870218957  0.5974570028738  0.7027686009310 1.0
C      1  0.4122593218159  0.4970271525697  0.7842929244131 1.0
C      1  0.5579667905590  0.5605940248057  0.2346828447559 1.0
C      1  0.5004913784110  0.5203169033360  0.7675656603320 1.0
END
