TITL C-113542-5098-7 -3.105 3375.00 -491.57371835 0 0 60 (C1) n - 1
REM
REM Run started: at 2020.12.17 05:29:49 in /rds/project/t2_vol4/rds-t2-cs072/BORA/CARBON/AIRSS/Generating-Clusters/Str-Search/Higher-Symm/Only-C60
REM VASP from code version vasp.5.4.4.18Apr17-6-g9f103f2a35 (build Oct 11 2019 16:45:47) gamma-only
REM
REM
REM
REM
REM ./C.cell (5f7b7a0d59291d2373303da1f58b8d66)
REM AIRSS Version 0.9.1 bugfix July 2018 build 013d7b7c2542+ Fri, 06 Jul 2018 19:26:36 +0100
REM compiler GCC version 4.8.5 20150623 (Red Hat 4.8.5-39)
REM options -cpp -mtune=generic -march=x86-64 -g -O0
REM seed 1114254812 1304875868 -937508120 6818146 781956974 -285497879 -2114289356 1746924308 396387276 -551906659 1547543094 -1667736621
REM
REM C.POTCAR (d86ddea03c3ceb6dc662c8ad6801f873)
REM 
CELL 1.54180   15.00000   15.00000   15.00000   90.00000   90.00000   90.00000
LATT -1
SFAC C  
C      1  0.4971621318350  0.5056266190093  0.2679304512082 1.0
C      1  0.5035398066948  0.7256590872085  0.4422423273160 1.0
C      1  0.4942407081377  0.6259711079996  0.7057016394846 1.0
C      1  0.4859660485375  0.3416723085331  0.6883055804582 1.0
C      1  0.4864531177979  0.2731745418868  0.4216810249206 1.0
C      1  0.5678405898165  0.5733780378294  0.4805466673015 1.0
C      1  0.5557587719478  0.5504099349368  0.5728513454341 1.0
C      1  0.5345752547364  0.4550896080443  0.5764885585220 1.0
C      1  0.5375797420001  0.4207293382073  0.4879567033355 1.0
C      1  0.5573773103699  0.4950497793468  0.4277583685661 1.0
C      1  0.4351913807400  0.7115002496476  0.3750505826895 1.0
C      1  0.4263799585779  0.6852764358005  0.6677907493686 1.0
C      1  0.4148598340990  0.3962578729370  0.7281075370586 1.0
C      1  0.4148520625665  0.2485212409378  0.4829688461184 1.0
C      1  0.4302331135089  0.4367538445636  0.2607904905839 1.0
C      1  0.2711676549087  0.3362123901762  0.4677938163848 1.0
C      1  0.2832165736221  0.4787322031874  0.3335854776725 1.0
C      1  0.2863806734484  0.6526493123729  0.4297287547752 1.0
C      1  0.2796423391199  0.6131520423422  0.6226205519112 1.0
C      1  0.2694732562896  0.4178537712872  0.6444478048917 1.0
C      1  0.4787722294805  0.7519611785839  0.5258090476052 1.0
C      1  0.4692618954200  0.5539002147202  0.7551969211850 1.0
C      1  0.4684101039497  0.2655463107196  0.6405550589886 1.0
C      1  0.4711743609021  0.2953815376827  0.3342647869626 1.0
C      1  0.4728525348914  0.5937468807810  0.2660950387060 1.0
C      1  0.2361735424339  0.4210747717701  0.4814123125390 1.0
C      1  0.2437180117734  0.4927187606336  0.4166236350543 1.0
C      1  0.2460514526309  0.5764992612406  0.4647858859724 1.0
C      1  0.2412142774295  0.5567124665832  0.5595393087378 1.0
C      1  0.2347637348394  0.4606085431702  0.5696748565719 1.0
C      1  0.7744790485288  0.4672505904901  0.5578688133942 1.0
C      1  0.7828944110227  0.4296173538058  0.4688538276777 1.0
C      1  0.8062108569434  0.5015734228281  0.4101077670586 1.0
C      1  0.8087868786790  0.5833430646336  0.4626505239501 1.0
C      1  0.7890559521167  0.5635412262590  0.5550179007078 1.0
C      1  0.5600458867356  0.3278001789673  0.4571646216893 1.0
C      1  0.5770778286823  0.4955868450252  0.3286033921406 1.0
C      1  0.5839990541501  0.6651375027710  0.4416858035056 1.0
C      1  0.5739450266014  0.6090353091730  0.6477022610859 1.0
C      1  0.5594120022791  0.3937412238437  0.6508888211825 1.0
C      1  0.6643544900672  0.6302851716104  0.6492311663033 1.0
C      1  0.6525583969846  0.3904158768340  0.6529320393584 1.0
C      1  0.6512713268917  0.3235889985912  0.4417877049555 1.0
C      1  0.6635567243429  0.5094475220222  0.3135127622048 1.0
C      1  0.6692134981204  0.6742947237474  0.4186301575753 1.0
C      1  0.7377846261511  0.6181143012764  0.6109315117432 1.0
C      1  0.7229143557486  0.4225710220854  0.6217652165171 1.0
C      1  0.7269021357477  0.3581666791159  0.4479467445267 1.0
C      1  0.7395500621846  0.5403807224103  0.3480348637387 1.0
C      1  0.7424023385877  0.6253544117384  0.4032104295381 1.0
C      1  0.4529934111730  0.3465544734386  0.2707510707355 1.0
C      1  0.4577749118843  0.6706457618137  0.2945176973792 1.0
C      1  0.4543202944411  0.7482814367727  0.6055518196311 1.0
C      1  0.4428658248816  0.4754203923494  0.7661194770745 1.0
C      1  0.4378826005808  0.2305307259584  0.5710999445184 1.0
C      1  0.3446870739231  0.7032890637209  0.4006405809942 1.0
C      1  0.3366782181787  0.6576606486006  0.6624442001348 1.0
C      1  0.3255417198727  0.3920936199129  0.6992538060656 1.0
C      1  0.3262966598967  0.2746943464470  0.4659132183639 1.0
C      1  0.3402619120972  0.4597634316180  0.2768777259253 1.0
END
