TITL C-119275-2306-5 -4.93 3375.00 -893.98993338 0 0 109 (C1) n - 1
REM
REM Run started: at 2020.12.31 07:17:04 in /rds/project/t2_vol4/rds-t2-cs072/BORA/CARBON/AIRSS/Generating-Clusters/Str-Search/Higher-Symm/C100-200
REM VASP from code version vasp.5.4.4.18Apr17-6-g9f103f2a35 (build Oct 11 2019 16:45:47) gamma-only
REM
REM
REM
REM
REM ./C.cell (533062f00bc710175b3da973d35f2034)
REM AIRSS Version 0.9.1 bugfix July 2018 build 013d7b7c2542+ Fri, 06 Jul 2018 19:26:36 +0100
REM compiler GCC version 4.8.5 20150623 (Red Hat 4.8.5-39)
REM options -cpp -mtune=generic -march=x86-64 -g -O0
REM seed -1539970413 1006199307 1994092178 -1874906694 1502024131 621468112 -217945113 1859082777 694905658 1345911096 313780927 1926717677
REM
REM C.POTCAR (d86ddea03c3ceb6dc662c8ad6801f873)
REM 
CELL 1.54180   15.00000   15.00000   15.00000   90.00000   90.00000   90.00000
LATT -1
SFAC C  
C      1  0.5666753440428  0.3560704153945  0.7690220943464 1.0
C      1  0.3781833873980  0.7716523079802  0.5538307691420 1.0
C      1  0.7649188038932  0.5685993563393  0.3534732299936 1.0
C      1  0.5877223566455  0.6573830404432  0.2325873868729 1.0
C      1  0.4223248110871  0.3536790126358  0.2139752441374 1.0
C      1  0.4068962490004  0.6454282170232  0.7614129582201 1.0
C      1  0.3526489303875  0.2384898354994  0.4187814496077 1.0
C      1  0.6231683240841  0.7678854037929  0.4475107397028 1.0
C      1  0.6525984531401  0.2187199223439  0.5898615011991 1.0
C      1  0.7681122087542  0.4168312705737  0.6490260141052 1.0
C      1  0.2186998835902  0.5890393810526  0.6511984496770 1.0
C      1  0.2329485441869  0.4289465667515  0.3421296689791 1.0
C      1  0.5533341757737  0.7702794320996  0.3778001828905 1.0
C      1  0.3525034293174  0.5677543695157  0.7658953707013 1.0
C      1  0.7660575347557  0.3570774027712  0.5738307260969 1.0
C      1  0.5864228542841  0.2190877272490  0.6544812291935 1.0
C      1  0.4226535164304  0.2383224666306  0.3499449754383 1.0
C      1  0.4473576491961  0.7677196914877  0.6240299060602 1.0
C      1  0.3550337992641  0.4217351551384  0.2115808317661 1.0
C      1  0.6416452092879  0.4152011977980  0.7759685200321 1.0
C      1  0.6501181957869  0.5867930159250  0.2191410818775 1.0
C      1  0.7609559859616  0.6466327423340  0.4073444579862 1.0
C      1  0.2325056579626  0.6602741629856  0.5894102294408 1.0
C      1  0.2233169052743  0.3581747731617  0.4080645020480 1.0
C      1  0.5007462848515  0.6120893226322  0.5679519720314 1.0
C      1  0.6531499551364  0.5693815374170  0.4996286951227 1.0
C      1  0.5752696438676  0.4982651186467  0.6505127924350 1.0
C      1  0.5060695504628  0.3532758972869  0.4331956716997 1.0
C      1  0.4988368208543  0.6095624590736  0.4315571068180 1.0
C      1  0.5054210728628  0.3514721147497  0.5806492725441 1.0
C      1  0.6459365285149  0.4268921052582  0.5014323020118 1.0
C      1  0.3455440808696  0.5698170519595  0.5043452461278 1.0
C      1  0.3527029087032  0.4233257552287  0.5029847847656 1.0
C      1  0.5771091571342  0.4970516155181  0.3472885334381 1.0
C      1  0.4231398926585  0.4956435860165  0.3496152461921 1.0
C      1  0.4250824665061  0.4971584458171  0.6477189554381 1.0
C      1  0.5005727910787  0.5691271544001  0.6542753380066 1.0
C      1  0.6488921445167  0.4990921806355  0.5746981979131 1.0
C      1  0.5672547909315  0.6118779588326  0.4990872847335 1.0
C      1  0.5017808504081  0.4223231631517  0.3526688698248 1.0
C      1  0.5004359666875  0.4267567582543  0.6467751366584 1.0
C      1  0.4992468902321  0.5675851407261  0.3441602556497 1.0
C      1  0.6464925843903  0.4968859886455  0.4254518607045 1.0
C      1  0.3470861662589  0.4978091645880  0.5795608497535 1.0
C      1  0.3496965499252  0.4980613166266  0.4303556448565 1.0
C      1  0.5801252676241  0.3514147767800  0.5067772046257 1.0
C      1  0.4329105645933  0.3534216204600  0.5057421060626 1.0
C      1  0.4320530329365  0.6113846349752  0.5015100038760 1.0
C      1  0.6111484193429  0.7818081866909  0.5416922455779 1.0
C      1  0.7319392037222  0.5051791229919  0.6334825292674 1.0
C      1  0.5006956012276  0.6399169632972  0.7291082341252 1.0
C      1  0.6423332524703  0.2648070271134  0.5025303992696 1.0
C      1  0.3896853947728  0.7854844877604  0.4607740630486 1.0
C      1  0.3790407075928  0.2664126720750  0.5067338400519 1.0
C      1  0.7452698114148  0.4768436490535  0.3948561192972 1.0
C      1  0.2637299642745  0.5112370874389  0.3778736817136 1.0
C      1  0.2602810490819  0.4969811552001  0.6397023563141 1.0
C      1  0.5061993360671  0.3605526561526  0.2641888523826 1.0
C      1  0.4981232243637  0.6412212457558  0.2716448022551 1.0
C      1  0.4749831569038  0.3952390457902  0.7458141439747 1.0
C      1  0.6354178272612  0.5035542810816  0.7349072740086 1.0
C      1  0.7280052386107  0.6399842849912  0.5008277181463 1.0
C      1  0.5414146478532  0.7815008910741  0.6118856097296 1.0
C      1  0.6396428030390  0.4953068929526  0.2618201313147 1.0
C      1  0.3924451685597  0.4753431601735  0.7455819062894 1.0
C      1  0.3631251391204  0.5053699759665  0.2623902249973 1.0
C      1  0.7451172200133  0.3962461585328  0.4803877204610 1.0
C      1  0.2638904575337  0.3621013136261  0.4990705114146 1.0
C      1  0.2726076522929  0.6424099469116  0.5005875973303 1.0
C      1  0.5097621666634  0.2663367484069  0.3794656979863 1.0
C      1  0.4992161429312  0.2646600462247  0.6422739375440 1.0
C      1  0.4605782788511  0.7845489087525  0.3891867568775 1.0
C      1  0.6751652295407  0.7416436866336  0.6084849310481 1.0
C      1  0.7311426049412  0.6007172377467  0.6648909344530 1.0
C      1  0.5962527915385  0.6692728372927  0.7350177756198 1.0
C      1  0.6688510597737  0.2653564650255  0.4065544170552 1.0
C      1  0.3266541182536  0.7459620888170  0.3940053230550 1.0
C      1  0.3363931767120  0.2672985213728  0.5969641661705 1.0
C      1  0.7346205434819  0.3968870606203  0.3333181593130 1.0
C      1  0.2721342727468  0.6030316175614  0.3403221258020 1.0
C      1  0.2609050131296  0.3994860585470  0.6648309350878 1.0
C      1  0.6018695076639  0.3307406558158  0.2680504003784 1.0
C      1  0.4036924505296  0.6718126678041  0.2672412333070 1.0
C      1  0.3962193880466  0.3321228910620  0.7325087136387 1.0
C      1  0.6643371129679  0.6007494833617  0.7333684387271 1.0
C      1  0.7333711472301  0.6688880083644  0.5964807235557 1.0
C      1  0.6081803093664  0.7415302393642  0.6759046430327 1.0
C      1  0.6686750724397  0.3988392133139  0.2643947728762 1.0
C      1  0.3289821268952  0.3965623419906  0.7317800970865 1.0
C      1  0.3368175319126  0.6027468502912  0.2693580934448 1.0
C      1  0.7350103456907  0.3329317604103  0.4012817724786 1.0
C      1  0.2646838996185  0.3323011245755  0.5962739970119 1.0
C      1  0.2690112435349  0.6723789966188  0.4060366095116 1.0
C      1  0.6012857627796  0.2663574866237  0.3398404230795 1.0
C      1  0.4022774266523  0.2653941711536  0.6657954965940 1.0
C      1  0.3933052553219  0.7450621857758  0.3262174889381 1.0
C      1  0.7177539331291  0.5610014028890  0.2731032198181 1.0
C      1  0.5632410218978  0.2754524536731  0.7227986923752 1.0
C      1  0.4339925038844  0.7114377760730  0.7020018797889 1.0
C      1  0.2973994416089  0.7181950737590  0.5657309109725 1.0
C      1  0.7206325760410  0.2764330119457  0.5688617628106 1.0
C      1  0.5641692761069  0.7156853202598  0.2974676786221 1.0
C      1  0.7221351443483  0.4258512803948  0.7302077618087 1.0
C      1  0.2716724063271  0.5613031040125  0.7187426224207 1.0
C      1  0.2802671028109  0.4379309101963  0.2619244477227 1.0
C      1  0.4343815167660  0.2805072921237  0.2678826642583 1.0
C      1  0.7015537195343  0.7121969826469  0.4344243074118 1.0
C      1  0.2711449380522  0.2827458014738  0.4273681229435 1.0
C      1  0.4994794932515  0.5317715977888  0.5000863536001 1.0
END
