TITL C-114261-8675-15 -1.941 3375.00 -326.94965230 0 0 42 (Cs) n - 1
REM
REM Run started: at 2020.12.27 17:09:55 in /rds/project/t2_vol4/rds-t2-cs072/BORA/CARBON/AIRSS/Generating-Clusters/Str-Search/Higher-Symm/C10-100
REM VASP from code version vasp.5.4.4.18Apr17-6-g9f103f2a35 (build Oct 11 2019 16:45:47) gamma-only
REM
REM
REM
REM
REM ./C.cell (f39ce9773e2efe3fa5bbdf770a4156b8)
REM AIRSS Version 0.9.1 bugfix July 2018 build 013d7b7c2542+ Fri, 06 Jul 2018 19:26:36 +0100
REM compiler GCC version 4.8.5 20150623 (Red Hat 4.8.5-39)
REM options -cpp -mtune=generic -march=x86-64 -g -O0
REM seed -1350564853 -1725739364 1390752015 1622302942 642521732 -1455905063 1784141657 -633927278 -2101612623 1291689312 -1092754216 1671617232
REM
REM C.POTCAR (d86ddea03c3ceb6dc662c8ad6801f873)
REM 
CELL 1.54180   15.00000   15.00000   15.00000   90.00000   90.00000   90.00000
LATT -1
SFAC C  
C      1  0.2620554604743  0.5575731833698  0.4153164226421 1.0
C      1  0.5708474885066  0.2575698656966  0.4191204529783 1.0
C      1  0.6479402761466  0.6797344011221  0.4123942714552 1.0
C      1  0.2622513020432  0.4426573852032  0.4152807753680 1.0
C      1  0.5708345831949  0.7424247357390  0.4191177061571 1.0
C      1  0.6479540493990  0.3202611218412  0.4123947648158 1.0
C      1  0.4168906877889  0.7258017875390  0.5983698758727 1.0
C      1  0.3426173286305  0.3165312717440  0.5969304927703 1.0
C      1  0.7375628650403  0.4573567695363  0.5945291194198 1.0
C      1  0.4168937410088  0.2741928198167  0.5983730113546 1.0
C      1  0.3426080216543  0.6834680756162  0.5969282246378 1.0
C      1  0.7375599470498  0.5426428814504  0.5945269804555 1.0
C      1  0.5834087331328  0.5478577636527  0.6254607418572 1.0
C      1  0.4178188077662  0.5477412984188  0.6253695359527 1.0
C      1  0.5002355928095  0.4042598898077  0.6271573752634 1.0
C      1  0.5834091900003  0.4521408890393  0.6254605648444 1.0
C      1  0.4178193512395  0.4522582881989  0.6253727911668 1.0
C      1  0.5002353580762  0.5957391115649  0.6271574870210 1.0
C      1  0.3300163080742  0.4465465256889  0.4927321457141 1.0
C      1  0.6287285931952  0.3767056165893  0.4956961888707 1.0
C      1  0.5397904856637  0.6763812145032  0.4988688343723 1.0
C      1  0.3299609499956  0.5534479934190  0.4927254802494 1.0
C      1  0.6287186281581  0.6232899493085  0.4956940158038 1.0
C      1  0.5398032781133  0.3236103186331  0.4988723331059 1.0
C      1  0.5013959740057  0.6044108298575  0.4296271497108 1.0
C      1  0.4141440840360  0.4456715162652  0.4274619429928 1.0
C      1  0.5930761303459  0.4498817444891  0.4265766478688 1.0
C      1  0.5014209758687  0.3955704627045  0.4296351070070 1.0
C      1  0.4141081452130  0.5542688272218  0.4274619041626 1.0
C      1  0.5930662413867  0.5501126141134  0.4265768650027 1.0
C      1  0.6280616788209  0.6116877458347  0.3444824010794 1.0
C      1  0.3365644263922  0.5499295562007  0.3572306772269 1.0
C      1  0.5477513782751  0.3336817738820  0.3611694151152 1.0
C      1  0.6280732419116  0.3883082487318  0.3444824318551 1.0
C      1  0.3366686609881  0.4499741302630  0.3570957651978 1.0
C      1  0.5477379260814  0.6663110019249  0.3611670119415 1.0
C      1  0.4974765851421  0.6866481681510  0.5870132675721 1.0
C      1  0.3412596718875  0.4061267915333  0.5820943330290 1.0
C      1  0.6622472717702  0.4083387746504  0.5824886628546 1.0
C      1  0.4974789512142  0.3133515131515  0.5870109289597 1.0
C      1  0.3412633694527  0.5938727388128  0.5820897565931 1.0
C      1  0.6622444600462  0.5916604047138  0.5824867396821 1.0
END
