TITL C-119275-2306-2 -7.801 3375.00 -1374.22839666 0 0 167 (C1) n - 1
REM
REM Run started: at 2020.12.31 04:13:49 in /rds/project/t2_vol4/rds-t2-cs072/BORA/CARBON/AIRSS/Generating-Clusters/Str-Search/Higher-Symm/C100-200
REM VASP from code version vasp.5.4.4.18Apr17-6-g9f103f2a35 (build Oct 11 2019 16:45:47) gamma-only
REM
REM
REM
REM
REM ./C.cell (533062f00bc710175b3da973d35f2034)
REM AIRSS Version 0.9.1 bugfix July 2018 build 013d7b7c2542+ Fri, 06 Jul 2018 19:26:36 +0100
REM compiler GCC version 4.8.5 20150623 (Red Hat 4.8.5-39)
REM options -cpp -mtune=generic -march=x86-64 -g -O0
REM seed 1451902659 -1537228313 1469115466 853378764 109035698 -1851375975 -1079573841 1782985734 -356377321 1034982100 1564811663 -1372554303
REM
REM C.POTCAR (d86ddea03c3ceb6dc662c8ad6801f873)
REM 
CELL 1.54180   15.00000   15.00000   15.00000   90.00000   90.00000   90.00000
LATT -1
SFAC C  
C      1  0.6674785393939  0.7830244455888  0.4191522355318 1.0
C      1  0.4955693912239  0.7873334219204  0.6853525186594 1.0
C      1  0.3386936053163  0.7905543449662  0.4046220858900 1.0
C      1  0.3812634592246  0.2963004143979  0.9114029536202 1.0
C      1  0.1908558943381  0.2835496034962  0.1929038979270 1.0
C      1  0.9059362834207  0.2791367057799  0.3736438454671 1.0
C      1  0.4304432268994  0.6931069780543  0.4886538911630 1.0
C      1  0.5342951052297  0.6831933215102  0.4691120789295 1.0
C      1  0.4967593514540  0.6728583719666  0.5605788260750 1.0
C      1  0.2538423839170  0.4666151586550  0.6942412777294 1.0
C      1  0.4510785259017  0.4641984803946  0.1859439067663 1.0
C      1  0.8069988280757  0.4591103883640  0.6162461269829 1.0
C      1  0.2820960438580  0.3004545416892  0.2108548468762 1.0
C      1  0.8554369667319  0.2952876393127  0.4517871877163 1.0
C      1  0.3478829826449  0.3100022486524  0.8249485865040 1.0
C      1  0.2530355624294  0.6972244871535  0.1859081923290 1.0
C      1  0.9055914956043  0.6877574472720  0.4456220716599 1.0
C      1  0.3379218427407  0.7029232670749  0.8524337076530 1.0
C      1  0.3443892525727  0.6292691801234  0.9001609857291 1.0
C      1  0.2126271579885  0.6223559526018  0.1687851738877 1.0
C      1  0.9339797861670  0.6116069997753  0.4136477011748 1.0
C      1  0.5117684923299  0.4164061291500  0.1313573203051 1.0
C      1  0.8240168204406  0.4106641687704  0.6965747212354 1.0
C      1  0.1774364749048  0.4190137746460  0.6735786449879 1.0
C      1  0.5902142224006  0.6610416439377  0.7759405115721 1.0
C      1  0.2079824249774  0.6566599347034  0.4150393151344 1.0
C      1  0.6936604379511  0.6566426620936  0.3010907987226 1.0
C      1  0.5728281376904  0.8794096215091  0.5270692417970 1.0
C      1  0.4802920811269  0.8865039996637  0.5305704176760 1.0
C      1  0.5186300184327  0.8800646286203  0.4427557693351 1.0
C      1  0.2826122901822  0.6964582124909  0.6070339669549 1.0
C      1  0.4978504850275  0.6865984601193  0.2757518322071 1.0
C      1  0.7064571121301  0.6805742079090  0.6177498810467 1.0
C      1  0.3324702228362  0.5481910334186  0.3277268941216 1.0
C      1  0.7285614808831  0.5459002204666  0.4511143560058 1.0
C      1  0.4448160786536  0.5482652479443  0.7163169144394 1.0
C      1  0.6093812046469  0.2539235068690  0.2437032560040 1.0
C      1  0.6773456040748  0.2490710672810  0.7258186644372 1.0
C      1  0.2260718941136  0.2522650059592  0.5261238701677 1.0
C      1  0.1393389616329  0.3840306334241  0.5327771296587 1.0
C      1  0.6563448370347  0.3812104900651  0.1649300160818 1.0
C      1  0.7230108537756  0.3774614404316  0.8064212223286 1.0
C      1  0.7890732849426  0.4458612777502  0.7807876065979 1.0
C      1  0.1198626168122  0.4502567469951  0.5987240945773 1.0
C      1  0.6036071236636  0.4490858279995  0.1206962769445 1.0
C      1  0.4040397106416  0.3144846076498  0.4946168050794 1.0
C      1  0.5433111098061  0.3110415255363  0.4175521615377 1.0
C      1  0.5463937059628  0.3156873073220  0.5824579139878 1.0
C      1  0.8089941848198  0.3161995908300  0.6927163681081 1.0
C      1  0.1875848927343  0.3207592613394  0.6619232893459 1.0
C      1  0.5154529274441  0.3210339136719  0.1447429256466 1.0
C      1  0.6802786311794  0.5467290022505  0.8336862860099 1.0
C      1  0.1135224986486  0.5396989349495  0.4624149654939 1.0
C      1  0.7051478840791  0.5444791554377  0.1947507725570 1.0
C      1  0.8873777943445  0.3679043916756  0.3917582671431 1.0
C      1  0.3768587143746  0.3851994082533  0.8902937460060 1.0
C      1  0.2158446030812  0.3724015314943  0.2062865432573 1.0
C      1  0.7770669193128  0.6335451998166  0.6754908026171 1.0
C      1  0.2115580768007  0.6304068134925  0.6301644144524 1.0
C      1  0.5169826911379  0.6348631869800  0.1896775288714 1.0
C      1  0.6922711837850  0.5651681800832  0.3511741271026 1.0
C      1  0.5442022316896  0.5724009428953  0.7506289861367 1.0
C      1  0.2524580503837  0.5666404785993  0.3969196616841 1.0
C      1  0.7603831331991  0.4479820197518  0.4503035700691 1.0
C      1  0.4219228073404  0.4539917595386  0.7547983495954 1.0
C      1  0.3202025593945  0.4509306619122  0.2985896735426 1.0
C      1  0.4063402803357  0.7328227822059  0.2699570600893 1.0
C      1  0.7580957776881  0.7234873511356  0.5384394522147 1.0
C      1  0.3396253287736  0.7398016126000  0.6797255506320 1.0
C      1  0.8543229625487  0.4528816593521  0.4096460985915 1.0
C      1  0.3924550675841  0.4660422139034  0.8503178957095 1.0
C      1  0.2443415198530  0.4580434491285  0.2303330755682 1.0
C      1  0.5765177289783  0.4025899040810  0.5708795459040 1.0
C      1  0.3742490033524  0.3886874822315  0.5396479546943 1.0
C      1  0.5122562069341  0.3983284537115  0.3843209460364 1.0
C      1  0.4537445306524  0.5593656870233  0.2176898169299 1.0
C      1  0.7803409906203  0.5553333200233  0.6064464182984 1.0
C      1  0.2751306137772  0.5617157784267  0.6785561838662 1.0
C      1  0.1605331359754  0.3028854912217  0.5719161049479 1.0
C      1  0.6075425752771  0.2995889288371  0.1623429032862 1.0
C      1  0.7491674682820  0.2941672962649  0.7643416045661 1.0
C      1  0.3397068355306  0.4175349330487  0.7040719057480 1.0
C      1  0.3876391344019  0.4124623895507  0.2316042311485 1.0
C      1  0.7933026076952  0.4090001648742  0.5391825373301 1.0
C      1  0.6808408029618  0.6352067806273  0.2130734649595 1.0
C      1  0.6752008338639  0.6381210885063  0.8092706907379 1.0
C      1  0.1387933824131  0.6334130158839  0.4735628125630 1.0
C      1  0.4044442707984  0.7998685175639  0.3388304456754 1.0
C      1  0.7064226782025  0.7953551792972  0.5043958208210 1.0
C      1  0.4042075812153  0.8039293743145  0.6562039661588 1.0
C      1  0.6457887757620  0.5459670329840  0.5127670237139 1.0
C      1  0.4613939778542  0.5143350750858  0.6170569147310 1.0
C      1  0.4217252650431  0.5483588375211  0.3786939164285 1.0
C      1  0.3275312105243  0.3208179996552  0.7374829405328 1.0
C      1  0.3740814273701  0.3167684183213  0.2196757939819 1.0
C      1  0.8109632983021  0.3128015528646  0.5312458112138 1.0
C      1  0.7666822730154  0.6223960375632  0.7653381510084 1.0
C      1  0.1324464073051  0.6188403480694  0.5715283640248 1.0
C      1  0.6000343782657  0.6229765753649  0.1539982353547 1.0
C      1  0.5890500101752  0.4553046843274  0.3982167327848 1.0
C      1  0.5465687635997  0.4628614221179  0.6418679567400 1.0
C      1  0.3086785184993  0.4438348551255  0.4839463199243 1.0
C      1  0.3365099676357  0.6875942465783  0.2290881857145 1.0
C      1  0.8268916378076  0.6790123134021  0.4968061644706 1.0
C      1  0.3455396368846  0.6912862754844  0.7611813200734 1.0
C      1  0.4948329655478  0.5835045898616  0.3174567591394 1.0
C      1  0.6748289845797  0.5740613510406  0.6059324504381 1.0
C      1  0.2930292804605  0.5931576665602  0.5840304495490 1.0
C      1  0.2610252752654  0.7356326778977  0.4334518534054 1.0
C      1  0.6564609790623  0.7385775831314  0.3348273602053 1.0
C      1  0.5759563365993  0.7407729192567  0.7234098236617 1.0
C      1  0.3121574432635  0.5495271899884  0.4930416938540 1.0
C      1  0.5830934233424  0.5509648425277  0.3718360871483 1.0
C      1  0.6093669513588  0.5272923089753  0.6836076269806 1.0
C      1  0.8092634696929  0.5813236411924  0.5033207712653 1.0
C      1  0.3540013317506  0.5914633510642  0.7476583665737 1.0
C      1  0.3491926543357  0.5877167772782  0.2350188188576 1.0
C      1  0.4059911951566  0.4247991017277  0.6228070367556 1.0
C      1  0.4356286814365  0.4463664764231  0.3878467216436 1.0
C      1  0.6162098947699  0.4484240108726  0.4987207579730 1.0
C      1  0.1779014673080  0.4931057633974  0.4150516018129 1.0
C      1  0.7121342711398  0.4902934879330  0.2721047345494 1.0
C      1  0.6128191556516  0.4937103655513  0.7845813873716 1.0
C      1  0.4034864186716  0.5907832220283  0.4705036750387 1.0
C      1  0.5648366537942  0.5878744020737  0.4670502669148 1.0
C      1  0.4795927073746  0.5726648955918  0.5370431619874 1.0
C      1  0.6721945417344  0.4043661990632  0.4282071409916 1.0
C      1  0.4820154146239  0.3989013295143  0.6912986623567 1.0
C      1  0.3445153723374  0.4083928633304  0.3896392512902 1.0
C      1  0.2855023095278  0.2172601819535  0.5972159492275 1.0
C      1  0.5177389168890  0.2170812815618  0.2599736448082 1.0
C      1  0.7059031197881  0.2156912657575  0.6357866009430 1.0
C      1  0.3709815800440  0.7823599206903  0.4992204914616 1.0
C      1  0.5809222432397  0.7470399770385  0.4167587593220 1.0
C      1  0.5381781061140  0.7301016824091  0.6254058184254 1.0
C      1  0.6497350199535  0.1645932180671  0.5820348355862 1.0
C      1  0.3585075945734  0.1633171690723  0.5785108039081 1.0
C      1  0.5010214452031  0.1600740856762  0.3310888611955 1.0
C      1  0.6368959390348  0.5337037762692  0.1280714336522 1.0
C      1  0.7709175677981  0.5320266713176  0.8067321294895 1.0
C      1  0.0975750712347  0.5308261284800  0.5600781566537 1.0
C      1  0.5874875342838  0.1269667063156  0.5421355431577 1.0
C      1  0.4247420484759  0.1252261443458  0.5461969677726 1.0
C      1  0.5013276734269  0.1191171483096  0.4034543341580 1.0
C      1  0.4965804409602  0.8326331362127  0.3621623716276 1.0
C      1  0.6426963477943  0.8293001905658  0.5663612552427 1.0
C      1  0.4079474948224  0.8434054923117  0.5673858030837 1.0
C      1  0.2039585205260  0.4046670818281  0.4593716639663 1.0
C      1  0.6941094707942  0.3951582984000  0.2524914980770 1.0
C      1  0.6311114312429  0.3909631712160  0.7946275864864 1.0
C      1  0.3378567869482  0.3122524815318  0.4173897797383 1.0
C      1  0.6424554953190  0.3163308481722  0.3947367713687 1.0
C      1  0.5284864440717  0.3135213381912  0.6839776508623 1.0
C      1  0.6356294378412  0.7542108408443  0.6394767380604 1.0
C      1  0.2839558375884  0.7443587169026  0.5230917578615 1.0
C      1  0.5573996031424  0.7587323013473  0.3190017110645 1.0
C      1  0.6624557350576  0.3101935115602  0.3034756463076 1.0
C      1  0.6002836914893  0.3068815875568  0.7424683156992 1.0
C      1  0.2494306455457  0.3029480689960  0.4476209340111 1.0
C      1  0.4587429812993  0.2701071095607  0.2018138903252 1.0
C      1  0.7854120198347  0.2664979635595  0.6137754789005 1.0
C      1  0.2651379584612  0.2711203506818  0.6781107622459 1.0
C      1  0.8845652307864  0.5377628649633  0.4423398112188 1.0
C      1  0.3541369061726  0.5542700168650  0.8473527106038 1.0
C      1  0.2604309174567  0.5453874260956  0.1921892474671 1.0
C      1  0.4996171543082  0.2916282884737  0.4984278774326 1.0
C      1  0.5049661879781  0.1161944978926  0.4974746527954 1.0
END
