TITL C-113542-5098-22 -2.713 3375.00 -473.75801453 0 0 60 (C2h) n - 1
REM
REM Run started: at 2020.12.17 09:29:30 in /rds/project/t2_vol4/rds-t2-cs072/BORA/CARBON/AIRSS/Generating-Clusters/Str-Search/Higher-Symm/Only-C60
REM VASP from code version vasp.5.4.4.18Apr17-6-g9f103f2a35 (build Oct 11 2019 16:45:47) gamma-only
REM
REM
REM
REM
REM ./C.cell (5f7b7a0d59291d2373303da1f58b8d66)
REM AIRSS Version 0.9.1 bugfix July 2018 build 013d7b7c2542+ Fri, 06 Jul 2018 19:26:36 +0100
REM compiler GCC version 4.8.5 20150623 (Red Hat 4.8.5-39)
REM options -cpp -mtune=generic -march=x86-64 -g -O0
REM seed 403145901 -1630169731 -1494197546 -915066693 409332478 -1161859057 -1868651052 -2048085914 2088108020 1018699595 -533882791 -1606956228
REM
REM C.POTCAR (d86ddea03c3ceb6dc662c8ad6801f873)
REM 
CELL 1.54180   15.00000   15.00000   15.00000   90.00000   90.00000   90.00000
LATT -1
SFAC C  
C      1  0.2941474828276  0.4078616970451  0.6013477457474 1.0
C      1  0.7058525135890  0.5921383327369  0.6013476779319 1.0
C      1  0.2941474868473  0.4078616673868  0.3986523217347 1.0
C      1  0.7058525176863  0.5921383028496  0.3986522538956 1.0
C      1  0.4154706929467  0.6561257020756  0.4480523237489 1.0
C      1  0.5845293042502  0.3438742951584  0.4480523711104 1.0
C      1  0.4154706964769  0.6561257049997  0.5519476281880 1.0
C      1  0.5845293075714  0.3438742990842  0.5519476768246 1.0
C      1  0.5404278453249  0.4915492935616  0.7655549034491 1.0
C      1  0.4595721949635  0.5084507315014  0.7655548670532 1.0
C      1  0.5404278042360  0.4915492683374  0.2344451333737 1.0
C      1  0.4595721549823  0.5084507078561  0.2344450974972 1.0
C      1  0.3756499885748  0.5108515266568  0.2776580921128 1.0
C      1  0.6243499916695  0.4891484333974  0.2776580684675 1.0
C      1  0.3756500084262  0.5108515652189  0.7223419305968 1.0
C      1  0.6243500113032  0.4891484736337  0.7223419096451 1.0
C      1  0.6430291381784  0.5706953846835  0.6730604068618 1.0
C      1  0.3569708758068  0.4293046607776  0.6730604325741 1.0
C      1  0.6430291244350  0.5706953372196  0.3269395677667 1.0
C      1  0.3569708622837  0.4293046146998  0.3269395930197 1.0
C      1  0.6543859224003  0.4090421366738  0.3235363995390 1.0
C      1  0.3456140459659  0.5909578390348  0.3235363815819 1.0
C      1  0.6543859526955  0.4090421615176  0.6764636197398 1.0
C      1  0.3456140771415  0.5909578623696  0.6764635999416 1.0
C      1  0.6447189978433  0.6528579844024  0.5493648751360 1.0
C      1  0.3552810025518  0.3471420249201  0.5493649782799 1.0
C      1  0.6447189974956  0.6528579744043  0.4506350210776 1.0
C      1  0.3552810022513  0.3471420149836  0.4506351246667 1.0
C      1  0.2975862936920  0.5615181995467  0.4084537623444 1.0
C      1  0.7024136957259  0.4384817861012  0.4084537624359 1.0
C      1  0.2975863049094  0.5615182137848  0.5915462377203 1.0
C      1  0.7024137060423  0.4384818017436  0.5915462382942 1.0
C      1  0.5963949935862  0.3311999771051  0.6492527687724 1.0
C      1  0.4036050320916  0.6688000393461  0.6492527052356 1.0
C      1  0.5963949696571  0.3311999580363  0.3507472936812 1.0
C      1  0.4036050071168  0.6688000217954  0.3507472324870 1.0
C      1  0.5470707591039  0.5171335628546  0.4473194792728 1.0
C      1  0.4529292412715  0.4828664344553  0.4473194742869 1.0
C      1  0.5470707581766  0.5171335667989  0.5526805252424 1.0
C      1  0.4529292403595  0.4828664384873  0.5526805211654 1.0
C      1  0.3822740376381  0.5610018468968  0.4527586869757 1.0
C      1  0.6177259627648  0.4389981506837  0.4527587234194 1.0
C      1  0.3822740352946  0.5610018497607  0.5472412807841 1.0
C      1  0.6177259598136  0.4389981543709  0.5472413085837 1.0
C      1  0.2558511508462  0.4798536485448  0.5499127054948 1.0
C      1  0.7441488498673  0.5201463626106  0.5499126662440 1.0
C      1  0.2558511506111  0.4798536377745  0.4500873331077 1.0
C      1  0.7441488488990  0.5201463512849  0.4500872951545 1.0
C      1  0.4990274688540  0.6703261946642  0.3935024400736 1.0
C      1  0.5009725117444  0.3296737862203  0.3935025427017 1.0
C      1  0.4990274882003  0.6703262133182  0.6064974572945 1.0
C      1  0.5009725309217  0.3296738054427  0.6064975588357 1.0
C      1  0.4316515915813  0.2761786372000  0.4514967758169 1.0
C      1  0.5683484051378  0.7238213620682  0.4514966532539 1.0
C      1  0.4316515955760  0.2761786378081  0.5485033464508 1.0
C      1  0.5683484090215  0.7238213635063  0.5485032241761 1.0
C      1  0.5699832401107  0.5976747553546  0.3920373170449 1.0
C      1  0.4300167477760  0.4023252251403  0.3920373622157 1.0
C      1  0.5699832528285  0.5976747749915  0.6079626375641 1.0
C      1  0.4300167600551  0.4023252451170  0.6079626823079 1.0
END
