TITL C-112910-513-8 -7.143 3375.00 -1247.51887437 0 0 151 (C1) n - 1
REM
REM Run started: at 2020.12.27 23:47:20 in /rds/project/t2_vol4/rds-t2-cs072/BORA/CARBON/AIRSS/Generating-Clusters/Str-Search/Higher-Symm/C100-200
REM VASP from code version vasp.5.4.4.18Apr17-6-g9f103f2a35 (build Oct 11 2019 16:45:47) gamma-only
REM
REM
REM
REM
REM ./C.cell (533062f00bc710175b3da973d35f2034)
REM AIRSS Version 0.9.1 bugfix July 2018 build 013d7b7c2542+ Fri, 06 Jul 2018 19:26:36 +0100
REM compiler GCC version 4.8.5 20150623 (Red Hat 4.8.5-39)
REM options -cpp -mtune=generic -march=x86-64 -g -O0
REM seed 251832097 1335501946 1383650239 263256278 600954551 -835189240 -1200429833 -1221044950 -742136491 1249556508 -923556042 506235189
REM
REM C.POTCAR (d86ddea03c3ceb6dc662c8ad6801f873)
REM 
CELL 1.54180   15.00000   15.00000   15.00000   90.00000   90.00000   90.00000
LATT -1
SFAC C  
C      1  0.4103277694284  0.4840516464867  0.1206315336206 1.0
C      1  0.4580366594331  0.5666248440232  0.1323103090590 1.0
C      1  0.5481746330942  0.5381168722383  0.1405585044819 1.0
C      1  0.5594411579260  0.4433126185921  0.1399490812234 1.0
C      1  0.4710407771360  0.4111271843682  0.1231618968004 1.0
C      1  0.2095854696031  0.4885980503066  0.3253506156268 1.0
C      1  0.3807545214541  0.7909240183377  0.3322738092865 1.0
C      1  0.7197022531096  0.7019063915575  0.3327829798450 1.0
C      1  0.7701018858611  0.3564444101273  0.3388333596572 1.0
C      1  0.4476289489185  0.2323055716038  0.3494602773061 1.0
C      1  0.8272024417568  0.6889775856373  0.4731081065634 1.0
C      1  0.7942801183473  0.2582397173677  0.4829675089995 1.0
C      1  0.3384723293606  0.1651509853982  0.4649748853528 1.0
C      1  0.1239581677449  0.5681196242221  0.4583552284384 1.0
C      1  0.4368114474402  0.8767810222239  0.4732557964409 1.0
C      1  0.3145990667260  0.4421924266559  0.7311771248131 1.0
C      1  0.3938492419654  0.5958910510193  0.6892517617708 1.0
C      1  0.5745911005023  0.6173318487958  0.6981830804239 1.0
C      1  0.6646202027390  0.4635480881041  0.7218672966589 1.0
C      1  0.5544185048279  0.3155051133760  0.7447773410256 1.0
C      1  0.8358667908625  0.4096081787836  0.5809260472757 1.0
C      1  0.5013458278369  0.1634674011556  0.5991795335804 1.0
C      1  0.1556970171499  0.4132487628312  0.5670676674261 1.0
C      1  0.3073905360962  0.7893094321735  0.5811230306483 1.0
C      1  0.6972321589422  0.7719035903671  0.5812038004604 1.0
C      1  0.8640931544985  0.3099865996885  0.5188523539432 1.0
C      1  0.4050301260133  0.1221231735374  0.5143976576854 1.0
C      1  0.0893504905774  0.4897424985447  0.4968065341018 1.0
C      1  0.3530006151866  0.8816658340370  0.5164484517168 1.0
C      1  0.7998563094949  0.7680976892320  0.5159898631351 1.0
C      1  0.7238248686618  0.5084751109924  0.6567641199380 1.0
C      1  0.6083180763780  0.2446115276991  0.6995122535427 1.0
C      1  0.2820683408801  0.3739585921007  0.6621859468630 1.0
C      1  0.3152980565949  0.6336036055491  0.6460115167540 1.0
C      1  0.5530377893550  0.6906311969390  0.6379126670043 1.0
C      1  0.8763734964448  0.4066926928264  0.4928612949521 1.0
C      1  0.5024384677373  0.1387898450652  0.5060269593117 1.0
C      1  0.1245668015191  0.3972202000538  0.4775380935115 1.0
C      1  0.2752955121480  0.8217273515601  0.4957182020559 1.0
C      1  0.7141583562293  0.8145946839774  0.4945831900317 1.0
C      1  0.3231915999917  0.6931535751992  0.5673267177357 1.0
C      1  0.6162083036466  0.7167823994816  0.5644361375319 1.0
C      1  0.7538313606996  0.4638938079221  0.5715759903316 1.0
C      1  0.5815644964901  0.2073127224613  0.6200484264878 1.0
C      1  0.2522093218445  0.3965494683927  0.5683415023330 1.0
C      1  0.5618473821366  0.7773368210379  0.5018634490270 1.0
C      1  0.7845584411567  0.5353982056702  0.5050753028466 1.0
C      1  0.6300574485751  0.2337759570750  0.5331142692568 1.0
C      1  0.2676768233180  0.3196529246382  0.4971794524439 1.0
C      1  0.2515517722115  0.6614728771636  0.5017408465234 1.0
C      1  0.3676773998493  0.8549862535978  0.6113425649206 1.0
C      1  0.7825567028206  0.7454617489375  0.6115071270279 1.0
C      1  0.8411092904850  0.3221972807312  0.6144792763507 1.0
C      1  0.4039710338008  0.1537955670364  0.6066718115328 1.0
C      1  0.1121471463209  0.4925292343586  0.5935842109286 1.0
C      1  0.7715504951107  0.2787116079280  0.3934599228448 1.0
C      1  0.3693497302255  0.1991076883778  0.3809237747542 1.0
C      1  0.1676942168913  0.5580869745234  0.3741047995441 1.0
C      1  0.4381208926997  0.8435419179917  0.3835886860991 1.0
C      1  0.7940320007151  0.6740706542046  0.3840776016561 1.0
C      1  0.3296887235153  0.2173851906227  0.6139838906051 1.0
C      1  0.1642653666392  0.5739014407372  0.6143389191125 1.0
C      1  0.4625239118320  0.8303141748342  0.6256081331380 1.0
C      1  0.8018800302812  0.6500436633925  0.6291515179977 1.0
C      1  0.7591298533711  0.2749491904408  0.6372947359557 1.0
C      1  0.3387425522333  0.3712615698891  0.2172252600886 1.0
C      1  0.3714112842612  0.6448317326699  0.2430106924582 1.0
C      1  0.5428528236040  0.6570119745709  0.2404153137181 1.0
C      1  0.6587777994274  0.5131110641876  0.2468747095444 1.0
C      1  0.5935809158910  0.3558548851034  0.2690118305750 1.0
C      1  0.7668271522695  0.5883941237918  0.6988958409270 1.0
C      1  0.6923397359042  0.2946278270626  0.7113674705354 1.0
C      1  0.3184345304847  0.2902825745516  0.6776002930332 1.0
C      1  0.2401347383418  0.5871952636605  0.6780663533344 1.0
C      1  0.5023947183988  0.7634228511341  0.6859597303114 1.0
C      1  0.4471681225849  0.4371374844506  0.8453013081760 1.0
C      1  0.4346182295562  0.5340997580292  0.8393250415983 1.0
C      1  0.5216064866969  0.5753955195480  0.8452270447298 1.0
C      1  0.5885861333318  0.5067163701538  0.8546808921910 1.0
C      1  0.5443671817105  0.4205733815313  0.8605395320462 1.0
C      1  0.2969754957099  0.6548444072122  0.2947560696520 1.0
C      1  0.5559349952114  0.7343749084712  0.2977330969087 1.0
C      1  0.7376058613151  0.5220977188112  0.3011814752548 1.0
C      1  0.6096760740536  0.2807282480278  0.3168197954147 1.0
C      1  0.3096933043309  0.3518872068964  0.3009363082747 1.0
C      1  0.7566261350890  0.6132845415913  0.3242971911075 1.0
C      1  0.7053129002142  0.2857949784927  0.3306236392540 1.0
C      1  0.3665422501023  0.2956050706396  0.3645041602073 1.0
C      1  0.2368971770487  0.5819574837461  0.3165496164923 1.0
C      1  0.4775415512821  0.7840500959571  0.3222107764937 1.0
C      1  0.4669073214423  0.3190372702737  0.7031746805437 1.0
C      1  0.3797749623705  0.4919869796274  0.6731307604436 1.0
C      1  0.4854406799013  0.6077786874411  0.6431943713528 1.0
C      1  0.6253532111779  0.5361539815879  0.6596564728547 1.0
C      1  0.6244125472299  0.3736934913781  0.6903705218577 1.0
C      1  0.5444767800997  0.2309165858648  0.3737670165103 1.0
C      1  0.2323294544334  0.3971822796670  0.3428079120970 1.0
C      1  0.3000942953626  0.7395156790801  0.3471333144499 1.0
C      1  0.6408772907925  0.7541026283782  0.3463772652058 1.0
C      1  0.7887012616905  0.4498650556376  0.3480949756730 1.0
C      1  0.4939991876684  0.5253527631608  0.5894450176858 1.0
C      1  0.5747805144942  0.4865835844103  0.5966913691385 1.0
C      1  0.5747321501131  0.3867758593069  0.6020723806138 1.0
C      1  0.4726681785260  0.3611746061732  0.6085294991287 1.0
C      1  0.4341701307653  0.4555895100681  0.6136315761067 1.0
C      1  0.8255346490436  0.6190332134651  0.5411708061758 1.0
C      1  0.7302239222735  0.2378162112764  0.5529411871910 1.0
C      1  0.2896613241067  0.2233556698828  0.5267493570807 1.0
C      1  0.1651709538452  0.6205322762313  0.5310334192636 1.0
C      1  0.5006313816250  0.8457395713442  0.5394428163541 1.0
C      1  0.3615591529652  0.3392143830032  0.4593665403755 1.0
C      1  0.3014947786759  0.5724530205543  0.4819667633825 1.0
C      1  0.4970059960738  0.7054860629927  0.4752939171196 1.0
C      1  0.6934440564125  0.5668544715883  0.4770228886377 1.0
C      1  0.6098881359796  0.3426989990693  0.5182213193002 1.0
C      1  0.6375823219458  0.6382981335380  0.4970197205368 1.0
C      1  0.6811087495131  0.4152084670639  0.5045072825577 1.0
C      1  0.4484787453302  0.3281269325315  0.5147227233614 1.0
C      1  0.2985139095154  0.4802563818782  0.5039540767513 1.0
C      1  0.4088249026426  0.6811618916605  0.4963529454771 1.0
C      1  0.6514661605820  0.4840116764414  0.4504622552496 1.0
C      1  0.5241328982136  0.3496463132666  0.4618226594882 1.0
C      1  0.3585098907519  0.4346800623012  0.4486762557426 1.0
C      1  0.3839985489227  0.6042135168998  0.4488860517103 1.0
C      1  0.5564625273706  0.6364824840477  0.4482113928893 1.0
C      1  0.2755943687034  0.5356057150490  0.7595334155159 1.0
C      1  0.4932722495444  0.7335074915947  0.7749998299838 1.0
C      1  0.7325969705375  0.5906844439213  0.7878527090180 1.0
C      1  0.6883122875233  0.3275606274699  0.8169317242693 1.0
C      1  0.3863165895997  0.3034035578333  0.7471896664585 1.0
C      1  0.2634631798275  0.7476774581738  0.4363780354643 1.0
C      1  0.6419552483353  0.7971339956540  0.4352541411859 1.0
C      1  0.8312456246798  0.4673037339009  0.4359870677273 1.0
C      1  0.5689207133311  0.1841811932297  0.4571887608341 1.0
C      1  0.1957969632309  0.3614831866749  0.4269544312744 1.0
C      1  0.4241295673648  0.4639939107070  0.3916223800580 1.0
C      1  0.4384765974247  0.5557445724786  0.3925318713682 1.0
C      1  0.5309631029218  0.5692423367653  0.3937530148703 1.0
C      1  0.5746279662662  0.4856297041205  0.3980079044162 1.0
C      1  0.5101491475814  0.4179882055842  0.3962992665641 1.0
C      1  0.5956620099782  0.3433163993760  0.8320069888434 1.0
C      1  0.3820838377566  0.3891132600992  0.7940293542100 1.0
C      1  0.3642124034834  0.5742151952961  0.7860796501698 1.0
C      1  0.5380336624001  0.6503658282745  0.7871142523466 1.0
C      1  0.6741496991925  0.5154582340475  0.8069407366499 1.0
C      1  0.3283963142161  0.4247084460591  0.1352957991506 1.0
C      1  0.4497335612801  0.6359026439119  0.2016538312756 1.0
C      1  0.5984962639713  0.5828152722468  0.2099048700431 1.0
C      1  0.6169415681587  0.4254580283140  0.2161356142114 1.0
C      1  0.4009130445229  0.3417767142716  0.1457290020609 1.0
C      1  0.3463559026489  0.3554614193629  0.0640173790787 1.0
END
