TITL C-1287-6203-21 -6.96 3375.00 -1213.79915248 0 0 148 (C1) n - 1
REM
REM Run started: at 2020.12.30 14:01:10 in /gpfs/home/chem/mssmkc/CARBON/AIRSS/Generating-Clusters/Str-Search/Higher-Symm/C100-200
REM VASP from code version vasp.5.4.4.18Apr17-6-g9f103f2a35 (build Oct 11 2019 16:45:47) gamma-only
REM
REM
REM
REM
REM ./C.cell (533062f00bc710175b3da973d35f2034)
REM AIRSS Version 0.9.1 bugfix July 2018 build 013d7b7c2542+ Fri, 06 Jul 2018 19:26:36 +0100
REM compiler GCC version 6.3.0
REM options -cpp -iprefix /gpfs/warwick/csc/orac/software/Core/GCCcore/6.3.0/bin/../lib/gcc/x86_64-pc-linux-gnu/6.3.0/ -mtune=generic -march=x86-64 -g -O0
REM seed -1103074950 425212509 -354305239 -1720177797 1876289760 -1681133495 1927310600 1623992558 -1867627195 1934349016 -860879181 -1409506503
REM
REM C.POTCAR (d86ddea03c3ceb6dc662c8ad6801f873)
REM 
CELL 1.54180   15.00000   15.00000   15.00000   90.00000   90.00000   90.00000
LATT -1
SFAC C  
C      1  0.4000201422696  0.3278801224950  0.5981427421499 1.0
C      1  0.1897588622380  0.5945640706825  0.5042315052731 1.0
C      1  0.7621786978671  0.7486745113568  0.5257040431768 1.0
C      1  0.2911048715765  0.4426513328066  0.5586310606287 1.0
C      1  0.7715444543673  0.3023732498135  0.4887416165074 1.0
C      1  0.3215600360261  0.6566940779414  0.1812655746316 1.0
C      1  0.7778624691511  0.6649264540690  0.4778798279400 1.0
C      1  0.7289372862649  0.3961957422034  0.2860488281727 1.0
C      1  0.5004733600405  0.7068794088663  0.5478133608119 1.0
C      1  0.6669391708963  0.4243772586398  0.8208415223671 1.0
C      1  0.6157511338999  0.5364235404937  0.6165380302398 1.0
C      1  0.8113339698873  0.4463710132529  0.7256998193670 1.0
C      1  0.2194305361536  0.4269854521902  0.2800736435011 1.0
C      1  0.4841538503399  0.4359188248787  0.1336468225633 1.0
C      1  0.5868404001070  0.5419438770789  0.1983500704964 1.0
C      1  0.3505278325348  0.5508768924059  0.2907376763599 1.0
C      1  0.3243189892280  0.7469721264800  0.5550843929513 1.0
C      1  0.2030920957954  0.4662110105670  0.7075696373269 1.0
C      1  0.4089659269089  0.7234532815435  0.5038007812599 1.0
C      1  0.1621251377389  0.4452465879250  0.3606179975383 1.0
C      1  0.6129612863398  0.8464535633560  0.5170696269937 1.0
C      1  0.5341461304594  0.5711773346685  0.6436384814766 1.0
C      1  0.6993460854854  0.6997114738240  0.6846733092470 1.0
C      1  0.2334301911757  0.4944382356138  0.2208378115606 1.0
C      1  0.3582440111648  0.2320684461465  0.5870828490848 1.0
C      1  0.4978502427178  0.5156073070358  0.1813503780408 1.0
C      1  0.5510733169432  0.4039107371967  0.4316046840501 1.0
C      1  0.5615606646079  0.3771723906855  0.6182286921557 1.0
C      1  0.5605423765668  0.1852452388976  0.6239565929187 1.0
C      1  0.5863709452090  0.5918435995396  0.2868017629093 1.0
C      1  0.4392081321005  0.5692836493658  0.2485991497117 1.0
C      1  0.6550715469636  0.1914609114842  0.5222454607959 1.0
C      1  0.5002343892306  0.4569469355573  0.7504310917905 1.0
C      1  0.2618836668965  0.5132214758257  0.4949128514765 1.0
C      1  0.6365325733951  0.2717940731366  0.3951992422818 1.0
C      1  0.6311917224681  0.4418416264914  0.5829446780404 1.0
C      1  0.2885370033131  0.7515324436403  0.3212785980524 1.0
C      1  0.2540027828385  0.2859004874532  0.3722037414754 1.0
C      1  0.8437651326522  0.4568779951722  0.4729600876531 1.0
C      1  0.7693678752766  0.5906893607716  0.5541172060022 1.0
C      1  0.6065491038551  0.4544405021972  0.4856459341458 1.0
C      1  0.3868243771291  0.3465433129190  0.4434520848309 1.0
C      1  0.4660281427684  0.7022293816997  0.7284216146238 1.0
C      1  0.4845079342266  0.1957932363200  0.6823595476870 1.0
C      1  0.6411854973234  0.3383884008360  0.3190392527916 1.0
C      1  0.2057306399264  0.2757168219962  0.5149376440694 1.0
C      1  0.1701271471361  0.5899824857987  0.5983869713703 1.0
C      1  0.5641794711734  0.1817220996177  0.5128081167149 1.0
C      1  0.1302662415759  0.4146346559507  0.4987250270031 1.0
C      1  0.2825229902510  0.5682684420711  0.2164286561884 1.0
C      1  0.6997507724184  0.2452926772425  0.4564846787516 1.0
C      1  0.7543358858954  0.3261152574567  0.5815947067817 1.0
C      1  0.7733191904516  0.7341073360184  0.6230403162403 1.0
C      1  0.6283609916301  0.5125772732134  0.3413729721437 1.0
C      1  0.3414246426873  0.7340270784137  0.2432284636067 1.0
C      1  0.8398837763470  0.4743922908316  0.6526456042017 1.0
C      1  0.5145725112512  0.2506356551520  0.2568157798530 1.0
C      1  0.5407642411620  0.2397946201987  0.4261643924988 1.0
C      1  0.8161950915513  0.3665223592957  0.4372645620117 1.0
C      1  0.7450284466202  0.3971755405732  0.7702570737944 1.0
C      1  0.3255240979978  0.7333700482715  0.6432070902435 1.0
C      1  0.3587877985464  0.4833562404782  0.3611075437788 1.0
C      1  0.6153565804944  0.3436146799039  0.7826081182176 1.0
C      1  0.3906153892010  0.6319678322797  0.4402503685342 1.0
C      1  0.5490333307840  0.8994946659875  0.7421771554427 1.0
C      1  0.2436788692846  0.6741828026575  0.3602489080679 1.0
C      1  0.6766560144397  0.6683320292790  0.7792344061373 1.0
C      1  0.7799565101717  0.6450855442917  0.6397312836030 1.0
C      1  0.4559824735243  0.3451614265418  0.1396142621137 1.0
C      1  0.6903351182030  0.4067607539963  0.1883249477120 1.0
C      1  0.8065203991639  0.3988222392669  0.3487518431183 1.0
C      1  0.5550583854459  0.3883701837388  0.7143281019121 1.0
C      1  0.6731579275863  0.4996650023694  0.1940644940209 1.0
C      1  0.7118110750135  0.5030043396552  0.2885348399785 1.0
C      1  0.5173313408530  0.4715414143071  0.8471793534545 1.0
C      1  0.4792979906043  0.3791136378906  0.8647641154672 1.0
C      1  0.5015334186408  0.8017689575303  0.3771594709090 1.0
C      1  0.5807475105069  0.8284802714930  0.4194687080707 1.0
C      1  0.7048691254970  0.8108651005506  0.4830401180229 1.0
C      1  0.5180762675898  0.7498198317254  0.2941945168020 1.0
C      1  0.2894929847610  0.2318829979943  0.5168280989362 1.0
C      1  0.1713112370403  0.3572336838898  0.5621642642932 1.0
C      1  0.4852661492746  0.2202599680645  0.3435755595206 1.0
C      1  0.5289572170516  0.3044796822444  0.8187757410953 1.0
C      1  0.6212020836303  0.6098484990452  0.4837161328028 1.0
C      1  0.6155976415409  0.4992646191112  0.8445111925592 1.0
C      1  0.2142625864968  0.6811123737193  0.4524484402081 1.0
C      1  0.2564294653139  0.4245971643154  0.7744066142040 1.0
C      1  0.7525911643898  0.6478762461335  0.3845660335302 1.0
C      1  0.5226692902136  0.6679772473597  0.6472877985270 1.0
C      1  0.2653193004390  0.7561350381262  0.4803655088148 1.0
C      1  0.6106328304231  0.7168046330245  0.6380576625497 1.0
C      1  0.5401948570232  0.6474285213770  0.4766736244046 1.0
C      1  0.3770156292819  0.3663181109363  0.6874219511860 1.0
C      1  0.1305646783754  0.3741978111728  0.4120165922398 1.0
C      1  0.3819780512973  0.7187934963393  0.7043193306431 1.0
C      1  0.4053999292408  0.1764894225036  0.6362299017448 1.0
C      1  0.3146458868754  0.4350449007719  0.8495953860722 1.0
C      1  0.2902469688093  0.3436486201172  0.3000968600116 1.0
C      1  0.7762781115747  0.5613582221262  0.3459398922362 1.0
C      1  0.6352597337940  0.5929219528276  0.8265997256167 1.0
C      1  0.5386779030060  0.8266195153530  0.7831490704791 1.0
C      1  0.4434616573535  0.7371387460945  0.2342735510914 1.0
C      1  0.5443557883913  0.3667163590373  0.1136430513291 1.0
C      1  0.5957916711722  0.9231896445877  0.5780928152726 1.0
C      1  0.4127219784831  0.4557686233787  0.7009699848574 1.0
C      1  0.3198417104466  0.7926460916253  0.4032747155699 1.0
C      1  0.7100747644725  0.2749960394155  0.6516732867131 1.0
C      1  0.5959165484945  0.6798763360032  0.8219410810195 1.0
C      1  0.3908146880814  0.2252693700646  0.3447236301001 1.0
C      1  0.8261049504512  0.4913065887387  0.3859286201341 1.0
C      1  0.3557646576952  0.3945954313935  0.3623143964400 1.0
C      1  0.6710967160599  0.5936095746865  0.5636173866058 1.0
C      1  0.4802195357901  0.6173966170726  0.4083717545933 1.0
C      1  0.3350962005419  0.5437083352288  0.4374605000750 1.0
C      1  0.5754305949403  0.9229298607090  0.6593741863606 1.0
C      1  0.6063146613516  0.6918637670385  0.2951547154228 1.0
C      1  0.4945051781699  0.3407202076998  0.5667528566862 1.0
C      1  0.7314854211413  0.4198366027112  0.5791292668733 1.0
C      1  0.3601163126013  0.2736882750571  0.2642318544888 1.0
C      1  0.5804723189813  0.4203424922305  0.3425369419825 1.0
C      1  0.3313793825731  0.2511075082290  0.4230740307894 1.0
C      1  0.4651797482345  0.5173044945747  0.6724588272215 1.0
C      1  0.6532852333923  0.2046362094261  0.6197937880288 1.0
C      1  0.5213328504942  0.7375916241412  0.8022298898575 1.0
C      1  0.4938318425811  0.3312810878508  0.4656600293936 1.0
C      1  0.8052355207985  0.4908341814933  0.5593550899256 1.0
C      1  0.4341762446914  0.2836116933155  0.2074723736483 1.0
C      1  0.4701910753433  0.2527738965151  0.7624223861497 1.0
C      1  0.1696815527915  0.5000524708254  0.4545053292727 1.0
C      1  0.6686764347433  0.7936821840374  0.3977898766362 1.0
C      1  0.2827663275517  0.3542230017460  0.7093820839281 1.0
C      1  0.3831816047238  0.3057306929065  0.7687927195143 1.0
C      1  0.6365189714940  0.5278866349829  0.4366259133013 1.0
C      1  0.3848872347763  0.3719056675512  0.8443505725633 1.0
C      1  0.3574244501609  0.3858839144320  0.5305605679203 1.0
C      1  0.6821045771934  0.7133097766562  0.3473588615233 1.0
C      1  0.5776922926144  0.7701724411296  0.5702216722036 1.0
C      1  0.7016838983450  0.3187085634889  0.7355887400224 1.0
C      1  0.2279420661697  0.3988698324731  0.6331511200667 1.0
C      1  0.4977516624094  0.5895057473573  0.3241504078035 1.0
C      1  0.6228858519421  0.3422974912534  0.1632182934378 1.0
C      1  0.3205403142132  0.6132097463152  0.3670560757207 1.0
C      1  0.1787375090561  0.2911887998119  0.4201973639315 1.0
C      1  0.5983083935649  0.2920352271290  0.2388689116157 1.0
C      1  0.4120702799567  0.7922268227833  0.4256358077689 1.0
C      1  0.1746236048531  0.5472758846838  0.6694285419654 1.0
C      1  0.4162056028363  0.6528709639962  0.1998223546036 1.0
END
