TITL C-1287-6203-20 -6.055 3375.00 -1038.75466926 0 0 128 (D3) n - 1
REM
REM Run started: at 2020.12.30 13:07:00 in /gpfs/home/chem/mssmkc/CARBON/AIRSS/Generating-Clusters/Str-Search/Higher-Symm/C100-200
REM VASP from code version vasp.5.4.4.18Apr17-6-g9f103f2a35 (build Oct 11 2019 16:45:47) gamma-only
REM
REM
REM
REM
REM ./C.cell (533062f00bc710175b3da973d35f2034)
REM AIRSS Version 0.9.1 bugfix July 2018 build 013d7b7c2542+ Fri, 06 Jul 2018 19:26:36 +0100
REM compiler GCC version 6.3.0
REM options -cpp -iprefix /gpfs/warwick/csc/orac/software/Core/GCCcore/6.3.0/bin/../lib/gcc/x86_64-pc-linux-gnu/6.3.0/ -mtune=generic -march=x86-64 -g -O0
REM seed -2062317832 -305200579 1255410025 -1738926989 801755322 -324669985 1594728787 550062229 -1336103421 -186970453 -1252491223 -43839187
REM
REM C.POTCAR (d86ddea03c3ceb6dc662c8ad6801f873)
REM 
CELL 1.54180   15.00000   15.00000   15.00000   90.00000   90.00000   90.00000
LATT -1
SFAC C  
C      1  0.4216209933791  0.4041123787883  0.1849790243319 1.0
C      1  0.4570486505654  0.6154627385350  0.1848622182231 1.0
C      1  0.6225624643129  0.4795761138640  0.1851134764275 1.0
C      1  0.4219314302921  0.5956314031376  0.8170980628180 1.0
C      1  0.4571980735994  0.3842817255847  0.8171861144243 1.0
C      1  0.6227968237168  0.5201372387375  0.8168986474351 1.0
C      1  0.2261998079814  0.3498179058880  0.3077190830411 1.0
C      1  0.5069123421906  0.8117595847811  0.3071227826223 1.0
C      1  0.7678721185278  0.3387847466332  0.3071923536772 1.0
C      1  0.2265514063838  0.6501014562530  0.6946993160860 1.0
C      1  0.5070760245285  0.1879699259199  0.6950846970240 1.0
C      1  0.7679810073030  0.6610920774512  0.6948063911038 1.0
C      1  0.7345852933194  0.6234522482983  0.6066783942272 1.0
C      1  0.4903766405604  0.2354802044561  0.6069825498201 1.0
C      1  0.2764124203944  0.6407113981886  0.6067041274669 1.0
C      1  0.7344838388024  0.3763635312449  0.3953389041684 1.0
C      1  0.4902253334716  0.7642203641085  0.3951231371295 1.0
C      1  0.2762894543731  0.3591097881818  0.3955927915391 1.0
C      1  0.6986504316736  0.7155850722916  0.3850185236355 1.0
C      1  0.5876809729996  0.2203457019811  0.3849429819183 1.0
C      1  0.2147960374759  0.5635522194561  0.3850046401274 1.0
C      1  0.6988356234401  0.2841987453549  0.6171326662452 1.0
C      1  0.5876772955559  0.7795043881556  0.6171789132850 1.0
C      1  0.2149018397552  0.4362031707867  0.6175404898390 1.0
C      1  0.6886917570382  0.7384441121877  0.4817968987618 1.0
C      1  0.6126305461303  0.2174963013558  0.4817510068918 1.0
C      1  0.1997858668606  0.5436992134357  0.4818716826330 1.0
C      1  0.6887802415582  0.2613712536389  0.5203107136438 1.0
C      1  0.6125598524850  0.7822977899922  0.5203579815108 1.0
C      1  0.1998146433247  0.4560250727456  0.5206954600193 1.0
C      1  0.5329710887501  0.3811679962709  0.5341463929731 1.0
C      1  0.3816195358775  0.5313291885921  0.5340147124841 1.0
C      1  0.5871972146141  0.5874187038075  0.5340712084020 1.0
C      1  0.5327981347699  0.6185640607083  0.4679331749278 1.0
C      1  0.3816172531065  0.4684258503534  0.4680995202417 1.0
C      1  0.5871999934104  0.4124096756404  0.4679247049843 1.0
C      1  0.5150770465659  0.2400223779730  0.7606319870697 1.0
C      1  0.2680464168925  0.6176414288234  0.7602744451516 1.0
C      1  0.7184583983020  0.6421875751827  0.7601052976918 1.0
C      1  0.5148791336682  0.7596874981272  0.2415728280028 1.0
C      1  0.2677919925293  0.3821556904612  0.2421441758162 1.0
C      1  0.7182131734971  0.3576395692829  0.2420472088539 1.0
C      1  0.5232360104594  0.1962995464312  0.5213174643066 1.0
C      1  0.2259743588374  0.6317871281662  0.5211488775440 1.0
C      1  0.7520904087132  0.6717907821183  0.5212291756981 1.0
C      1  0.5231776745673  0.8034040991518  0.4807528989509 1.0
C      1  0.2260198600636  0.3679935069169  0.4812864124450 1.0
C      1  0.7520651685243  0.3280494246649  0.4808078334088 1.0
C      1  0.5626362137287  0.3352486714340  0.2517737017509 1.0
C      1  0.3268260748681  0.5279556582040  0.2517646409483 1.0
C      1  0.6117916386088  0.6362014441003  0.2518395150700 1.0
C      1  0.5628781430378  0.6644001135986  0.7501789337414 1.0
C      1  0.3270304043084  0.4718185098488  0.7504238586783 1.0
C      1  0.6119161606782  0.3635590932496  0.7502087761822 1.0
C      1  0.4686618727627  0.6482890714043  0.7521334957330 1.0
C      1  0.6448703435184  0.4532461912097  0.7520042946326 1.0
C      1  0.3881171208208  0.3983989115417  0.7523602780822 1.0
C      1  0.4684203258023  0.3514294353668  0.2498817366339 1.0
C      1  0.6447493894512  0.5464946696923  0.2499413526076 1.0
C      1  0.3880166039248  0.6012819065815  0.2497052747326 1.0
C      1  0.6316711028006  0.6287273927649  0.6087484825873 1.0
C      1  0.5464120745097  0.3220634010920  0.6088605909437 1.0
C      1  0.3237026312288  0.5491403261315  0.6087628292011 1.0
C      1  0.6316019388851  0.3710931994661  0.3931987463397 1.0
C      1  0.5462608860097  0.6776448280179  0.3932028957513 1.0
C      1  0.3235906112908  0.4506811087966  0.3934455158507 1.0
C      1  0.3953338042993  0.7277866044874  0.3902287523510 1.0
C      1  0.7503534543926  0.4768185937456  0.3906046929481 1.0
C      1  0.3550843678922  0.2949839095020  0.3907067971641 1.0
C      1  0.3954815483897  0.2718310885070  0.6118148492902 1.0
C      1  0.7503876039303  0.5230091261103  0.6112967871841 1.0
C      1  0.3552035286456  0.7048049754679  0.6113854417910 1.0
C      1  0.7953813910027  0.4757412755584  0.5444912355863 1.0
C      1  0.3320126956513  0.2566519041776  0.5450421549207 1.0
C      1  0.3736256922521  0.7669906325754  0.5443051209554 1.0
C      1  0.7953432865913  0.5241539336374  0.4573426951637 1.0
C      1  0.3318922459240  0.7429710418474  0.4570230476056 1.0
C      1  0.3736461812297  0.2327148959680  0.4577188105029 1.0
C      1  0.3314983836453  0.4402630258890  0.2096039135395 1.0
C      1  0.5334652654889  0.6753521503510  0.2093605988256 1.0
C      1  0.6359890775926  0.3833976799326  0.2095062029214 1.0
C      1  0.3318049180991  0.5594666477112  0.7926526627683 1.0
C      1  0.5336071633482  0.3244349181818  0.7927097935523 1.0
C      1  0.6362494224243  0.6163123811644  0.7925103296400 1.0
C      1  0.5945805455800  0.7016720636936  0.6631934900951 1.0
C      1  0.6280936484074  0.3173612853800  0.6631799877882 1.0
C      1  0.2792938602517  0.4806470658144  0.6632650562354 1.0
C      1  0.5944623857909  0.2981255269433  0.3388398836624 1.0
C      1  0.6279645208756  0.6823384715343  0.3389303931854 1.0
C      1  0.2791818737342  0.5192566233910  0.3390745377228 1.0
C      1  0.6704442094779  0.5119543474695  0.3418840956700 1.0
C      1  0.4256005645951  0.3465031656485  0.3418771591493 1.0
C      1  0.4049899302948  0.6408255645199  0.3417310801386 1.0
C      1  0.6705197788150  0.4878488870115  0.6600723283781 1.0
C      1  0.4257825521275  0.6533202273783  0.6601864092425 1.0
C      1  0.4050419251021  0.3588320242711  0.6603415185288 1.0
C      1  0.5905310228641  0.5302942733738  0.6184849769381 1.0
C      1  0.4818199367013  0.4068727525459  0.6185985953670 1.0
C      1  0.4293258338474  0.5628363198061  0.6183990223876 1.0
C      1  0.5904739255822  0.4694893228767  0.3835372080105 1.0
C      1  0.4817156433887  0.5928083016434  0.3835604016955 1.0
C      1  0.4292722400830  0.4369566102178  0.3837204894849 1.0
C      1  0.8354406762367  0.3364678314976  0.7064759544738 1.0
C      1  0.1896497792051  0.2927603666492  0.7070393924480 1.0
C      1  0.4754050178840  0.8736677891744  0.7056559761401 1.0
C      1  0.8353104060861  0.6642600515661  0.2954923156219 1.0
C      1  0.1883540361912  0.7069277262235  0.2956410459479 1.0
C      1  0.4759753196219  0.1256554052607  0.2964033293400 1.0
C      1  0.5555239561556  0.5050126718683  0.8799972964127 1.0
C      1  0.4776357446010  0.4503083874518  0.8800797640085 1.0
C      1  0.4689971963393  0.5452408545789  0.8802670439278 1.0
C      1  0.5552273421877  0.4947066914089  0.1220856101177 1.0
C      1  0.4773937971771  0.5494628050875  0.1219410225609 1.0
C      1  0.4687028891094  0.4545242920069  0.1218331351832 1.0
C      1  0.7934063773991  0.3779847211306  0.5471667575877 1.0
C      1  0.2486111863854  0.3073801825210  0.5477583755816 1.0
C      1  0.4591488195522  0.8140430171307  0.5469977233900 1.0
C      1  0.7933973568394  0.6219327332687  0.4547586652492 1.0
C      1  0.2484615952157  0.6923148237861  0.4545346325828 1.0
C      1  0.4592047723397  0.1857057426284  0.4550202857720 1.0
C      1  0.7866251700767  0.6698146311133  0.3688820767038 1.0
C      1  0.5037381848145  0.1672402290546  0.3691209897577 1.0
C      1  0.2099273259833  0.6626174123858  0.3688313928257 1.0
C      1  0.7866761928721  0.3302933204961  0.6331796852234 1.0
C      1  0.5036632618348  0.8324193559304  0.6329609236925 1.0
C      1  0.2104566820250  0.3371055165154  0.6336522473981 1.0
C      1  0.5004951589958  0.5000419332564  0.6426144795948 1.0
C      1  0.5004396951700  0.4997033830681  0.3593500895731 1.0
END
