TITL C-124067-8416-10 -1.65 3375.00 -263.67040467 0 0 34 (C1) n - 1
REM
REM Run started: at 2020.11.27 08:33:32 in /rds/project/t2_vol4/rds-t2-cs072/BORA/CARBON/AIRSS/Generating-Clusters/Str-Search/Higher-Symm/C10-100
REM VASP from code version vasp.5.4.4.18Apr17-6-g9f103f2a35 (build Oct 11 2019 16:45:47) gamma-only
REM
REM
REM
REM
REM ./C.cell (f39ce9773e2efe3fa5bbdf770a4156b8)
REM AIRSS Version 0.9.1 bugfix July 2018 build 013d7b7c2542+ Fri, 06 Jul 2018 19:26:36 +0100
REM compiler GCC version 4.8.5 20150623 (Red Hat 4.8.5-39)
REM options -cpp -mtune=generic -march=x86-64 -g -O0
REM seed -1775326104 707289310 -2026463046 -1739105849 -90876618 1470115957 1078029942 1633195707 70813283 94558692 -1099923570 358780262
REM
REM C.POTCAR (d86ddea03c3ceb6dc662c8ad6801f873)
REM 
CELL 1.54180   15.00000   15.00000   15.00000   90.00000   90.00000   90.00000
LATT -1
SFAC C  
C      1  0.7191190451612  0.5477973293341  0.5733753980986 1.0
C      1  0.6139122775803  0.6657308115538  0.5345871136340 1.0
C      1  0.5650498736842  0.5495377533325  0.6687805561269 1.0
C      1  0.3411310683516  0.5143452289860  0.4120628012005 1.0
C      1  0.6858539941342  0.5441263050584  0.4286142289776 1.0
C      1  0.3318676577555  0.4486116480681  0.5791317015050 1.0
C      1  0.5064740415364  0.6985814035095  0.4064683953700 1.0
C      1  0.6054167633487  0.3312421711943  0.5075392816032 1.0
C      1  0.4454065914167  0.3398102877699  0.5479871365092 1.0
C      1  0.4257643061322  0.5882770604839  0.2991794808941 1.0
C      1  0.5321457212783  0.4629504284966  0.3400332012023 1.0
C      1  0.4174884996094  0.3759537969315  0.7162629602214 1.0
C      1  0.6349535232725  0.4159242473749  0.5127535738896 1.0
C      1  0.4348026904005  0.6476116213831  0.3725220742395 1.0
C      1  0.3931342398907  0.4638294009821  0.6596045042058 1.0
C      1  0.3596607575456  0.3766500775973  0.5273509325675 1.0
C      1  0.6861313751732  0.6109278375238  0.5041848171655 1.0
C      1  0.3846079056931  0.5987961910701  0.4403900285431 1.0
C      1  0.5974699879329  0.6280179673654  0.6229678201280 1.0
C      1  0.4697640628023  0.3830371952957  0.6374045932579 1.0
C      1  0.5109417156860  0.4043453570792  0.4152179814583 1.0
C      1  0.5953647794773  0.5165277149554  0.3961072229469 1.0
C      1  0.3740846456885  0.5092583445026  0.3229057541208 1.0
C      1  0.6575284949616  0.5578080767483  0.6440539086974 1.0
C      1  0.5529040482671  0.7044970335884  0.4751619716912 1.0
C      1  0.3779589155252  0.4416275352239  0.7614424804033 1.0
C      1  0.7051275362847  0.4811726897533  0.5051689501648 1.0
C      1  0.5124617694504  0.3322949147627  0.4815572195835 1.0
C      1  0.4613763407879  0.4999938247879  0.2875081899699 1.0
C      1  0.3250882593016  0.4535751034415  0.4828946238552 1.0
C      1  0.4898338866170  0.5204552073323  0.5389453270152 1.0
C      1  0.4300250418162  0.5813901027101  0.5176215201441 1.0
C      1  0.5558295558423  0.4737163477709  0.4754013525433 1.0
C      1  0.4908681275947  0.4874992840324  0.6320537980663 1.0
END
