TITL C-120740-8314-7 -7.247 3375.00 -1268.83839973 0 0 155 (C1) n - 1
REM
REM Run started: at 2020.12.28 23:10:57 in /rds/project/t2_vol4/rds-t2-cs072/BORA/CARBON/AIRSS/Generating-Clusters/Str-Search/Higher-Symm/C100-200
REM VASP from code version vasp.5.4.4.18Apr17-6-g9f103f2a35 (build Oct 11 2019 16:45:47) gamma-only
REM
REM
REM
REM
REM ./C.cell (533062f00bc710175b3da973d35f2034)
REM AIRSS Version 0.9.1 bugfix July 2018 build 013d7b7c2542+ Fri, 06 Jul 2018 19:26:36 +0100
REM compiler GCC version 4.8.5 20150623 (Red Hat 4.8.5-39)
REM options -cpp -mtune=generic -march=x86-64 -g -O0
REM seed 1845860037 794250448 -539436335 -119724465 -1939658160 1993740826 1150468721 -527724780 -1529085434 -1009097333 914596245 -1552671128
REM
REM C.POTCAR (d86ddea03c3ceb6dc662c8ad6801f873)
REM 
CELL 1.54180   15.00000   15.00000   15.00000   90.00000   90.00000   90.00000
LATT -1
SFAC C  
C      1  0.1909916618187  0.3007340174862  0.6059785732096 1.0
C      1  0.2934502565322  0.2651575244611  0.4817431614771 1.0
C      1  0.2098464585906  0.3138763818119  0.5183330575069 1.0
C      1  0.3089549767140  0.6767921799389  0.7518497118513 1.0
C      1  0.6247829801642  0.4826219941420  0.8215145999493 1.0
C      1  0.3925449772268  0.5436343736814  0.8239705618947 1.0
C      1  0.6247003526936  0.3898123039913  0.6202965150001 1.0
C      1  0.4457725693346  0.4148354624004  0.3954289623683 1.0
C      1  0.6041700722591  0.5398698921803  0.6648398321757 1.0
C      1  0.1030297323371  0.5348279530841  0.3109868735616 1.0
C      1  0.2316419460885  0.3421408391142  0.6737314780853 1.0
C      1  0.5670140892068  0.4461889688788  0.6778720624404 1.0
C      1  0.5085184905204  0.4889163443511  0.1173899669058 1.0
C      1  0.8483837607821  0.4126034978397  0.4293426122875 1.0
C      1  0.5548938105939  0.3467239100001  0.2973543742735 1.0
C      1  0.5318560866445  0.7711360028593  0.6597397711291 1.0
C      1  0.3667786595454  0.4607320342851  0.3894936481060 1.0
C      1  0.8533263503716  0.5165657898199  0.5736807866609 1.0
C      1  0.7530372127310  0.6799023160918  0.4048700538299 1.0
C      1  0.8225141661375  0.3309467477871  0.4732165407902 1.0
C      1  0.6764371252017  0.4163612336409  0.7836910606663 1.0
C      1  0.4898439181881  0.5997760542924  0.3991545673509 1.0
C      1  0.3525435035293  0.3339568894609  0.4754418512078 1.0
C      1  0.2405083829766  0.5261970931961  0.7766320958815 1.0
C      1  0.4533031672010  0.1026609029448  0.3346496651543 1.0
C      1  0.6527087009656  0.2727883492897  0.7093950531823 1.0
C      1  0.8207156700586  0.4718193560361  0.6507041251505 1.0
C      1  0.5611458380999  0.8381744309470  0.4280281734082 1.0
C      1  0.5804903722951  0.2699743364372  0.3411448577993 1.0
C      1  0.7872471095772  0.3833783438133  0.6424296504483 1.0
C      1  0.6727589365594  0.4900804155336  0.3005428531750 1.0
C      1  0.5758458590451  0.5409104402444  0.1660169271039 1.0
C      1  0.6718989569678  0.8114901468788  0.5110871753807 1.0
C      1  0.7691172602013  0.6676850814334  0.5078887142841 1.0
C      1  0.6294373334798  0.6267102949433  0.1497001793978 1.0
C      1  0.3670578133871  0.5342495774620  0.3171541891116 1.0
C      1  0.6246249785732  0.3405424337420  0.2231630310309 1.0
C      1  0.7593077248044  0.5163917126280  0.3478470297278 1.0
C      1  0.3159260884763  0.8230401064739  0.4646934962568 1.0
C      1  0.5993675626606  0.6982687237125  0.2144506916777 1.0
C      1  0.4249283180517  0.1546267401293  0.4806613481890 1.0
C      1  0.3668915329051  0.4503444838190  0.8252257615865 1.0
C      1  0.5600061665685  0.2158633728479  0.4225695311957 1.0
C      1  0.2666168461536  0.5877670624793  0.2048501176946 1.0
C      1  0.5654003552161  0.5920784106875  0.4495778598409 1.0
C      1  0.3338523342363  0.1767220422808  0.4543471162299 1.0
C      1  0.5019267127921  0.6773512054393  0.8038421637935 1.0
C      1  0.1074357218551  0.4797386750138  0.3742388074540 1.0
C      1  0.3794911960438  0.7008724052555  0.5197178768088 1.0
C      1  0.3709013232347  0.1041885245892  0.3172903983419 1.0
C      1  0.5182398993857  0.4398631985636  0.3363525297117 1.0
C      1  0.2296284462445  0.6094671374056  0.5475998436570 1.0
C      1  0.4832611377572  0.1958222740654  0.5578706119125 1.0
C      1  0.4779278323771  0.5855868025916  0.8298930587730 1.0
C      1  0.7704734445911  0.3686933172029  0.2881183563354 1.0
C      1  0.3105135270131  0.4204287358435  0.4605991775869 1.0
C      1  0.2230107073583  0.6502267890505  0.2531081222679 1.0
C      1  0.5710321418230  0.3355847825992  0.5544963857594 1.0
C      1  0.3773353071575  0.5797039166769  0.6130448774694 1.0
C      1  0.6756015267418  0.7185177245961  0.2699771449056 1.0
C      1  0.3105134519311  0.5918008058752  0.7936120879029 1.0
C      1  0.6935988100622  0.7432040193946  0.3629501360162 1.0
C      1  0.4069222701986  0.3920750371969  0.6816725297499 1.0
C      1  0.3695349399632  0.2363802221776  0.7032070502685 1.0
C      1  0.6579040064135  0.2172551349560  0.6314547385106 1.0
C      1  0.6279452359042  0.7702671549696  0.6941795477069 1.0
C      1  0.6908222866802  0.5650285440914  0.6373398725797 1.0
C      1  0.5745658038571  0.8438858779589  0.5234670000997 1.0
C      1  0.4049151215091  0.6465148375857  0.4333186973058 1.0
C      1  0.6941075431842  0.6117903115327  0.5539611121109 1.0
C      1  0.3772291425696  0.7222320749357  0.6988441984471 1.0
C      1  0.7366780152998  0.2421342760449  0.5724587977381 1.0
C      1  0.3189504501874  0.3601088413024  0.2028177700013 1.0
C      1  0.4760198866957  0.4447956511946  0.6347512038749 1.0
C      1  0.5785543464482  0.3014153840761  0.7642789376747 1.0
C      1  0.4727037253287  0.7967488564752  0.4116618424285 1.0
C      1  0.5920769035560  0.1709492132493  0.5727006761257 1.0
C      1  0.4502819163321  0.3507962330592  0.4714303105780 1.0
C      1  0.4183950277244  0.7995546661794  0.5009643907370 1.0
C      1  0.6665904914148  0.2615227787633  0.1870842744813 1.0
C      1  0.7425457018447  0.7024483903304  0.7308042331079 1.0
C      1  0.4239094520956  0.2265517548301  0.6322378660598 1.0
C      1  0.2606096982093  0.3470545434012  0.7669797978275 1.0
C      1  0.3214820292748  0.5205755106933  0.2252648804788 1.0
C      1  0.2895057115873  0.4514753295802  0.5584248239425 1.0
C      1  0.6026448032167  0.4225750888501  0.5249068659707 1.0
C      1  0.6623638320510  0.2501161809532  0.2832143591739 1.0
C      1  0.7135490862067  0.7591061123574  0.6538889370700 1.0
C      1  0.7728578468538  0.6156412197645  0.3352891580443 1.0
C      1  0.5158401888204  0.2747260368913  0.4961541949098 1.0
C      1  0.1482742236682  0.6150785038238  0.3051906349710 1.0
C      1  0.2887045394931  0.2955425868572  0.2527279380334 1.0
C      1  0.4281525434681  0.7037951436417  0.2935583351702 1.0
C      1  0.1600241336790  0.4873122651337  0.4505726991341 1.0
C      1  0.1765293979202  0.5915706401166  0.6322285831097 1.0
C      1  0.2756601344751  0.4393595385127  0.8010822124239 1.0
C      1  0.2493744762202  0.8009475659012  0.5313632473050 1.0
C      1  0.6955756512515  0.4103276439860  0.2325390415208 1.0
C      1  0.3099000855799  0.1612959257621  0.3596579207329 1.0
C      1  0.2768925222384  0.2341147411111  0.3103935228352 1.0
C      1  0.8175334304691  0.4313904991775  0.3403734192853 1.0
C      1  0.5011739554730  0.6793424159023  0.6385528776881 1.0
C      1  0.2547622195726  0.7681537348443  0.6154412918954 1.0
C      1  0.4551953900215  0.5370301599643  0.6321529501268 1.0
C      1  0.6547738414672  0.7165806033899  0.7723611576004 1.0
C      1  0.5068264885068  0.3414408606952  0.7993059997072 1.0
C      1  0.7097901013732  0.5923499006965  0.1809435170802 1.0
C      1  0.4113679689487  0.3670508616632  0.7866868134898 1.0
C      1  0.5011949952844  0.8248732273283  0.5756774891297 1.0
C      1  0.6497139230143  0.8040166583692  0.4176533962084 1.0
C      1  0.4005500043417  0.7918512470115  0.3348139605682 1.0
C      1  0.4350276950093  0.4528229481200  0.1290889610624 1.0
C      1  0.8286491733711  0.4965551308960  0.4833200234755 1.0
C      1  0.3845042875637  0.3129791275967  0.6335500852882 1.0
C      1  0.7722194403004  0.5471043457570  0.6925362985597 1.0
C      1  0.8463161720732  0.5917305769538  0.5217688235093 1.0
C      1  0.4876973554734  0.1449582931673  0.4084011426644 1.0
C      1  0.3166887125272  0.3867230170695  0.6312269395582 1.0
C      1  0.2747467421288  0.7020483406180  0.5423543998271 1.0
C      1  0.7197596172179  0.2133651189527  0.4832487462998 1.0
C      1  0.7321978741263  0.7588342767332  0.5589646591720 1.0
C      1  0.7025924948681  0.3648058993381  0.6941070946764 1.0
C      1  0.2788267883301  0.7514625930082  0.7062906319968 1.0
C      1  0.1844187386806  0.5524572684010  0.7056255459202 1.0
C      1  0.6311678043947  0.1809323556747  0.4846362663349 1.0
C      1  0.5024292303451  0.4083602624368  0.5439465741165 1.0
C      1  0.4056420690185  0.6739188354482  0.6116421630905 1.0
C      1  0.7683213768707  0.2688334732535  0.4205862571537 1.0
C      1  0.5122486808168  0.5826086435455  0.2338725772357 1.0
C      1  0.7408736808154  0.6480411540741  0.2528448697991 1.0
C      1  0.4732342477562  0.5357974506594  0.3102526985944 1.0
C      1  0.6161062199075  0.6187934572448  0.5077642697294 1.0
C      1  0.5297119609939  0.5900626690205  0.6430597598627 1.0
C      1  0.7367995219697  0.4925977081072  0.4446489082378 1.0
C      1  0.6086279947613  0.4681752653979  0.3684971160035 1.0
C      1  0.3011692238765  0.5463435939106  0.5749368188974 1.0
C      1  0.5958128796723  0.6610215446051  0.8156767830064 1.0
C      1  0.7955965355039  0.3184806335410  0.5695774883446 1.0
C      1  0.2167633963054  0.4159814555360  0.4937542763968 1.0
C      1  0.5024778331700  0.6754112481329  0.2320802777910 1.0
C      1  0.5774907296011  0.5640270558157  0.8365221423467 1.0
C      1  0.4727400902543  0.6985087896320  0.3838036004051 1.0
C      1  0.3150352389998  0.7849084157154  0.3745466024355 1.0
C      1  0.4687811512889  0.7363498884726  0.7340517158765 1.0
C      1  0.7456817934182  0.2850632620343  0.3286792675776 1.0
C      1  0.1880776066163  0.6403547280819  0.3882921759659 1.0
C      1  0.3534738017803  0.6348192185381  0.3444402912318 1.0
C      1  0.5730700585114  0.4110885969497  0.7708761136015 1.0
C      1  0.7886708552192  0.6255276248804  0.7309024921317 1.0
C      1  0.3534384632448  0.4383301406620  0.1751411889375 1.0
C      1  0.1874927756671  0.5802257942400  0.4611372849031 1.0
C      1  0.6533246066644  0.4514892127104  0.4492416757278 1.0
C      1  0.6684681004735  0.5038886707329  0.2023166360268 1.0
C      1  0.2679604534696  0.6918726635000  0.3426923956722 1.0
C      1  0.3391090850096  0.2942623798240  0.7776685412048 1.0
END
