TITL C-12802-4528-7 -6.965 3375.00 -1196.97842563 0 0 147 (C1) n - 1
REM
REM Run started: at 2020.12.30 01:02:27 in /gpfs/home/chem/mssmkc/CARBON/AIRSS/Generating-Clusters/Str-Search/Higher-Symm/C100-200
REM VASP from code version vasp.5.4.4.18Apr17-6-g9f103f2a35 (build Oct 11 2019 16:45:47) gamma-only
REM
REM
REM
REM
REM ./C.cell (533062f00bc710175b3da973d35f2034)
REM AIRSS Version 0.9.1 bugfix July 2018 build 013d7b7c2542+ Fri, 06 Jul 2018 19:26:36 +0100
REM compiler GCC version 6.3.0
REM options -cpp -iprefix /gpfs/warwick/csc/orac/software/Core/GCCcore/6.3.0/bin/../lib/gcc/x86_64-pc-linux-gnu/6.3.0/ -mtune=generic -march=x86-64 -g -O0
REM seed 1994439402 535539905 1480421190 2124394181 936157462 -1350365735 165751152 114543180 -1740544237 462212205 -933640641 -932901945
REM
REM C.POTCAR (d86ddea03c3ceb6dc662c8ad6801f873)
REM 
CELL 1.54180   15.00000   15.00000   15.00000   90.00000   90.00000   90.00000
LATT -1
SFAC C  
C      1  0.8384993254782  0.4532111197938  0.4060101601495 1.0
C      1  0.5635291311975  0.1694689412447  0.4219107101755 1.0
C      1  0.1957501468737  0.3240836464796  0.3891026929558 1.0
C      1  0.2463558630871  0.7382900507159  0.4208114277315 1.0
C      1  0.6597841230851  0.7609786180150  0.4137218705022 1.0
C      1  0.8209845762086  0.5484385271718  0.5771268680453 1.0
C      1  0.5728730871534  0.8277388203325  0.5926615271203 1.0
C      1  0.2113238836714  0.6507445273493  0.5917841693298 1.0
C      1  0.2390490806867  0.2317006551955  0.5811387727803 1.0
C      1  0.6448904150327  0.2498186724518  0.5854278699076 1.0
C      1  0.3607429059166  0.5347069075442  0.4605083556307 1.0
C      1  0.4989077702419  0.5659858387486  0.3893063738179 1.0
C      1  0.6625733673279  0.5753906421222  0.3613529322849 1.0
C      1  0.6787783059657  0.4163222698197  0.3819496455791 1.0
C      1  0.4185737825086  0.2691005780070  0.4406590091949 1.0
C      1  0.3070155600633  0.4337712753959  0.5775059854029 1.0
C      1  0.4752719953924  0.4111160228167  0.5792277732833 1.0
C      1  0.6367523732900  0.4304309098323  0.6438265271033 1.0
C      1  0.6325067346450  0.5734893893501  0.5398425676443 1.0
C      1  0.4417053556168  0.7274232633103  0.5497155206899 1.0
C      1  0.4650569166495  0.2643364314596  0.7344854173999 1.0
C      1  0.1447710127168  0.4033484836843  0.7254073218682 1.0
C      1  0.3158240219632  0.8217023137008  0.7297027839995 1.0
C      1  0.7157035791560  0.7426885511795  0.7522863203318 1.0
C      1  0.8517352495024  0.3270460901222  0.6844869505174 1.0
C      1  0.4849982142539  0.7562329286234  0.2730601325617 1.0
C      1  0.1767292394509  0.5530559530260  0.2717697819137 1.0
C      1  0.3579864121565  0.1716758386031  0.2657626758895 1.0
C      1  0.7214944494864  0.2336405277460  0.2476669361308 1.0
C      1  0.8745152467067  0.6880341527447  0.3099295293297 1.0
C      1  0.6677414843179  0.7953485309455  0.5880961486131 1.0
C      1  0.8211460147345  0.4573868946948  0.5799694281249 1.0
C      1  0.5520607155527  0.2070488577935  0.5910025265864 1.0
C      1  0.1895756672754  0.3142839239400  0.5821582900149 1.0
C      1  0.2466430560556  0.7416142881236  0.5897023904265 1.0
C      1  0.6485502969430  0.2135376814775  0.4135163532288 1.0
C      1  0.8414651976800  0.5466007789658  0.4055714998097 1.0
C      1  0.5636064460071  0.7946415520389  0.4204753338559 1.0
C      1  0.2002128191069  0.6522135626396  0.4200826764013 1.0
C      1  0.2466028841202  0.2389375521345  0.3863428187286 1.0
C      1  0.1855986935447  0.6139028714510  0.5083660461937 1.0
C      1  0.5333152828758  0.8318906348788  0.5055304031337 1.0
C      1  0.7925320076623  0.5914728054496  0.4886771047208 1.0
C      1  0.6914667749190  0.2520390328536  0.4958372766333 1.0
C      1  0.2642339825815  0.2467979155398  0.4853019821984 1.0
C      1  0.2148778259814  0.3339287963051  0.4863408869034 1.0
C      1  0.5234087715949  0.1608888278490  0.5102063316044 1.0
C      1  0.7904268835866  0.4132538385133  0.4940783441404 1.0
C      1  0.7076290240721  0.7617432220856  0.5019601809215 1.0
C      1  0.2473021062163  0.7768382556633  0.5051625301521 1.0
C      1  0.5338127788834  0.5112753520957  0.1904999166028 1.0
C      1  0.4638726387041  0.4390565027707  0.1973528769397 1.0
C      1  0.3867820006022  0.4717184117375  0.2465238565277 1.0
C      1  0.4088744602151  0.5635622474436  0.2467093005106 1.0
C      1  0.4945863487597  0.5934950255487  0.2048799745612 1.0
C      1  0.5438388584275  0.5318864803714  0.7769885702908 1.0
C      1  0.4802198555170  0.5973016622103  0.8060100247617 1.0
C      1  0.3909729395579  0.5623842147496  0.7989761192650 1.0
C      1  0.4016688524641  0.4671932672940  0.7963863938115 1.0
C      1  0.5004850662181  0.4458248499446  0.7901847234707 1.0
C      1  0.5791852908609  0.5678995304812  0.6916090133080 1.0
C      1  0.4958551837264  0.3627872558464  0.7305862659514 1.0
C      1  0.4080598946444  0.4193973534572  0.7172228706723 1.0
C      1  0.3776799436443  0.6205828903341  0.7209456786881 1.0
C      1  0.4691854693463  0.6732134760324  0.7394110591151 1.0
C      1  0.5936509357360  0.4595293041776  0.2493603845381 1.0
C      1  0.5152040901815  0.6601224740283  0.2794248252357 1.0
C      1  0.4299365644697  0.6150063392465  0.3244824334188 1.0
C      1  0.3874949815482  0.4280644624511  0.3353390538762 1.0
C      1  0.5195772305368  0.3936584119350  0.2590412561302 1.0
C      1  0.1697398097405  0.4469682346162  0.2668604465243 1.0
C      1  0.3295898465135  0.7817566751465  0.2738779248633 1.0
C      1  0.8005394952036  0.7730783653295  0.3138770890438 1.0
C      1  0.8417317171830  0.3572903973992  0.2493701910360 1.0
C      1  0.4626595059982  0.1526904915652  0.2733353518031 1.0
C      1  0.1944872271821  0.5622801658529  0.7435775726485 1.0
C      1  0.3139478777703  0.2117831533288  0.7303647341582 1.0
C      1  0.7816631201337  0.2447117602737  0.6861081056657 1.0
C      1  0.8114123931377  0.6051843344426  0.7463063965058 1.0
C      1  0.4713494826919  0.7759043950359  0.7411693426100 1.0
C      1  0.8891228553157  0.7761735903180  0.2942801188852 1.0
C      1  0.7833613377270  0.2938568974657  0.2289511548478 1.0
C      1  0.4085874019236  0.1267000726114  0.2028753523738 1.0
C      1  0.1543073532748  0.5033877900882  0.1972049925977 1.0
C      1  0.4031186634147  0.7740308123989  0.2340617282592 1.0
C      1  0.8646511044151  0.2463347261216  0.7249450402957 1.0
C      1  0.7613442381324  0.6707260000019  0.7739797899457 1.0
C      1  0.3925037027733  0.8129656998524  0.7677628070464 1.0
C      1  0.1652019935689  0.4840957436116  0.7574844518688 1.0
C      1  0.3813651744421  0.2437654704902  0.7681124496201 1.0
C      1  0.3902288787074  0.4308895193691  0.6223727695841 1.0
C      1  0.3333355398873  0.5895604150924  0.6433149468923 1.0
C      1  0.5210991727506  0.6785066024310  0.5835404292735 1.0
C      1  0.6267732739026  0.5260216004584  0.6229571653053 1.0
C      1  0.5472839618096  0.3798552769698  0.6448655413896 1.0
C      1  0.4160164479939  0.6067705650222  0.4208874823950 1.0
C      1  0.3436487906735  0.4536717653170  0.4228141808698 1.0
C      1  0.4879563863706  0.3318138058744  0.4216269747308 1.0
C      1  0.6499135972677  0.4822532617784  0.3188835205006 1.0
C      1  0.5729729602551  0.6261487650021  0.3602816204658 1.0
C      1  0.2350150649531  0.5679064227474  0.6525155975253 1.0
C      1  0.4947589817223  0.8225880332891  0.6550786543154 1.0
C      1  0.8148249293401  0.6124381833323  0.6505812601776 1.0
C      1  0.7012186836229  0.2796993680444  0.6617777538727 1.0
C      1  0.3064336138165  0.1927150544888  0.6395592634715 1.0
C      1  0.1720776524520  0.4116349448982  0.3530236545647 1.0
C      1  0.4885599388417  0.1531310379655  0.3609736435287 1.0
C      1  0.8192531909122  0.3839084582809  0.3359382948697 1.0
C      1  0.7204964511584  0.7336511402859  0.3376810911533 1.0
C      1  0.3173666215687  0.7832681502184  0.3660149456440 1.0
C      1  0.4040722659163  0.1710587041943  0.4150085736844 1.0
C      1  0.1679922876123  0.4922629121695  0.4133806181063 1.0
C      1  0.4038240743993  0.8143586169158  0.4065916599604 1.0
C      1  0.7344749183524  0.6387582911908  0.3316108909152 1.0
C      1  0.7392964362825  0.3332824877784  0.3755167292603 1.0
C      1  0.4057954216420  0.8119540859977  0.5969651318846 1.0
C      1  0.2190100048938  0.4792883243797  0.5917791137049 1.0
C      1  0.3979656863471  0.1726419924613  0.6055285512159 1.0
C      1  0.7096032428660  0.3785137767523  0.6642244174417 1.0
C      1  0.7800958680367  0.6915543931822  0.6130437724249 1.0
C      1  0.3087394006602  0.3886209152760  0.4901934512548 1.0
C      1  0.3956593204543  0.6591740745228  0.5029142741398 1.0
C      1  0.5871960870343  0.6931135679357  0.4326596646499 1.0
C      1  0.7049046315158  0.4545334064024  0.4605985934510 1.0
C      1  0.5154879079254  0.3640257033787  0.5074292009882 1.0
C      1  0.3569204096414  0.5897216245271  0.5462902360556 1.0
C      1  0.3476907362127  0.2990636520380  0.4859727917146 1.0
C      1  0.5656691820498  0.3100708851323  0.5747264581031 1.0
C      1  0.6928402749841  0.5499595553868  0.4655218379370 1.0
C      1  0.5820350883776  0.6490041299796  0.5211200260085 1.0
C      1  0.1798083949098  0.5759903084628  0.3607532492452 1.0
C      1  0.4854804136021  0.8018430640190  0.3576506842818 1.0
C      1  0.8265777507234  0.6120798030574  0.3311514827100 1.0
C      1  0.6967380517598  0.2524010238600  0.3369250505844 1.0
C      1  0.3194454542492  0.1858455720581  0.3476948170620 1.0
C      1  0.1720936219982  0.3894048212314  0.6408857268951 1.0
C      1  0.4754713344435  0.2066622887365  0.6554753425418 1.0
C      1  0.8058579849693  0.4018557622042  0.6589235686646 1.0
C      1  0.7210452760881  0.7532801136179  0.6581282948352 1.0
C      1  0.3132072450608  0.7970197338618  0.6406868454798 1.0
C      1  0.1771403693711  0.5165509575447  0.5055808662958 1.0
C      1  0.4364341818343  0.8239216747491  0.5024224738845 1.0
C      1  0.7541992552930  0.3173183387417  0.4727804935064 1.0
C      1  0.4298435221634  0.1490607670213  0.5141277292165 1.0
C      1  0.7713767143719  0.6922838529784  0.5185240696145 1.0
C      1  0.4679025255498  0.3788618262771  0.3397881810609 1.0
C      1  0.5288978755038  0.6440425630757  0.6684856407528 1.0
END
