TITL C-12802-4528-6 -6.512 3375.00 -1098.49853135 0 0 134 (C1) n - 1
REM
REM Run started: at 2020.12.30 00:22:26 in /gpfs/home/chem/mssmkc/CARBON/AIRSS/Generating-Clusters/Str-Search/Higher-Symm/C100-200
REM VASP from code version vasp.5.4.4.18Apr17-6-g9f103f2a35 (build Oct 11 2019 16:45:47) gamma-only
REM
REM
REM
REM
REM ./C.cell (533062f00bc710175b3da973d35f2034)
REM AIRSS Version 0.9.1 bugfix July 2018 build 013d7b7c2542+ Fri, 06 Jul 2018 19:26:36 +0100
REM compiler GCC version 6.3.0
REM options -cpp -iprefix /gpfs/warwick/csc/orac/software/Core/GCCcore/6.3.0/bin/../lib/gcc/x86_64-pc-linux-gnu/6.3.0/ -mtune=generic -march=x86-64 -g -O0
REM seed -819757930 1490763762 1331597453 -1791871725 -1675423479 -1202711212 1052472888 888519217 -1720685290 5164724 -726213432 1763244911
REM
REM C.POTCAR (d86ddea03c3ceb6dc662c8ad6801f873)
REM 
CELL 1.54180   15.00000   15.00000   15.00000   90.00000   90.00000   90.00000
LATT -1
SFAC C  
C      1  0.3113227229769  0.2872487704973  0.1647146840252 1.0
C      1  0.4237184553483  0.7109371592738  0.2205551223510 1.0
C      1  0.1945682384883  0.6852625785386  0.5703523944105 1.0
C      1  0.4657213331081  0.4572757932711  0.3563280847750 1.0
C      1  0.6759429457182  0.5693108992652  0.2237634857117 1.0
C      1  0.0404196820271  0.3790466305677  0.5050586423118 1.0
C      1  0.4338379297602  0.5605731802875  0.2089043101945 1.0
C      1  0.5353246548832  0.4528567901730  0.4287089084316 1.0
C      1  0.8077421953367  0.2793384522249  0.5289850391929 1.0
C      1  0.8118516717791  0.4833539689204  0.4159391727142 1.0
C      1  0.6714189109341  0.7362564938634  0.6869411310750 1.0
C      1  0.5255212212112  0.8760209175265  0.5354194467725 1.0
C      1  0.1839152288897  0.3073785093806  0.5938624779556 1.0
C      1  0.6976975561712  0.2608184680847  0.6757776368628 1.0
C      1  0.7190674104076  0.6685052590965  0.6379811923747 1.0
C      1  0.3277327246447  0.6367721020534  0.8173816930376 1.0
C      1  0.6932433860898  0.2173316724738  0.4237252288122 1.0
C      1  0.1188151932903  0.4074729934980  0.4663253088523 1.0
C      1  0.3739718660878  0.1028463253231  0.3405329669652 1.0
C      1  0.3406519024769  0.5457225470716  0.2430316061863 1.0
C      1  0.7485811927457  0.4652898511963  0.7696447593417 1.0
C      1  0.3502011832237  0.6554596091276  0.4387593378821 1.0
C      1  0.4988616915508  0.4279513431265  0.2711033918880 1.0
C      1  0.5721630892982  0.1119553170094  0.4798838738703 1.0
C      1  0.2530320221581  0.3087147582148  0.3041120242034 1.0
C      1  0.6099208055998  0.8740491329578  0.4890266990757 1.0
C      1  0.3634604566457  0.8582970824733  0.4937643255949 1.0
C      1  0.2465917846171  0.3090161847398  0.6509317943040 1.0
C      1  0.7280939303571  0.6348386390178  0.8033315487684 1.0
C      1  0.6516433403941  0.4859682617527  0.5459058843399 1.0
C      1  0.3495099885187  0.7128868780355  0.7681381803375 1.0
C      1  0.5096757984777  0.3760579992994  0.8577679212188 1.0
C      1  0.2804094906610  0.4384007235413  0.0911740617076 1.0
C      1  0.5847231075140  0.3323712462007  0.5293545131641 1.0
C      1  0.6104075496322  0.5024748712022  0.4488056961924 1.0
C      1  0.3526798184594  0.1883483326392  0.3052222675405 1.0
C      1  0.3030697074677  0.8046193867436  0.5403732547027 1.0
C      1  0.5670573284986  0.6541415610936  0.3833675541364 1.0
C      1  0.4555949419555  0.2360458038779  0.4468516028969 1.0
C      1  0.5862492189704  0.7018990409106  0.2947502159885 1.0
C      1  0.1923965907019  0.5900245973508  0.5408417868990 1.0
C      1  0.3074959376224  0.2544240605809  0.2509918151647 1.0
C      1  0.1232040203524  0.3488234143608  0.5431919537279 1.0
C      1  0.5020735908156  0.7414203024878  0.2640272959879 1.0
C      1  0.6844320490434  0.7255809948938  0.3068594009556 1.0
C      1  0.7503152294968  0.3570802329118  0.3288492324918 1.0
C      1  0.5244332157009  0.5987064762116  0.7692246358785 1.0
C      1  0.6558439034391  0.8050342089237  0.5318410350120 1.0
C      1  0.6390916188968  0.4191779684442  0.2235700599498 1.0
C      1  0.2363746773144  0.7412034445739  0.5073242568153 1.0
C      1  0.6328664585016  0.5871419121954  0.4081750353702 1.0
C      1  0.7491983436030  0.5844008726544  0.6588730748360 1.0
C      1  0.5162496269838  0.6669658655087  0.5357882934652 1.0
C      1  0.5191598415638  0.3726623054553  0.4738203045835 1.0
C      1  0.6967335849924  0.6494357203961  0.5442191672659 1.0
C      1  0.6897385607068  0.2867548979291  0.3522211571646 1.0
C      1  0.4841902760391  0.3180409427510  0.7491778140899 1.0
C      1  0.5749635515083  0.2435162505611  0.5645753470662 1.0
C      1  0.7784763825309  0.5445032310321  0.3535956917279 1.0
C      1  0.3081076944892  0.5154411138482  0.3237773003541 1.0
C      1  0.2307475977721  0.6662688576011  0.6543833725737 1.0
C      1  0.3240638080795  0.3452552053362  0.6801623336137 1.0
C      1  0.5999595577471  0.6241996366012  0.5551923578364 1.0
C      1  0.8154000707206  0.3882306416972  0.3931684925986 1.0
C      1  0.1791603045300  0.4353434508461  0.3970516265669 1.0
C      1  0.7311954312476  0.2254273630636  0.5147722042403 1.0
C      1  0.5457028835943  0.2327580033848  0.3779946761794 1.0
C      1  0.8141166955479  0.4928857040281  0.5149159493926 1.0
C      1  0.3811352436806  0.4857603125851  0.3773818077055 1.0
C      1  0.5062698896547  0.3751958443482  0.6745931374699 1.0
C      1  0.7476566473931  0.5541925527076  0.7533209200839 1.0
C      1  0.5313522689065  0.4629012118385  0.8716255133915 1.0
C      1  0.3131591931696  0.5560452137821  0.8094753214179 1.0
C      1  0.3106976971554  0.4807556286844  0.7551886775127 1.0
C      1  0.2826315542948  0.5229657630777  0.1021327215631 1.0
C      1  0.4326011027771  0.3341646215825  0.4738589627110 1.0
C      1  0.4365933226315  0.7406712350806  0.7439410040131 1.0
C      1  0.6617808307097  0.6615598132938  0.2433104999821 1.0
C      1  0.7030643449413  0.7340144733037  0.4855341545236 1.0
C      1  0.4405407198708  0.8888688059456  0.5008536649450 1.0
C      1  0.7213847670633  0.6142939423375  0.3908773592922 1.0
C      1  0.5047683296837  0.0868156034430  0.5285044955884 1.0
C      1  0.5038036331541  0.6886306040680  0.4409488269201 1.0
C      1  0.3997375834583  0.6419292636949  0.1592109477731 1.0
C      1  0.4165537578331  0.7092347051067  0.4030567961762 1.0
C      1  0.3699701680753  0.4056458242910  0.5165822935016 1.0
C      1  0.3369036690627  0.7876502491361  0.6280893207427 1.0
C      1  0.6438731280184  0.3277613800259  0.7396168183978 1.0
C      1  0.4515913750235  0.4419832628290  0.6348356038746 1.0
C      1  0.6695494569042  0.2221592338838  0.5939359182234 1.0
C      1  0.6102287520256  0.1717171238940  0.4163565769060 1.0
C      1  0.4907282381886  0.5214429017452  0.6065237496620 1.0
C      1  0.2912714674241  0.4950058428799  0.6602508769591 1.0
C      1  0.5826385958051  0.5412149681317  0.5914842826474 1.0
C      1  0.6173532406726  0.7917752963048  0.6282448516514 1.0
C      1  0.7753727136327  0.3189107802190  0.6854343521616 1.0
C      1  0.7467169950916  0.5155211501552  0.2683213216305 1.0
C      1  0.4366377535042  0.7833034023351  0.6526015170716 1.0
C      1  0.6928542619531  0.7058795150975  0.7755841651770 1.0
C      1  0.2931790814455  0.7301112690279  0.6912400494981 1.0
C      1  0.2366341975483  0.5657978973449  0.6260908724278 1.0
C      1  0.2081849394153  0.5883121055013  0.4465089973593 1.0
C      1  0.8437004016809  0.3465056822152  0.4706317827145 1.0
C      1  0.3755773166799  0.5804668082158  0.5013972831551 1.0
C      1  0.4396384899426  0.5995689202840  0.5723488276321 1.0
C      1  0.3462744501326  0.3907584507779  0.7679414510035 1.0
C      1  0.5985191548801  0.3781885029948  0.6668701568927 1.0
C      1  0.5335696095141  0.5370501423982  0.8277485729735 1.0
C      1  0.2101159210149  0.3636820281416  0.3461812748279 1.0
C      1  0.7344265905714  0.3800955528564  0.7508354395998 1.0
C      1  0.6353235193862  0.3951800553215  0.5773429320414 1.0
C      1  0.2950854814265  0.3558114545682  0.1170286704140 1.0
C      1  0.5957498283930  0.2946858395848  0.3241144640834 1.0
C      1  0.4683874080116  0.6851010991494  0.6230228663013 1.0
C      1  0.6071204145757  0.5081044889463  0.1993427285713 1.0
C      1  0.7232784047405  0.7115905612340  0.3964425692269 1.0
C      1  0.2223304376556  0.5177683065847  0.3832432872283 1.0
C      1  0.5097851816330  0.5072024846861  0.2140942902993 1.0
C      1  0.5267297424643  0.8289610986155  0.6211093465605 1.0
C      1  0.8472582327246  0.4109678620759  0.5464456309952 1.0
C      1  0.8210445204252  0.3371518569464  0.6066497395938 1.0
C      1  0.4983716380790  0.6684922916595  0.7212308071203 1.0
C      1  0.3536529460981  0.4199786238644  0.6169628321379 1.0
C      1  0.5716671464583  0.3669225008392  0.2660024567655 1.0
C      1  0.3663568096804  0.4893282836400  0.4732311331983 1.0
C      1  0.5080712818186  0.1882816783902  0.5277526406288 1.0
C      1  0.4210352095833  0.3558282080858  0.8116825229278 1.0
C      1  0.4225130408688  0.7410298493238  0.3120838607933 1.0
C      1  0.7417411027517  0.5457466693602  0.5623578970401 1.0
C      1  0.2550232002544  0.6740691377947  0.4382245503416 1.0
C      1  0.5635420979353  0.3114146220269  0.8026280984501 1.0
C      1  0.7252315957889  0.4213860457413  0.2618123495207 1.0
C      1  0.3122730014155  0.5883288198015  0.1580560892134 1.0
C      1  0.3990838233301  0.1843367660132  0.3845241568129 1.0
END
