TITL C-1287-6203-16 -7.997 3375.00 -1457.41619516 0 0 177 (C1) n - 1
REM
REM Run started: at 2020.12.30 09:32:31 in /gpfs/home/chem/mssmkc/CARBON/AIRSS/Generating-Clusters/Str-Search/Higher-Symm/C100-200
REM VASP from code version vasp.5.4.4.18Apr17-6-g9f103f2a35 (build Oct 11 2019 16:45:47) gamma-only
REM
REM
REM
REM
REM ./C.cell (533062f00bc710175b3da973d35f2034)
REM AIRSS Version 0.9.1 bugfix July 2018 build 013d7b7c2542+ Fri, 06 Jul 2018 19:26:36 +0100
REM compiler GCC version 6.3.0
REM options -cpp -iprefix /gpfs/warwick/csc/orac/software/Core/GCCcore/6.3.0/bin/../lib/gcc/x86_64-pc-linux-gnu/6.3.0/ -mtune=generic -march=x86-64 -g -O0
REM seed -620877152 210275094 173920147 2011678788 -409870827 38886215 1323005228 1219746467 -908127818 -151454568 2003522325 449749464
REM
REM C.POTCAR (d86ddea03c3ceb6dc662c8ad6801f873)
REM 
CELL 1.54180   15.00000   15.00000   15.00000   90.00000   90.00000   90.00000
LATT -1
SFAC C  
C      1  0.3129076395542  0.5298117509221  0.4842934096496 1.0
C      1  0.3349356680398  0.4370089680406  0.5104865042143 1.0
C      1  0.4261063686729  0.3982400234800  0.5231519791974 1.0
C      1  0.4894961664231  0.3544498221008  0.4677023700685 1.0
C      1  0.5860857138852  0.3486423773791  0.4889517297777 1.0
C      1  0.6470678477804  0.4248514919002  0.5038265475198 1.0
C      1  0.6665168215481  0.5254682751259  0.4968932559057 1.0
C      1  0.6252457279156  0.6097123222967  0.4690311060415 1.0
C      1  0.5398408011442  0.6575342046116  0.4929456941375 1.0
C      1  0.4678640832113  0.6037519128993  0.4448486238732 1.0
C      1  0.3751885567306  0.6079009054188  0.4859869096516 1.0
C      1  0.3103541538191  0.6625623439513  0.2496086766452 1.0
C      1  0.2294085611317  0.5381535586490  0.2115878605301 1.0
C      1  0.2545508962966  0.3892769431316  0.1955197579613 1.0
C      1  0.3615528176511  0.2929569775587  0.2469446559686 1.0
C      1  0.4933137956115  0.2318558395939  0.2097937671249 1.0
C      1  0.6393574725926  0.2682230666866  0.2272086970542 1.0
C      1  0.7356236450663  0.3831653235404  0.2081675152897 1.0
C      1  0.7358446752363  0.5291554293682  0.2521283582576 1.0
C      1  0.6942673452238  0.6668713666945  0.2078897929081 1.0
C      1  0.5661243313835  0.7357319708258  0.2529928626510 1.0
C      1  0.4217819448608  0.7560066422934  0.2158110964334 1.0
C      1  0.8173582445890  0.3973960106857  0.3383091504818 1.0
C      1  0.7768436795047  0.6738563032897  0.3320680967364 1.0
C      1  0.7138889192106  0.7530202634137  0.3370823535505 1.0
C      1  0.4551245613097  0.8357228563232  0.3438556565810 1.0
C      1  0.3523010999986  0.8055173259840  0.3453127733792 1.0
C      1  0.1638694443738  0.6277888317191  0.3305155401424 1.0
C      1  0.1705183133169  0.4126896578111  0.3222303890361 1.0
C      1  0.2089361190697  0.3221849666336  0.3256080330611 1.0
C      1  0.4437156469571  0.1623227200837  0.3383314755603 1.0
C      1  0.5423416275906  0.1631466346194  0.3395810302899 1.0
C      1  0.7764544124433  0.3071903092039  0.3358287123070 1.0
C      1  0.6826941690675  0.2102376268621  0.6705007611601 1.0
C      1  0.8128677610861  0.3467807056583  0.6811569190250 1.0
C      1  0.8491628144815  0.5126417082190  0.6702798988976 1.0
C      1  0.7313001336875  0.7536712669904  0.6713059469036 1.0
C      1  0.6030247799634  0.8364461804906  0.6785168709461 1.0
C      1  0.4425656893277  0.8238063978351  0.6736067685256 1.0
C      1  0.2332677695229  0.6901649322264  0.6502742489041 1.0
C      1  0.1616711002708  0.5379070685197  0.6623958918193 1.0
C      1  0.2260202914975  0.2922819960053  0.6650580474191 1.0
C      1  0.3436860292882  0.1988626454380  0.6857302233495 1.0
C      1  0.5123823006935  0.1828784394659  0.6769465269628 1.0
C      1  0.7470464707378  0.7831155433849  0.5777947939702 1.0
C      1  0.6066121827679  0.8585585794296  0.5686782203685 1.0
C      1  0.4267465855945  0.8595764681256  0.5807894947128 1.0
C      1  0.2087664528356  0.7080996136906  0.5591983836350 1.0
C      1  0.1578643832819  0.5374057015154  0.5616828089148 1.0
C      1  0.1608502148021  0.3724143830169  0.5526895257999 1.0
C      1  0.3297189713949  0.1919454167828  0.5911535688654 1.0
C      1  0.4950586106551  0.1628049354416  0.5772062294319 1.0
C      1  0.6752485735175  0.2178592437110  0.5719515265415 1.0
C      1  0.8019258154969  0.3391852108754  0.5750653094793 1.0
C      1  0.8857208671515  0.5093089235965  0.5731754747197 1.0
C      1  0.1948735579373  0.4520462477435  0.2380343534441 1.0
C      1  0.2630586442052  0.3107515839995  0.2479061771578 1.0
C      1  0.4161767158020  0.2088810273888  0.2566643293343 1.0
C      1  0.5733827671578  0.2049858302335  0.2563749805211 1.0
C      1  0.7272544572237  0.2979703809122  0.2521058103661 1.0
C      1  0.7869695092233  0.4429167578361  0.2592595641951 1.0
C      1  0.7650888611675  0.6240334598766  0.2501734679185 1.0
C      1  0.6648012470138  0.7450089335504  0.2584519094120 1.0
C      1  0.4905609238242  0.8012237954560  0.2610355760150 1.0
C      1  0.3396401749965  0.7582109659303  0.2611773959371 1.0
C      1  0.2181092221299  0.6213934815800  0.2555574751631 1.0
C      1  0.3336726847602  0.5551918954362  0.6211851615101 1.0
C      1  0.3484193212401  0.4639309697998  0.6166216810446 1.0
C      1  0.4307095799426  0.4141270881094  0.6143464531010 1.0
C      1  0.4933349478006  0.3596953091324  0.6643537837683 1.0
C      1  0.5803915083253  0.3618267595021  0.6324018097200 1.0
C      1  0.6566794536174  0.4250244716640  0.6088184546749 1.0
C      1  0.6913366014922  0.5233658146282  0.5951989923721 1.0
C      1  0.6666963736341  0.6077325031250  0.6385859731989 1.0
C      1  0.5906999897699  0.6625780956537  0.6420602116815 1.0
C      1  0.5003691962173  0.6770033943051  0.5859630700058 1.0
C      1  0.3868835590653  0.6371866175431  0.5880597397759 1.0
C      1  0.7505410792715  0.2659015675894  0.5216141830735 1.0
C      1  0.8289970480240  0.4302191403095  0.5302468586963 1.0
C      1  0.7624025934315  0.6945072404311  0.5554979333211 1.0
C      1  0.6799426093762  0.8247905768324  0.5209892927384 1.0
C      1  0.5148479825656  0.8475292366655  0.5303999001970 1.0
C      1  0.2846829897017  0.7628929936560  0.5341290289109 1.0
C      1  0.1858354872954  0.6251932543629  0.5128879765527 1.0
C      1  0.1491204924839  0.4527812804580  0.5075546736955 1.0
C      1  0.2055579857393  0.2930000953719  0.5103318320919 1.0
C      1  0.4080036961744  0.1722997633679  0.5343355203076 1.0
C      1  0.5793304891886  0.1941099022272  0.5302247586962 1.0
C      1  0.3425226237572  0.4281759511991  0.3561007402346 1.0
C      1  0.3892341924498  0.3423987576843  0.3370810544406 1.0
C      1  0.4857828341030  0.3413226690425  0.3667196702933 1.0
C      1  0.5850008321446  0.3591937709197  0.3478482521644 1.0
C      1  0.6468297098629  0.4270001629405  0.3580353717799 1.0
C      1  0.6743794179494  0.5213551469512  0.3403040029486 1.0
C      1  0.5988523245925  0.5889062158156  0.3698799605105 1.0
C      1  0.5508491725890  0.6806249215448  0.3395850686989 1.0
C      1  0.4499725171433  0.6625639478210  0.3622064183685 1.0
C      1  0.3575642411744  0.6214936638700  0.3325282062145 1.0
C      1  0.3298101050717  0.5192470000230  0.3434111792996 1.0
C      1  0.7558681956362  0.6576724826292  0.6516624579883 1.0
C      1  0.6301446337169  0.7440870668635  0.6672826607606 1.0
C      1  0.4750363515292  0.7742850883609  0.5871905899835 1.0
C      1  0.3251751609630  0.7206057220959  0.6226828505631 1.0
C      1  0.2566747875278  0.5612150256545  0.5550564697862 1.0
C      1  0.1793762910503  0.3720161855316  0.6504673666136 1.0
C      1  0.2487751473546  0.2472026834958  0.5791544563229 1.0
C      1  0.4699213028658  0.2719852425349  0.6816830949272 1.0
C      1  0.5988106986473  0.2893705170226  0.5658609181774 1.0
C      1  0.7260615852254  0.3638656984524  0.6386890596194 1.0
C      1  0.7895170523877  0.5043859865825  0.5859989409285 1.0
C      1  0.3336576378675  0.2953874420016  0.8069045945157 1.0
C      1  0.4163106359362  0.2498335916887  0.8171172944402 1.0
C      1  0.6050309605717  0.2579343328338  0.7976769322390 1.0
C      1  0.6799033734084  0.3129817696728  0.7916720525878 1.0
C      1  0.7716035623717  0.4735199015322  0.7955156761291 1.0
C      1  0.7652386489837  0.5700056731939  0.7866830913281 1.0
C      1  0.6279860850549  0.7411299447505  0.8084084951351 1.0
C      1  0.5338224408759  0.7632466537342  0.8041875295639 1.0
C      1  0.3816755123698  0.7051839049805  0.7690817110441 1.0
C      1  0.2649474171393  0.5724094213742  0.7741217059309 1.0
C      1  0.2480948664316  0.4788285357267  0.7761348861580 1.0
C      1  0.6228075087544  0.6074403476954  0.1749044986386 1.0
C      1  0.5407442137553  0.6620011647273  0.1824787173497 1.0
C      1  0.4467053356847  0.6684996573134  0.1729720910559 1.0
C      1  0.3650574956094  0.6128454985434  0.1778384115186 1.0
C      1  0.3212416489273  0.5284421854989  0.1690840572551 1.0
C      1  0.3378520094586  0.4274682476540  0.1639621163805 1.0
C      1  0.4060686137158  0.3576312722133  0.1780846661609 1.0
C      1  0.4966086101026  0.3214267784119  0.1701025904133 1.0
C      1  0.5913858021447  0.3439159752910  0.1735023832319 1.0
C      1  0.6526668112877  0.4191383492593  0.1714486721113 1.0
C      1  0.6579280343036  0.5169792646667  0.1844527468705 1.0
C      1  0.3731909802534  0.7602319839281  0.7024769511719 1.0
C      1  0.2129278634551  0.6138436922641  0.7022406229193 1.0
C      1  0.1868790350579  0.4540367756594  0.7032285453243 1.0
C      1  0.2867203997102  0.2626081894011  0.7305422867126 1.0
C      1  0.4294645199567  0.1992482493460  0.7329146517129 1.0
C      1  0.6018300257510  0.1995641169024  0.7195177015348 1.0
C      1  0.7303676178298  0.2923245137799  0.7095772263376 1.0
C      1  0.8266864087905  0.4362433591183  0.7283662346753 1.0
C      1  0.8106429075676  0.5970720100104  0.7099316491720 1.0
C      1  0.6781370480027  0.7938032866668  0.7441969803626 1.0
C      1  0.5184448966693  0.8247649912646  0.7316063905394 1.0
C      1  0.7240278695903  0.2961792834967  0.4253477476546 1.0
C      1  0.7968200650059  0.4440828460337  0.4296184130537 1.0
C      1  0.7691829406817  0.6267934653986  0.4097400985021 1.0
C      1  0.6705656518945  0.7612870359173  0.4337503938288 1.0
C      1  0.5009848524164  0.8109621666432  0.4329242660236 1.0
C      1  0.3281871742622  0.7576894769001  0.4364541122218 1.0
C      1  0.2161557300905  0.6254683050567  0.4149408717122 1.0
C      1  0.1927261419780  0.4539160685697  0.4143950361500 1.0
C      1  0.2499859772794  0.3020591067289  0.4192138539754 1.0
C      1  0.4054723521303  0.2036030081678  0.4315182409204 1.0
C      1  0.5690802752843  0.2100531675878  0.4275643400225 1.0
C      1  0.2780318090653  0.3991732532241  0.4309917760703 1.0
C      1  0.3419853775343  0.2726791132058  0.4031715203154 1.0
C      1  0.4846771462922  0.2623388506182  0.4276507919442 1.0
C      1  0.6246273996425  0.2897461457564  0.4114469654121 1.0
C      1  0.7116875653054  0.3950608983245  0.4328909029851 1.0
C      1  0.7447137456395  0.5317657696609  0.4202526621706 1.0
C      1  0.7096431661479  0.6732828483473  0.4727276328161 1.0
C      1  0.5699721891408  0.7379342167591  0.4235334445983 1.0
C      1  0.4239248209678  0.7512162394032  0.4104167683172 1.0
C      1  0.3112114182388  0.6616762279602  0.4166065463398 1.0
C      1  0.2516349133569  0.5325674294811  0.4040551327148 1.0
C      1  0.3525146003092  0.5632344483103  0.8207777965056 1.0
C      1  0.3351580014085  0.4630294109827  0.8240887983417 1.0
C      1  0.3736401367275  0.3802878171474  0.8403810844644 1.0
C      1  0.4623821607428  0.3306706755325  0.8513482914010 1.0
C      1  0.5539969606089  0.3325392077925  0.8447337729217 1.0
C      1  0.6373825237070  0.3886802663256  0.8363882682192 1.0
C      1  0.6807630505948  0.4710444689728  0.8339676063075 1.0
C      1  0.6734972883205  0.5729522003500  0.8275799146177 1.0
C      1  0.6112543016978  0.6450348155396  0.8318587631825 1.0
C      1  0.5108360588202  0.6678776874575  0.8319057781380 1.0
C      1  0.4183107113196  0.6350753158561  0.8199050899364 1.0
C      1  0.5097739991942  0.5437205561566  0.3780645161332 1.0
END
