TITL C-124067-8416-24 -2.744 3375.00 -486.21999068 0 0 60 (C3) n - 1
REM
REM Run started: at 2020.11.27 11:47:09 in /rds/project/t2_vol4/rds-t2-cs072/BORA/CARBON/AIRSS/Generating-Clusters/Str-Search/Higher-Symm/C10-100
REM VASP from code version vasp.5.4.4.18Apr17-6-g9f103f2a35 (build Oct 11 2019 16:45:47) gamma-only
REM
REM
REM
REM
REM ./C.cell (f39ce9773e2efe3fa5bbdf770a4156b8)
REM AIRSS Version 0.9.1 bugfix July 2018 build 013d7b7c2542+ Fri, 06 Jul 2018 19:26:36 +0100
REM compiler GCC version 4.8.5 20150623 (Red Hat 4.8.5-39)
REM options -cpp -mtune=generic -march=x86-64 -g -O0
REM seed 235741637 596725749 -2059985383 1577068263 -417088381 -647989789 1123322649 898060338 754412936 1644379998 -697443362 -1781002361
REM
REM C.POTCAR (d86ddea03c3ceb6dc662c8ad6801f873)
REM 
CELL 1.54180   15.00000   15.00000   15.00000   90.00000   90.00000   90.00000
LATT -1
SFAC C  
C      1  0.4941001997357  0.5584890388062  0.4863180473555 1.0
C      1  0.5535480525582  0.4758875951845  0.4862963916928 1.0
C      1  0.4523389903001  0.4656634228661  0.4862656206013 1.0
C      1  0.5261867445565  0.3123813681124  0.6334758233888 1.0
C      1  0.3245908750246  0.5712068786908  0.6334686196767 1.0
C      1  0.6494226953822  0.6164754423999  0.6333881067157 1.0
C      1  0.5327393007631  0.5445720535254  0.7415645020265 1.0
C      1  0.5222651711149  0.4494844386339  0.7415301518028 1.0
C      1  0.4451443674836  0.5060370512100  0.7416204360393 1.0
C      1  0.2752387765921  0.4068980588523  0.4472238372111 1.0
C      1  0.5317605272834  0.7413406377750  0.4472620133060 1.0
C      1  0.6929863075982  0.3517759689963  0.4471755228193 1.0
C      1  0.3926134357588  0.7143650610784  0.4420315757657 1.0
C      1  0.7389892581372  0.4857412168306  0.4420132503117 1.0
C      1  0.3682010221183  0.2999242239362  0.4420650861861 1.0
C      1  0.3106882850135  0.5715444438291  0.4354363097729 1.0
C      1  0.6565140678528  0.6282858746633  0.4354130402003 1.0
C      1  0.5327908769396  0.3002201617559  0.4354128663939 1.0
C      1  0.6175182700976  0.3064269661867  0.4850333621712 1.0
C      1  0.2736522418847  0.4950725446078  0.4850369257528 1.0
C      1  0.6089408564829  0.6987574900331  0.4850278485802 1.0
C      1  0.4750436986960  0.5489344134560  0.2474092865292 1.0
C      1  0.5546259795517  0.4969516892978  0.2474122664266 1.0
C      1  0.4697401924931  0.4539759499050  0.2473561213096 1.0
C      1  0.4432735865073  0.3953027493778  0.3221562273172 1.0
C      1  0.4377375977648  0.6013718687744  0.3222120270921 1.0
C      1  0.6187876858772  0.5031901772535  0.3221689091839 1.0
C      1  0.7138599279112  0.5657196240120  0.4828711122731 1.0
C      1  0.4500610620971  0.2817662200700  0.4829301553989 1.0
C      1  0.3359963928682  0.6525341714613  0.4829084191412 1.0
C      1  0.4427649135466  0.3149143147236  0.5789425279375 1.0
C      1  0.3684609969586  0.6420929374337  0.5789101692738 1.0
C      1  0.6887529549191  0.5429568682342  0.5788647252320 1.0
C      1  0.6088838591387  0.6850504882238  0.5793722783096 1.0
C      1  0.6057870552307  0.3132185912167  0.5794019409431 1.0
C      1  0.2855517697787  0.5018164535998  0.5793574473173 1.0
C      1  0.7141059015405  0.4439226440229  0.5894708050391 1.0
C      1  0.3444104821109  0.3426759678941  0.5894869843658 1.0
C      1  0.4414348195326  0.7134823983635  0.5895500172193 1.0
C      1  0.5227520693062  0.6713522768949  0.6278490236983 1.0
C      1  0.6370480734708  0.3945584344382  0.6278941061398 1.0
C      1  0.3404899050293  0.4341353749417  0.6278156033940 1.0
C      1  0.5277675798980  0.3611240885814  0.3652904949726 1.0
C      1  0.3659370169304  0.5454043733096  0.3654156510984 1.0
C      1  0.6063300560984  0.5934693991905  0.3653209980995 1.0
C      1  0.3662853621416  0.5074435088237  0.6949065703870 1.0
C      1  0.5733935038522  0.6121289793318  0.6947979322978 1.0
C      1  0.5605600496334  0.3803785223418  0.6949119867645 1.0
C      1  0.5092472410374  0.6012426300539  0.3956969947450 1.0
C      1  0.5829158773644  0.4413391442974  0.3956359276411 1.0
C      1  0.4077416652661  0.4573508970507  0.3956840387021 1.0
C      1  0.7450122639519  0.4118452371880  0.5017435392230 1.0
C      1  0.3012009725358  0.3317800696831  0.5017699843951 1.0
C      1  0.4537196363046  0.7562758742126  0.5018120103471 1.0
C      1  0.4204796251391  0.4162089993410  0.5676099368063 1.0
C      1  0.4673814673336  0.6107941862541  0.5676978795925 1.0
C      1  0.6122298472112  0.4728150732143  0.5676999742459 1.0
C      1  0.6821044066249  0.4372237208291  0.3754667602251 1.0
C      1  0.3546366169287  0.3735308146227  0.3755593231741 1.0
C      1  0.4632576647413  0.6891710301056  0.3755802059710 1.0
END
