TITL C-125445-7182-4 -2.729 3375.00 -403.28951146 0 0 53 (C1) n - 1
REM
REM Run started: at 2020.11.28 05:41:41 in /rds/project/t2_vol4/rds-t2-cs072/BORA/CARBON/AIRSS/Generating-Clusters/Str-Search/Higher-Symm
REM VASP from code version vasp.5.4.4.18Apr17-6-g9f103f2a35 (build Oct 11 2019 16:45:47) gamma-only
REM
REM
REM
REM
REM ./C.cell (e5ae0387ce4d49c7c0135a1433873289)
REM AIRSS Version 0.9.1 bugfix July 2018 build 013d7b7c2542+ Fri, 06 Jul 2018 19:26:36 +0100
REM compiler GCC version 4.8.5 20150623 (Red Hat 4.8.5-39)
REM options -cpp -mtune=generic -march=x86-64 -g -O0
REM seed -554695180 862158749 2014105897 1146042654 -784017776 -425525033 -193940298 435435692 -594193380 1945022220 -950637282 931499158
REM
REM C.POTCAR (d86ddea03c3ceb6dc662c8ad6801f873)
REM 
CELL 1.54180   15.00000   15.00000   15.00000   90.00000   90.00000   90.00000
LATT -1
SFAC C  
C      1  0.5288929451524  0.3406144913150  0.6956032946350 1.0
C      1  0.6206344490738  0.3450800218737  0.6724427784447 1.0
C      1  0.7032283074843  0.3573673866954  0.4481353457151 1.0
C      1  0.6580586608319  0.3596962097620  0.3701260121397 1.0
C      1  0.5775493893753  0.3602575993915  0.3255638173430 1.0
C      1  0.4858301859535  0.3580526984735  0.3273412541724 1.0
C      1  0.4041325115860  0.3566832308936  0.3684807568382 1.0
C      1  0.3473035107863  0.3634112937526  0.4425283649377 1.0
C      1  0.3331042744680  0.3330998558373  0.5324285824830 1.0
C      1  0.3775005964213  0.3327858557419  0.6176845910092 1.0
C      1  0.4725220117309  0.3412942875101  0.6172165466082 1.0
C      1  0.4109585695673  0.6245053044589  0.3352552127923 1.0
C      1  0.3468673664322  0.6380019202764  0.4009753222815 1.0
C      1  0.3286053366143  0.6524368217445  0.4891067512706 1.0
C      1  0.3535577132520  0.6679272402524  0.5760558775486 1.0
C      1  0.4241709441572  0.6781069854522  0.6367598831567 1.0
C      1  0.5161016742543  0.6685646356590  0.5966685277221 1.0
C      1  0.5994735826850  0.6734502501737  0.6533829723734 1.0
C      1  0.6806106192762  0.6591706796216  0.6084128476614 1.0
C      1  0.7182238461742  0.6430556046397  0.5259720508270 1.0
C      1  0.7038633303664  0.6305359223829  0.4386287669838 1.0
C      1  0.4971253709678  0.6156332094159  0.3138885414378 1.0
C      1  0.8616150981784  0.6409855896703  0.6271244017157 1.0
C      1  0.7760724412889  0.6499824507131  0.6089672077322 1.0
C      1  0.6561105094792  0.6212245191719  0.3697034198854 1.0
C      1  0.5807475666125  0.6150351719450  0.3249241489441 1.0
C      1  0.2652753728832  0.6075700894487  0.2395814431680 1.0
C      1  0.3138630439392  0.6215913900223  0.3116087627875 1.0
C      1  0.1719597783089  0.6594052229050  0.5747336212200 1.0
C      1  0.2585640705364  0.6627436214016  0.5597690624897 1.0
C      1  0.4199529369816  0.6947452474661  0.7299008961392 1.0
C      1  0.5014304616161  0.6988291442086  0.7603526235743 1.0
C      1  0.5869682349515  0.6901399615045  0.7459214231758 1.0
C      1  0.4832418596759  0.3311095312415  0.7788446406932 1.0
C      1  0.6809626927942  0.3490757683661  0.6150098304867 1.0
C      1  0.7114532490702  0.3538231947630  0.5313022401517 1.0
C      1  0.7185726988933  0.3908125226437  0.2109011805097 1.0
C      1  0.6565752863733  0.3754401822058  0.2714768518830 1.0
C      1  0.3759942316939  0.4063390198246  0.1949559079970 1.0
C      1  0.4053817657785  0.3804871957039  0.2738167150310 1.0
C      1  0.2571179611499  0.4056620513530  0.4530708913659 1.0
C      1  0.2416851101899  0.3261526435073  0.5002337698277 1.0
C      1  0.3357908344410  0.3227269885178  0.7032287839254 1.0
C      1  0.3977495007711  0.3265192053674  0.7642774041790 1.0
C      1  0.5044709742196  0.8452178189051  0.4056905701645 1.0
C      1  0.5480460282085  0.1881172210415  0.4641675945475 1.0
C      1  0.5227396431941  0.6096464253987  0.5152146088644 1.0
C      1  0.5265194593359  0.4374806713174  0.5051288116434 1.0
C      1  0.5187053268671  0.7747435787799  0.4522021918742 1.0
C      1  0.5234993591316  0.6983954018768  0.4985756981163 1.0
C      1  0.5316216922030  0.2682474334864  0.4889784917088 1.0
C      1  0.5252712352978  0.5204361319969  0.5038651838813 1.0
C      1  0.5150249793246  0.3487626999224  0.5294038239359 1.0
END
