TITL C-120625-1066-2 -2.655 3375.00 -438.93057483 0 0 55 (C1) n - 1
REM
REM Run started: at 2020.11.25 04:18:31 in /rds/project/t2_vol4/rds-t2-cs072/BORA/CARBON/AIRSS/Generating-Clusters/Str-Search/Higher-Symm
REM VASP from code version vasp.5.4.4.18Apr17-6-g9f103f2a35 (build Oct 11 2019 16:45:47) gamma-only
REM
REM
REM
REM
REM ./C.cell (e5ae0387ce4d49c7c0135a1433873289)
REM AIRSS Version 0.9.1 bugfix July 2018 build 013d7b7c2542+ Fri, 06 Jul 2018 19:26:36 +0100
REM compiler GCC version 4.8.5 20150623 (Red Hat 4.8.5-39)
REM options -cpp -mtune=generic -march=x86-64 -g -O0
REM seed -1329659768 2114689869 890867817 -1030917714 1638980359 -1190010539 -1068067941 -1700889468 -1915071623 1571257168 1028733886 -545724510
REM
REM C.POTCAR (d86ddea03c3ceb6dc662c8ad6801f873)
REM 
CELL 1.54180   15.00000   15.00000   15.00000   90.00000   90.00000   90.00000
LATT -1
SFAC C  
C      1  0.3567849317374  0.3412290701093  0.6141273624879 1.0
C      1  0.4449207190111  0.4115524053872  0.2386655116800 1.0
C      1  0.6888437484207  0.3867333630255  0.4091991529249 1.0
C      1  0.5058062416414  0.2797515552139  0.6660986909851 1.0
C      1  0.4862308373896  0.7256753001255  0.4848060113541 1.0
C      1  0.4682826602256  0.5881714203121  0.7163908306791 1.0
C      1  0.4019221809460  0.3380873236996  0.3695188350182 1.0
C      1  0.6563528216702  0.6632101073994  0.5328124833691 1.0
C      1  0.4068254181097  0.5300598207663  0.5003012154229 1.0
C      1  0.3582166910718  0.3281790779113  0.4565556136705 1.0
C      1  0.3988374403986  0.6488447387920  0.6886180858742 1.0
C      1  0.3926703309305  0.7212524647163  0.5153518435282 1.0
C      1  0.5178373957362  0.3600119178503  0.2676519380311 1.0
C      1  0.5475434381554  0.7519662921433  0.4028810207202 1.0
C      1  0.4975785653282  0.5467246188790  0.4677799737670 1.0
C      1  0.5721317182444  0.5006736610291  0.6429477604665 1.0
C      1  0.3854533359905  0.5121338353189  0.5977391806168 1.0
C      1  0.3785919489461  0.4126698559451  0.3089808992176 1.0
C      1  0.6640002493435  0.6158912659592  0.6177417481624 1.0
C      1  0.6103205817665  0.3684697044100  0.5554176000902 1.0
C      1  0.6084281633086  0.5830327060689  0.6846706603285 1.0
C      1  0.4204236984357  0.2742591454972  0.6231712711407 1.0
C      1  0.3779920020797  0.2819346727554  0.5387462033837 1.0
C      1  0.5485150332613  0.3128458534735  0.4281617209208 1.0
C      1  0.5296245404946  0.4547634607773  0.2480912053266 1.0
C      1  0.3441308480189  0.4928228693936  0.4406171482938 1.0
C      1  0.5484104487315  0.4719018917834  0.4487380149878 1.0
C      1  0.3699231573403  0.6846091651615  0.5987809826247 1.0
C      1  0.6357478730019  0.4597835558156  0.5866173893816 1.0
C      1  0.5312435914665  0.3835049588302  0.4905900133357 1.0
C      1  0.6857928106345  0.5360372269249  0.5576547127294 1.0
C      1  0.3417887876859  0.7003254463767  0.4382136116316 1.0
C      1  0.5210348869405  0.6403282147362  0.4457134938016 1.0
C      1  0.5844777973433  0.3161460390564  0.6368095896421 1.0
C      1  0.5818022977801  0.7083601112190  0.4933854031982 1.0
C      1  0.5605596707078  0.4887869305315  0.7944776205458 1.0
C      1  0.3433502926631  0.6012556437370  0.6285330129750 1.0
C      1  0.3344950175764  0.4249228950605  0.5850536911772 1.0
C      1  0.4785894954019  0.6062450408854  0.2901304579225 1.0
C      1  0.5418966221436  0.6617845783922  0.3461925260714 1.0
C      1  0.6937528954354  0.5900128051782  0.4778503761140 1.0
C      1  0.6138211566834  0.5946741096729  0.3257809873660 1.0
C      1  0.3881036245789  0.5884919829001  0.3168493299743 1.0
C      1  0.6368436362832  0.3283896942468  0.4633367253866 1.0
C      1  0.5534582991214  0.5798651591164  0.7699074950523 1.0
C      1  0.5643959308329  0.4039689486321  0.7879937510433 1.0
C      1  0.5581344375378  0.3371210433919  0.7262833695639 1.0
C      1  0.4941113309738  0.3128462058489  0.3498908941169 1.0
C      1  0.4716116080559  0.5153750145497  0.6554536351993 1.0
C      1  0.5503139521067  0.5424380741542  0.2708181889125 1.0
C      1  0.6449504492975  0.4647850068772  0.4054469128976 1.0
C      1  0.3499207513162  0.6585959501715  0.3670733110880 1.0
C      1  0.3245596415097  0.4126901065675  0.4890769725421 1.0
C      1  0.6708389795851  0.5583424775531  0.3905967703861 1.0
C      1  0.3578048166025  0.4974650156699  0.3457063928721 1.0
END
