TITL C-126883-4775-2 -10.689 3375.00 -1860.14578704 0 0 228 (C1) n - 1
REM
REM Run started: at 2020.11.25 05:23:31 in /rds/project/t2_vol4/rds-t2-cs072/BORA/CARBON/AIRSS/Generating-Clusters/Str-Search/Higher-Symm
REM VASP from code version vasp.5.4.4.18Apr17-6-g9f103f2a35 (build Oct 11 2019 16:45:47) gamma-only
REM
REM
REM
REM
REM ./C.cell (e5ae0387ce4d49c7c0135a1433873289)
REM AIRSS Version 0.9.1 bugfix July 2018 build 013d7b7c2542+ Fri, 06 Jul 2018 19:26:36 +0100
REM compiler GCC version 4.8.5 20150623 (Red Hat 4.8.5-39)
REM options -cpp -mtune=generic -march=x86-64 -g -O0
REM seed 1652194122 871467356 1518658258 1511934822 -981415272 -670714363 -1812537352 990229666 -1457656046 -815059345 584760704 1131429661
REM
REM C.POTCAR (d86ddea03c3ceb6dc662c8ad6801f873)
REM 
CELL 1.54180   15.00000   15.00000   15.00000   90.00000   90.00000   90.00000
LATT -1
SFAC C  
C      1  0.2240047123859  0.4652013050372  0.1743903778170 1.0
C      1  0.6846948761164  0.2605791848077  0.1913252513949 1.0
C      1  0.6490313548929  0.7887832530125  0.2174042255998 1.0
C      1  0.3490436129639  0.5957264318984  0.6321804244069 1.0
C      1  0.4745887677725  0.3338411864068  0.6559427728398 1.0
C      1  0.6531420239131  0.5726369228677  0.6520893734781 1.0
C      1  0.5772815097930  0.2878123358403  0.0983091028153 1.0
C      1  0.6937030081327  0.6635278326881  0.1445865368652 1.0
C      1  0.3188772149102  0.5331637559351  0.0807438742736 1.0
C      1  0.7393514042643  0.4199399680585  0.3411726235270 1.0
C      1  0.4713889505829  0.8274149959066  0.2670535609000 1.0
C      1  0.2776272568157  0.2960425955594  0.2650349157855 1.0
C      1  0.8677313254882  0.5524283264644  0.4902649248663 1.0
C      1  0.2843736678094  0.7976959044495  0.4601328803677 1.0
C      1  0.3385890281472  0.1730687739117  0.4832054045410 1.0
C      1  0.6548516289879  0.4826314379344  0.6169717181481 1.0
C      1  0.4272346681044  0.6401699748795  0.5907131766585 1.0
C      1  0.3969659859843  0.3733189140630  0.6115479832234 1.0
C      1  0.6163220773979  0.3669522981777  0.8590533215275 1.0
C      1  0.5346733705043  0.6819159129762  0.8324261736645 1.0
C      1  0.2973989721935  0.4717858599627  0.8425802596269 1.0
C      1  0.3528611050792  0.5702899514861  0.7248318886564 1.0
C      1  0.5015858272024  0.3669755791676  0.7405456090465 1.0
C      1  0.6073397958693  0.5852587536217  0.7363738444388 1.0
C      1  0.3783241805503  0.6250364335016  0.7936194187770 1.0
C      1  0.4366570304826  0.3704287855516  0.8082760288365 1.0
C      1  0.6398158036219  0.5393365066248  0.8108786577716 1.0
C      1  0.4589187969747  0.6545178838681  0.9197135615047 1.0
C      1  0.3662011766715  0.4209331875295  0.9564770584945 1.0
C      1  0.6066872353919  0.4539465969992  0.9311834150531 1.0
C      1  0.7821553062113  0.6376510587747  0.8161761655889 1.0
C      1  0.2379654684860  0.6974439034686  0.7998666889586 1.0
C      1  0.4729331446297  0.2122865651194  0.8371162663380 1.0
C      1  0.5153412443477  0.1889587422081  0.7624913400571 1.0
C      1  0.7826477524468  0.6953629627548  0.7450850346351 1.0
C      1  0.2015091898722  0.6474927712980  0.7334125847275 1.0
C      1  0.2373093980736  0.8143652518828  0.5354682664028 1.0
C      1  0.3791039539101  0.1140301278186  0.5583684532737 1.0
C      1  0.9249572837307  0.5500083842744  0.5711092791779 1.0
C      1  0.2920238408817  0.4547876995926  0.5030253943431 1.0
C      1  0.6453130416790  0.3489317489677  0.5051605106388 1.0
C      1  0.5738579210007  0.6899085671066  0.5129907656628 1.0
C      1  0.1384685943524  0.4432635459077  0.4280860797587 1.0
C      1  0.6926069682987  0.1821120293267  0.5032267777736 1.0
C      1  0.6877626419966  0.8220549322258  0.4708852178580 1.0
C      1  0.3539028615023  0.5120353327787  0.9066244262071 1.0
C      1  0.5478391344393  0.3787252152820  0.9263079651840 1.0
C      1  0.5500880421090  0.6227031047030  0.9078235364119 1.0
C      1  0.4909418372103  0.6921232384295  0.6632545294592 1.0
C      1  0.3134449450440  0.4056486843856  0.6708700934729 1.0
C      1  0.6652760453730  0.4022819023110  0.6833908450946 1.0
C      1  0.6684436443331  0.4193973664129  0.2653634875966 1.0
C      1  0.5118675751794  0.6120377875175  0.2183211167842 1.0
C      1  0.3531981783765  0.3700343630634  0.2262197887637 1.0
C      1  0.5989623823907  0.3520720212261  0.7613372316830 1.0
C      1  0.5366312271946  0.6471600921432  0.7441448332727 1.0
C      1  0.2934475420108  0.4924383311557  0.7463351319253 1.0
C      1  0.6819202209784  0.4184773430779  0.4232085932556 1.0
C      1  0.4501511976338  0.6803061830567  0.3551213737258 1.0
C      1  0.3994061297271  0.3220479335597  0.3618793478373 1.0
C      1  0.6851476854074  0.5069679538864  0.4637444133136 1.0
C      1  0.3922615149431  0.6419197597461  0.4246694350577 1.0
C      1  0.4179536337861  0.3275894897659  0.4570589519236 1.0
C      1  0.3461995807706  0.2401166024824  0.1248854168320 1.0
C      1  0.7988624850494  0.4829417082462  0.1811805063683 1.0
C      1  0.4070612263359  0.7291006995635  0.1613963169984 1.0
C      1  0.2929937550805  0.3931013813574  0.1466384272984 1.0
C      1  0.6850628276470  0.3639691942742  0.1804341993762 1.0
C      1  0.5747294065344  0.7668651991597  0.1574388392627 1.0
C      1  0.8435232933680  0.6776573589144  0.5087060809972 1.0
C      1  0.1477442507332  0.6574030913394  0.5011978961398 1.0
C      1  0.4850815449350  0.1093869434479  0.5390604798945 1.0
C      1  0.7053030171122  0.6624551477434  0.4256178990785 1.0
C      1  0.2596220690695  0.5679241089761  0.4163653988225 1.0
C      1  0.5465875605853  0.2315478021850  0.4371442128770 1.0
C      1  0.4701633303592  0.1478348964630  0.2454473163008 1.0
C      1  0.8442982522391  0.6277152131070  0.2656530011732 1.0
C      1  0.2591117585090  0.7134549420882  0.2557101961553 1.0
C      1  0.3817112969267  0.4835451237294  0.3714774565894 1.0
C      1  0.5425299811574  0.3905561418434  0.3962811043089 1.0
C      1  0.5749499886516  0.5851568895222  0.3809825792231 1.0
C      1  0.4205343117323  0.7544411967099  0.3145952043011 1.0
C      1  0.3402310764242  0.2420010579457  0.3303554989593 1.0
C      1  0.7434869561384  0.5240647765055  0.3259947460045 1.0
C      1  0.7484074177140  0.6349713834575  0.5203942495539 1.0
C      1  0.2480847766161  0.6322749123212  0.4939281972771 1.0
C      1  0.4926120026089  0.2152962797629  0.5261768909953 1.0
C      1  0.3235538340337  0.7503776820635  0.2017309415654 1.0
C      1  0.4096004488512  0.2022140784834  0.1879151041097 1.0
C      1  0.8600657499171  0.5465962278369  0.2216646550577 1.0
C      1  0.4061908875792  0.5651032613814  0.1068533609773 1.0
C      1  0.4916674746991  0.3270160506354  0.1154506527760 1.0
C      1  0.6717617041959  0.5743308921106  0.1720746346593 1.0
C      1  0.8386748495445  0.3236312047372  0.5576563331798 1.0
C      1  0.4894440383779  0.8814497199451  0.5416717050399 1.0
C      1  0.1568099920621  0.2766818031076  0.5585996510092 1.0
C      1  0.8272327228353  0.7497195818196  0.4409576972530 1.0
C      1  0.1028511526693  0.6507117994604  0.4242250904073 1.0
C      1  0.5601998005345  0.0861421831811  0.4671315275516 1.0
C      1  0.7956623925797  0.3455073201015  0.7637209399287 1.0
C      1  0.4897765905548  0.8425143294036  0.7356764847893 1.0
C      1  0.1925296187917  0.3527410531845  0.7459891104142 1.0
C      1  0.3248111633114  0.7033468715650  0.4786137269776 1.0
C      1  0.3992203181357  0.2474831731314  0.5082844908030 1.0
C      1  0.7679045100081  0.5370295776556  0.5155627362895 1.0
C      1  0.1877317517434  0.6539138547035  0.2681779671935 1.0
C      1  0.5537025634152  0.1397225984093  0.2885676053210 1.0
C      1  0.7877457565137  0.7031833097346  0.2741399557565 1.0
C      1  0.2893104190376  0.3147032015809  0.7271765914297 1.0
C      1  0.7573646744070  0.4338594400843  0.7394392840572 1.0
C      1  0.4238684249241  0.7665548874321  0.7064381993882 1.0
C      1  0.4180883920849  0.3019413946212  0.1708046438685 1.0
C      1  0.7081281735021  0.5111525445517  0.2327033715227 1.0
C      1  0.4347497900145  0.6364946293048  0.1594463456637 1.0
C      1  0.5662897277392  0.1451589443540  0.3864554388110 1.0
C      1  0.7627250231692  0.7327633294899  0.3664379028906 1.0
C      1  0.1298143026857  0.6301129241320  0.3416911515467 1.0
C      1  0.6548258884523  0.7174089370377  0.6471661685360 1.0
C      1  0.2140987953134  0.5192110393437  0.6204791778562 1.0
C      1  0.6078235059165  0.2638622875789  0.6397990332335 1.0
C      1  0.6002962677501  0.5008053311878  0.5223229391163 1.0
C      1  0.4438066837324  0.5857097980689  0.4980810715000 1.0
C      1  0.4429690319405  0.4057466453446  0.5176069240921 1.0
C      1  0.5286271095590  0.0968057712760  0.6277100755768 1.0
C      1  0.8477609262195  0.7262040177016  0.6004331746405 1.0
C      1  0.1216890848325  0.6546711192776  0.5969006605359 1.0
C      1  0.1560864065503  0.2512389210212  0.4798924107938 1.0
C      1  0.8714458193542  0.3605773370101  0.4921136245843 1.0
C      1  0.4369323945744  0.9029103143458  0.4827764129829 1.0
C      1  0.5520444827426  0.4130759991206  0.4961563344042 1.0
C      1  0.5453230710924  0.5908769277693  0.4827463050987 1.0
C      1  0.3940607406699  0.4832093198280  0.4784494333760 1.0
C      1  0.6354888727344  0.1016906328067  0.5177891059213 1.0
C      1  0.7851422487213  0.8109811436516  0.4946004133073 1.0
C      1  0.0525708191998  0.4727207654263  0.4895484192073 1.0
C      1  0.7496662397771  0.1875281834849  0.5813483124398 1.0
C      1  0.6539388071973  0.8685621212858  0.5542192177336 1.0
C      1  0.1060797127867  0.4069781318833  0.5132350546725 1.0
C      1  0.6697378468318  0.8485534523317  0.7113041226776 1.0
C      1  0.1256940815523  0.5000004675215  0.6859036312982 1.0
C      1  0.7027815560235  0.2031289101658  0.7336382974478 1.0
C      1  0.5215461603962  0.2692852779067  0.6049934862276 1.0
C      1  0.6892630526458  0.6404378430589  0.6031076663840 1.0
C      1  0.2727946988360  0.5852817612197  0.5798834849685 1.0
C      1  0.7004054836920  0.7511727093127  0.7192248905436 1.0
C      1  0.2062247483601  0.5440377529990  0.7210479197279 1.0
C      1  0.6078155800825  0.2471548570726  0.7388764373274 1.0
C      1  0.2446141531812  0.7750395234200  0.6183411943273 1.0
C      1  0.3785510484794  0.1476973221820  0.6492024446968 1.0
C      1  0.8719444402116  0.5729949029472  0.6566357622040 1.0
C      1  0.8761075208953  0.4056749338432  0.4082563863170 1.0
C      1  0.3972358690052  0.9019231139296  0.3965168485753 1.0
C      1  0.2034271603934  0.2490338221540  0.3990865959327 1.0
C      1  0.5832181874236  0.6027036368028  0.1578475225441 1.0
C      1  0.4430404547909  0.4757058490265  0.0965472071132 1.0
C      1  0.5154844775895  0.4202051245573  0.1069187095237 1.0
C      1  0.6978648718834  0.1487158586459  0.6527806301450 1.0
C      1  0.7168494530521  0.8584925318882  0.6241640448835 1.0
C      1  0.0843279643143  0.5643016166032  0.6208263488313 1.0
C      1  0.4936038422348  0.3080427513184  0.3936518764355 1.0
C      1  0.6747797509128  0.5723484177813  0.3884555896579 1.0
C      1  0.3394110594538  0.5724896825960  0.3743708445248 1.0
C      1  0.5628768157325  0.8455641804273  0.5929527275064 1.0
C      1  0.1574846327669  0.3697558986994  0.5898602381885 1.0
C      1  0.7733679589027  0.2785563388520  0.6133863957489 1.0
C      1  0.2958670128193  0.7540606813402  0.8251696709606 1.0
C      1  0.4205164648112  0.2774235097636  0.8702339577374 1.0
C      1  0.7822583236127  0.5609177815852  0.8504941878479 1.0
C      1  0.8137709560752  0.3547436843821  0.3443358269923 1.0
C      1  0.4661050554069  0.9066947079413  0.3278551243711 1.0
C      1  0.2020373890061  0.3189879561606  0.3283798282154 1.0
C      1  0.1738258154340  0.4731071906799  0.2584852508064 1.0
C      1  0.7096020211821  0.2279279888712  0.2821468394848 1.0
C      1  0.6361843325545  0.8356413144581  0.3019236237616 1.0
C      1  0.5482281443112  0.8723509915079  0.3136065866458 1.0
C      1  0.1606889276271  0.4061480457506  0.3315179860817 1.0
C      1  0.7776510880635  0.2728579479079  0.3265989584540 1.0
C      1  0.7237528476858  0.4837028944927  0.8244236707966 1.0
C      1  0.3890177964456  0.7281112680195  0.7967088130018 1.0
C      1  0.3454481182265  0.3274637051756  0.8138456972926 1.0
C      1  0.2868729301148  0.2031773221146  0.4070815425838 1.0
C      1  0.8836979022480  0.5004123956462  0.4031717015766 1.0
C      1  0.3223777846122  0.8438251385908  0.3806579857350 1.0
C      1  0.7553917741309  0.4899278187798  0.5984910092991 1.0
C      1  0.3727544541934  0.7185063651224  0.5645192300161 1.0
C      1  0.3569984202064  0.2834420693770  0.5900500685770 1.0
C      1  0.7719501297712  0.2711230505358  0.7192689573305 1.0
C      1  0.5714703162555  0.8566593954126  0.6978455900214 1.0
C      1  0.1370620975807  0.3948689698668  0.6864266249630 1.0
C      1  0.4505750531852  0.3692536791731  0.9115032017365 1.0
C      1  0.5939857248532  0.5435446607595  0.8943521189231 1.0
C      1  0.3915334382815  0.5932083665070  0.8852217171029 1.0
C      1  0.8435039087697  0.6638401724688  0.6740240370461 1.0
C      1  0.1838012965224  0.6982320092388  0.6530213784722 1.0
C      1  0.4719165404367  0.1359952350157  0.6913287719519 1.0
C      1  0.4615380386321  0.7365583433636  0.8656718542900 1.0
C      1  0.2994758511226  0.3878253740106  0.8805918406795 1.0
C      1  0.6915535638757  0.4161741036440  0.8944503885623 1.0
C      1  0.6032944684857  0.6868136912260  0.1099858881366 1.0
C      1  0.3519509624014  0.4368929453370  0.0630722142766 1.0
C      1  0.6060235588250  0.3783759065733  0.1180079175407 1.0
C      1  0.4837686949657  0.7890546827659  0.1788192600840 1.0
C      1  0.2736408432019  0.2890544510142  0.1605364111371 1.0
C      1  0.7765684932639  0.4026591126917  0.1522732731200 1.0
C      1  0.6413025121757  0.7259350680563  0.4643006948374 1.0
C      1  0.2279315951433  0.4812894713992  0.4417481548850 1.0
C      1  0.6395076047701  0.2547432816837  0.4727830044240 1.0
C      1  0.8423146557877  0.5477942600047  0.3238744898922 1.0
C      1  0.3224699771533  0.7806447519633  0.3008867793046 1.0
C      1  0.3936840174042  0.1789048229561  0.2802899913033 1.0
C      1  0.5186933611514  0.6220871209320  0.3149079616498 1.0
C      1  0.3820783453249  0.4095141980087  0.3160345781048 1.0
C      1  0.6100176409734  0.4198118553416  0.3468731485781 1.0
C      1  0.8089240957110  0.4939749658817  0.6722208336096 1.0
C      1  0.3472285406199  0.7710147660719  0.6350526416609 1.0
C      1  0.3250488351213  0.2365337414215  0.6611071024188 1.0
C      1  0.6282432394083  0.2162422852136  0.1332971042668 1.0
C      1  0.7241569358390  0.7284438062669  0.2073384283457 1.0
C      1  0.2399835141365  0.5440203465578  0.1254767472725 1.0
C      1  0.7990076132343  0.8079284262903  0.5892386421590 1.0
C      1  0.0138336334413  0.5327685419600  0.5586044969027 1.0
C      1  0.6225598650400  0.1005231312462  0.6145410600748 1.0
C      1  0.6764813198799  0.3291854257556  0.6093127817211 1.0
C      1  0.5652744770362  0.7373138130004  0.6040336447513 1.0
C      1  0.2490926987357  0.4279190956397  0.5932811437942 1.0
C      1  0.6938905583143  0.8136377546986  0.3704015988866 1.0
C      1  0.1526440440092  0.5667539088330  0.2741141105952 1.0
C      1  0.6373662708548  0.1644509900690  0.3135336754881 1.0
END
