TITL C-1287-6203-2 -5.921 3375.00 -813.32832346 0 0 103 (C1) n - 1
REM
REM Run started: at 2020.12.29 21:05:11 in /gpfs/home/chem/mssmkc/CARBON/AIRSS/Generating-Clusters/Str-Search/Higher-Symm/C100-200
REM VASP from code version vasp.5.4.4.18Apr17-6-g9f103f2a35 (build Oct 11 2019 16:45:47) gamma-only
REM
REM
REM
REM
REM ./C.cell (533062f00bc710175b3da973d35f2034)
REM AIRSS Version 0.9.1 bugfix July 2018 build 013d7b7c2542+ Fri, 06 Jul 2018 19:26:36 +0100
REM compiler GCC version 6.3.0
REM options -cpp -iprefix /gpfs/warwick/csc/orac/software/Core/GCCcore/6.3.0/bin/../lib/gcc/x86_64-pc-linux-gnu/6.3.0/ -mtune=generic -march=x86-64 -g -O0
REM seed -523556955 -1714318489 -1986372124 -1038642712 -72283541 271796045 -586826836 374812798 977767432 981758539 1318948413 1202376428
REM
REM C.POTCAR (d86ddea03c3ceb6dc662c8ad6801f873)
REM 
CELL 1.54180   15.00000   15.00000   15.00000   90.00000   90.00000   90.00000
LATT -1
SFAC C  
C      1  0.1829490055716  0.4989624416878  0.7327462447211 1.0
C      1  0.4585851505309  0.7391202408643  0.8450054460886 1.0
C      1  0.6684534084771  0.4948964090895  0.8985899876471 1.0
C      1  0.8924620083749  0.5273429927017  0.7629714746125 1.0
C      1  0.8116968763222  0.6708284895129  0.6067624347502 1.0
C      1  0.8086078556004  0.5642470449660  0.2544439864448 1.0
C      1  0.8372751994364  0.4820201229584  0.2318065558431 1.0
C      1  0.6395341399270  0.6108881622406  0.0348316270819 1.0
C      1  0.6551631803348  0.5417683836099  0.9809309483344 1.0
C      1  0.1808376772204  0.4524537183000  0.2255383592544 1.0
C      1  0.1114198996043  0.5605556544394  0.7121822432950 1.0
C      1  0.2850832448543  0.6078721079115  0.6641844533639 1.0
C      1  0.4472678909897  0.7974088530188  0.9164006636747 1.0
C      1  0.5178976711253  0.7581854761851  0.7882949175583 1.0
C      1  0.0246850422538  0.5856417946582  0.7081408739631 1.0
C      1  0.9384227600680  0.7658990617688  0.5123793385757 1.0
C      1  0.7605064866369  0.7222966145877  0.3232646660691 1.0
C      1  0.5318676807770  0.8013215092945  0.2023363187050 1.0
C      1  0.4620516613377  0.8135116864775  0.1597982487188 1.0
C      1  0.3976498901902  0.8163697656499  0.0896448347882 1.0
C      1  0.0921876110979  0.7537304165959  0.5325933900083 1.0
C      1  0.0877768317898  0.6385551374782  0.6640708688228 1.0
C      1  0.2678697226510  0.1203261005912  0.4110247847479 1.0
C      1  0.7863753015229  0.6380168641468  0.2854301811645 1.0
C      1  0.5153778860287  0.1150469471906  0.6842375903856 1.0
C      1  0.5285911555469  0.1809231578381  0.6268821942513 1.0
C      1  0.5413498686449  0.2382535040032  0.5671097854132 1.0
C      1  0.5789138074606  0.2857464653660  0.5014961156576 1.0
C      1  0.5801205134637  0.3220004179451  0.4157510044775 1.0
C      1  0.5249655633975  0.3121823603501  0.3340669919708 1.0
C      1  0.4663000176846  0.2469711905812  0.3484986888409 1.0
C      1  0.4240354991679  0.1778335778759  0.3857708677013 1.0
C      1  0.3291401912130  0.1751516092240  0.3994440909433 1.0
C      1  0.9834861269480  0.2731832979375  0.2269533017324 1.0
C      1  0.1617670129254  0.3175601369084  0.7264737857040 1.0
C      1  0.1281248721412  0.3636933491911  0.2857016381609 1.0
C      1  0.0232887952580  0.3112544286562 -0.0105961574289 1.0
C      1  0.7137820381310  0.3817688787719  0.8732694390681 1.0
C      1  0.2245930714149  0.0442779608319  0.4359403385770 1.0
C      1  0.9566333692972  0.2866090340766  0.8240775927960 1.0
C      1  0.7521529519129  0.3183602280471  0.4758235245896 1.0
C      1  0.9080014274773  0.4388528797882  0.7857999992678 1.0
C      1  0.0910369115421  0.3677189100840  0.1410409727245 1.0
C      1  0.5709256510134  0.4066858134395  0.1937647921439 1.0
C      1  0.6208822896997  0.5209272611028  0.0735200573443 1.0
C      1  0.4675679776604  0.3366107151464  0.9068526623460 1.0
C      1  0.1489009658355  0.4432999779563  0.1466851367842 1.0
C      1  0.2053939095671  0.9656587804815  0.4543200846157 1.0
C      1  0.1784472343588  0.4087017332790  0.7601085868956 1.0
C      1 -0.0089298243822  0.2764017301577  0.9106807167551 1.0
C      1  0.6200920430875  0.4125152264418  0.8772858654151 1.0
C      1  0.8385588318125  0.4868595198863  0.8266768926841 1.0
C      1  0.9351549732658  0.3504213870108  0.7567412923261 1.0
C      1  0.8790303917512  0.3289971584468  0.5915112244861 1.0
C      1  0.8691588534028  0.4048305551730  0.2254494149422 1.0
C      1  0.4995005063726  0.8687973432181  0.9453548659990 1.0
C      1  0.5831311480412  0.8383070660179  0.6631663152624 1.0
C      1  0.4338725853342  0.8297131413084  0.0008889911039 1.0
C      1  0.5742335020437  0.8296394198040  0.7602860162202 1.0
C      1  0.3066671445090  0.7965605182611  0.0915689508147 1.0
C      1  0.6862703075815  0.9772538392869  0.0404052892227 1.0
C      1  0.2270785916039  0.7751132479328  0.0727238444063 1.0
C      1  0.4262228773813  0.9408047078399  0.4909297347765 1.0
C      1  0.5978067824494  0.8878054696779  0.8252391103745 1.0
C      1  0.0536590636625  0.3372919691401  0.0609774604267 1.0
C      1  0.1149383825129  0.8263079689238  0.4814235653300 1.0
C      1  0.2768056023699  0.8344802801650  0.5270634604260 1.0
C      1  0.2777711739295  0.7542808006746  0.5772361957465 1.0
C      1  0.2889962049995  0.6851143887497  0.6189182158475 1.0
C      1  0.5355236721784  0.8463661279005  0.5859225953574 1.0
C      1  0.6287815343224  0.8242972316120  0.5817070582789 1.0
C      1  0.5853867097595  0.9027202739593  0.9168996716613 1.0
C      1  0.6814099297523  0.7597925423715  0.2820500279587 1.0
C      1  0.9679175094726  0.1993375464041  0.8595241891787 1.0
C      1  0.6093128413431  0.7809620467360  0.2463985122397 1.0
C      1  0.4553226886031  0.8700961955184  0.5422739246897 1.0
C      1  0.3616677971255  0.8745841967855  0.5197567857259 1.0
C      1  0.5956556749185  0.4630770662937  0.1306876545595 1.0
C      1  0.4095597447630  0.2906082435235  0.9528303967423 1.0
C      1  0.0686467511480  0.3226854481023  0.2240232820218 1.0
C      1  0.1880132228111  0.4245834850367  0.3117205279451 1.0
C      1  0.1958803934771  0.3318825448852  0.8101058564246 1.0
C      1  0.0236097210063  0.7998138324018  0.4825532760126 1.0
C      1  0.5411580864925  0.3758169745517  0.8865108885928 1.0
C      1  0.7545797000932  0.4652038352388  0.8606992957172 1.0
C      1  0.9133990178997  0.3350871186073  0.6679364327667 1.0
C      1  0.8171494695133  0.3220891451376  0.5285450727795 1.0
C      1  0.9203583115170  0.3303907902692  0.2247052267807 1.0
C      1  0.5462643972065  0.3573922969555  0.2550515223863 1.0
C      1  0.8467623698964  0.7622998093547  0.4739586784172 1.0
C      1  0.0586887442669  0.7053282049004  0.6040669771217 1.0
C      1  0.6437136411314  0.9385679180349 -0.0203185214949 1.0
C      1  0.1952268235042  0.8761601976157  0.4826375339742 1.0
C      1  0.4471287743545  0.0209032655315  0.4512203892588 1.0
C      1  0.5104075174324  0.0390318017088  0.7215327822480 1.0
C      1  0.6615453689285  0.3168548399891  0.4615159756665 1.0
C      1  0.8979463201433  0.6591647083651  0.6450537643722 1.0
C      1  0.9607905751834  0.7128920323479  0.5937137909650 1.0
C      1  0.4590385122025  0.0934196382273  0.4145743615378 1.0
C      1  0.9316544442102  0.5932757343731  0.7070919050081 1.0
C      1  0.8071174772173  0.7569635520849  0.3931575971132 1.0
C      1  0.7937770849732  0.7222492152168  0.5431024247527 1.0
C      1  0.2619470269388  0.5388861370355  0.7025689874787 1.0
END
