TITL C-12802-4528-18 -6.097 3375.00 -1043.79603861 0 0 128 (C1) n - 1
REM
REM Run started: at 2020.12.30 10:02:23 in /gpfs/home/chem/mssmkc/CARBON/AIRSS/Generating-Clusters/Str-Search/Higher-Symm/C100-200
REM VASP from code version vasp.5.4.4.18Apr17-6-g9f103f2a35 (build Oct 11 2019 16:45:47) gamma-only
REM
REM
REM
REM
REM ./C.cell (533062f00bc710175b3da973d35f2034)
REM AIRSS Version 0.9.1 bugfix July 2018 build 013d7b7c2542+ Fri, 06 Jul 2018 19:26:36 +0100
REM compiler GCC version 6.3.0
REM options -cpp -iprefix /gpfs/warwick/csc/orac/software/Core/GCCcore/6.3.0/bin/../lib/gcc/x86_64-pc-linux-gnu/6.3.0/ -mtune=generic -march=x86-64 -g -O0
REM seed 1612213822 241763184 2072077478 1590419323 -2041319940 -1474882458 -606210782 -945145406 1780249255 -1595819726 -1049339800 1765049792
REM
REM C.POTCAR (d86ddea03c3ceb6dc662c8ad6801f873)
REM 
CELL 1.54180   15.00000   15.00000   15.00000   90.00000   90.00000   90.00000
LATT -1
SFAC C  
C      1  0.4204568031307  0.6908239704169  0.6936609146028 1.0
C      1  0.6518698954112  0.3525003784070  0.5238839778350 1.0
C      1  0.8278372434351  0.4750507104972  0.5672709727893 1.0
C      1  0.7314434489911  0.4131865413214  0.6949718300870 1.0
C      1  0.2403513211545  0.4778896573723  0.2816481236529 1.0
C      1  0.3443955964102  0.2590453647825  0.3476153951616 1.0
C      1  0.3879850204454  0.7400871080606  0.3512666611197 1.0
C      1  0.7138472238310  0.2717943229308  0.3780137793149 1.0
C      1  0.1817246364773  0.5341661991416  0.5841526725316 1.0
C      1  0.1853114223311  0.6838486471785  0.4773886195665 1.0
C      1  0.6005580862911  0.1824683982660  0.6508223405075 1.0
C      1  0.8279364572856  0.3905748134297  0.4356558887628 1.0
C      1  0.5942586105735  0.5045996332507  0.5577948166331 1.0
C      1  0.6878685936218  0.4137303602595  0.2500367269054 1.0
C      1  0.4600535868352  0.7276742378876  0.4160843785468 1.0
C      1  0.2948462856366  0.7124404591335  0.3548922260931 1.0
C      1  0.3860359657126  0.5061370568376  0.4273059370049 1.0
C      1  0.4313570077387  0.7401012205798  0.5106874245186 1.0
C      1  0.3113789839575  0.4503743917691  0.2252935771368 1.0
C      1  0.2737295291322  0.2624927982136  0.4099488547716 1.0
C      1  0.3758878496172  0.3621832375611  0.5698054197712 1.0
C      1  0.4833403474191  0.4741089436705  0.2631072060482 1.0
C      1  0.5453029033393  0.7209812819671  0.3638090655259 1.0
C      1  0.1755503722336  0.4419909073347  0.5488959055114 1.0
C      1  0.5674442913893  0.1878970404353  0.5613132553324 1.0
C      1  0.7377717315541  0.6010075091101  0.5000458070779 1.0
C      1  0.2533931769482  0.7419631648592  0.4419793913712 1.0
C      1  0.4600375855382  0.4366135700834  0.6759989580910 1.0
C      1  0.8050741435320  0.3152365172731  0.5809533005638 1.0
C      1  0.7259721700966  0.7345062823835  0.5970423036589 1.0
C      1  0.6597890933502  0.6165391087465  0.6428904950801 1.0
C      1  0.6050934014225  0.8134894744080  0.6461531751987 1.0
C      1  0.6445361257484  0.4201277686587  0.7351603996684 1.0
C      1  0.3983369880246  0.1892089291469  0.5077947051366 1.0
C      1  0.5202758097909  0.6679661281880  0.2041279920670 1.0
C      1  0.3979342991814  0.3077796638427  0.2891426390321 1.0
C      1  0.4440484744915  0.5126497442478  0.1837056935152 1.0
C      1  0.4027469606793  0.2438599518082  0.6583545614521 1.0
C      1  0.7291210464682  0.5678959921487  0.2735097689119 1.0
C      1  0.4853616490450  0.7505431390317  0.7489011133386 1.0
C      1  0.2135432795720  0.5725283853152  0.2934301634238 1.0
C      1  0.3789653949939  0.3747108928181  0.2220719600368 1.0
C      1  0.5191737877010  0.7354538725184  0.2738313901013 1.0
C      1  0.1595864804802  0.6088198787847  0.5295739047698 1.0
C      1  0.5236120232632  0.3695407022993  0.6362949293449 1.0
C      1  0.5812846756722  0.2960670544317  0.2840605583220 1.0
C      1  0.8273413421511  0.4880731317667  0.4120787423734 1.0
C      1  0.2134491896611  0.4677387400911  0.3847803978342 1.0
C      1  0.2351754292170  0.3216745386162  0.4697013192080 1.0
C      1  0.3064291483261  0.4917765677346  0.4142714443897 1.0
C      1  0.1895799824302  0.4053137045245  0.4616987215294 1.0
C      1  0.6702646040747  0.6717296564936  0.7226927396733 1.0
C      1  0.4580294221313  0.3026950453365  0.5914407734452 1.0
C      1  0.7903975879559  0.4855566434774  0.6571940238773 1.0
C      1  0.6947174239024  0.4988111319610  0.2073610106455 1.0
C      1  0.5837284891549  0.2388550919467  0.7240977905301 1.0
C      1  0.6213829769096  0.2604378128610  0.3608861663850 1.0
C      1  0.4612726047469  0.4169782250976  0.1784324816478 1.0
C      1  0.6793784201514  0.7602261839706  0.5162164635354 1.0
C      1  0.4354563423113  0.4343172942883  0.7719845820451 1.0
C      1  0.7013434467801  0.4512512933630  0.3372578907803 1.0
C      1  0.6419129316504  0.4838341798607  0.4070473681400 1.0
C      1  0.3268572913572  0.6731335632095  0.7176984595727 1.0
C      1  0.7772657781712  0.5130680959279  0.3378066798722 1.0
C      1  0.6576183934583  0.2047937994105  0.5773796816168 1.0
C      1  0.2400370792648  0.3119184769173  0.6878514133030 1.0
C      1  0.7427215761161  0.6354611761635  0.5959535300800 1.0
C      1  0.2808019966508  0.4480013809823  0.6712260734783 1.0
C      1  0.4206029659265  0.2772757919603  0.7536507234640 1.0
C      1  0.3734451772292  0.4329489114158  0.6281234865288 1.0
C      1  0.3001784117396  0.8067187426808  0.4877507996475 1.0
C      1  0.5144301594022  0.7104261220624  0.8324412315046 1.0
C      1  0.7525978578092  0.3285094037864  0.6527003981023 1.0
C      1  0.8209125490916  0.5383469544453  0.4933210586727 1.0
C      1  0.3417828963252  0.6239107679660  0.2176844046197 1.0
C      1  0.7097894973251  0.2870332656967  0.5684473116346 1.0
C      1  0.6133740101143  0.5417837912857  0.6448597346124 1.0
C      1  0.5809883363492  0.3411490757663  0.7203445346574 1.0
C      1  0.6113572747355  0.8277864887142  0.5476309137094 1.0
C      1  0.4255348108031  0.7497500379933  0.2662826215426 1.0
C      1  0.2248167879886  0.3844781312477  0.6141252507835 1.0
C      1  0.5936943486918  0.5129390934682  0.7382414691627 1.0
C      1  0.4920907341451  0.3188405184860  0.3269532730854 1.0
C      1  0.4174298039504  0.6793515031091  0.2034262739332 1.0
C      1  0.4868985852357  0.5118769750794  0.7371667065813 1.0
C      1  0.5625399058522  0.4180705071365  0.1711662181138 1.0
C      1  0.6189170287023  0.3563869836170  0.2179106407587 1.0
C      1  0.6351771303870  0.6804057082518  0.3687556509080 1.0
C      1  0.5710630195630  0.3653362243989  0.4688398385085 1.0
C      1  0.5898062246021  0.6065334760158  0.2110507514068 1.0
C      1  0.8402979728977  0.3869795165467  0.5290841259420 1.0
C      1  0.6385131607606  0.5960073638573  0.7921469432754 1.0
C      1  0.6896357728948  0.6887834849330  0.4499764762018 1.0
C      1  0.7803374146694  0.3203182580555  0.3929896779765 1.0
C      1  0.3744238736165  0.3590347796524  0.7792160276157 1.0
C      1  0.6792445278954  0.7601886039697  0.6749071605879 1.0
C      1  0.2950413997462  0.2500712489959  0.6262409265395 1.0
C      1  0.6579033551534  0.6297648691442  0.2852940543699 1.0
C      1  0.5306676149410  0.8103785846807  0.7002763518088 1.0
C      1  0.2860410427322  0.3739059902956  0.7456826507865 1.0
C      1  0.1613348289420  0.5535479847125  0.3693037906948 1.0
C      1  0.6629812383863  0.5308668611182  0.4853020507728 1.0
C      1  0.3841654390201  0.8294581888312  0.5061735744188 1.0
C      1  0.5775035733666  0.6551771157549  0.8371074031641 1.0
C      1  0.7383118956465  0.6137829871232  0.7632185188594 1.0
C      1  0.5035306657483  0.4198990118720  0.3323399886631 1.0
C      1  0.5806981759259  0.4028340479385  0.5628420215596 1.0
C      1  0.2700782167051  0.6159709299195  0.6989210399009 1.0
C      1  0.4659442853935  0.6015920584973  0.5962605023640 1.0
C      1  0.3504292138343  0.2101963681576  0.4309797838649 1.0
C      1  0.5052461356759  0.5431923913455  0.5322321332443 1.0
C      1  0.4363194412607  0.6913236528318  0.5876411343098 1.0
C      1  0.4923845672226  0.2324829796391  0.5128996656467 1.0
C      1  0.2731648341641  0.6483612721633  0.2838153842043 1.0
C      1  0.4760194288735  0.5081331742278  0.4553695766730 1.0
C      1  0.5473950079540  0.4490278447668  0.4122311299175 1.0
C      1  0.5378108325997  0.8723993355510  0.5134814640788 1.0
C      1  0.4596300093960  0.5959262508453  0.6878173613862 1.0
C      1  0.5344223228727  0.2823003447475  0.4244172160742 1.0
C      1  0.7766285463059  0.5752507084240  0.6820645595143 1.0
C      1  0.2358058463584  0.5383216580690  0.6617556715914 1.0
C      1  0.5155684213169  0.2788418458393  0.7671349557732 1.0
C      1  0.3590618960003  0.1817507762581  0.5977671386035 1.0
C      1  0.2836508120968  0.3239746483701  0.5578007707225 1.0
C      1  0.6085967783516  0.5146770488330  0.1739263464167 1.0
C      1  0.4557579499718  0.8936736452117  0.5124902336493 1.0
C      1  0.1431443079773  0.6108595457232  0.4375876670858 1.0
C      1  0.3532905408306  0.5325855037050  0.1950242959483 1.0
END
