TITL C-12802-4528-24 -8.012 3375.00 -1475.87272303 0 0 177 (C1) n - 1
REM
REM Run started: at 2020.12.30 14:52:48 in /gpfs/home/chem/mssmkc/CARBON/AIRSS/Generating-Clusters/Str-Search/Higher-Symm/C100-200
REM VASP from code version vasp.5.4.4.18Apr17-6-g9f103f2a35 (build Oct 11 2019 16:45:47) gamma-only
REM
REM
REM
REM
REM ./C.cell (533062f00bc710175b3da973d35f2034)
REM AIRSS Version 0.9.1 bugfix July 2018 build 013d7b7c2542+ Fri, 06 Jul 2018 19:26:36 +0100
REM compiler GCC version 6.3.0
REM options -cpp -iprefix /gpfs/warwick/csc/orac/software/Core/GCCcore/6.3.0/bin/../lib/gcc/x86_64-pc-linux-gnu/6.3.0/ -mtune=generic -march=x86-64 -g -O0
REM seed 426167499 602577449 1283627645 -600464587 -965073428 -717824418 -1245144333 -495726658 -853953584 -1442070852 -931341362 -1242250968
REM
REM C.POTCAR (d86ddea03c3ceb6dc662c8ad6801f873)
REM 
CELL 1.54180   15.00000   15.00000   15.00000   90.00000   90.00000   90.00000
LATT -1
SFAC C  
C      1  0.3738743593542  0.8320085966201  0.6042549387901 1.0
C      1  0.6031851162764  0.3708681402630  0.8290452325022 1.0
C      1  0.8289499997671  0.6022256358925  0.3764527466965 1.0
C      1  0.3754836616053  0.1682912539562  0.3965345950377 1.0
C      1  0.6204637919870  0.1667932277384  0.6032481855384 1.0
C      1  0.6199568013739  0.8260707375504  0.3984400117353 1.0
C      1  0.6020518378968  0.6216950528095  0.1688653020940 1.0
C      1  0.3953518828738  0.6208056592530  0.8307223931784 1.0
C      1  0.3956725382693  0.3756295165754  0.1695491059930 1.0
C      1  0.8267906832868  0.3943389225583  0.6213374480099 1.0
C      1  0.1688254253778  0.3954387728383  0.3771086720159 1.0
C      1  0.1680291212262  0.6019174414482  0.6230781501198 1.0
C      1  0.6219260991193  0.8324472819574  0.6044003556898 1.0
C      1  0.3957018082674  0.3747656861383  0.8292789577546 1.0
C      1  0.1689727844551  0.6013928674333  0.3769656845279 1.0
C      1  0.6211214224886  0.1676238839399  0.3964183001639 1.0
C      1  0.3752625093718  0.1683691480277  0.6027868584855 1.0
C      1  0.3758638286291  0.8272464704829  0.3975983279237 1.0
C      1  0.3955665578932  0.6212195109003  0.1696046824912 1.0
C      1  0.6002279151297  0.6206510885928  0.8258767429729 1.0
C      1  0.6021706914507  0.3754145500237  0.1693763330518 1.0
C      1  0.1686584139791  0.3956278211365  0.6226239631376 1.0
C      1  0.8294771131092  0.3947625606732  0.3764773818655 1.0
C      1  0.8245984473080  0.5997292366619  0.6220390968052 1.0
C      1  0.6682930101462  0.4570606590366  0.5959105710038 1.0
C      1  0.5928609783138  0.6551950282679  0.4541988113923 1.0
C      1  0.4500975487977  0.6053182793202  0.6732388732522 1.0
C      1  0.6751600777484  0.5423644936283  0.3975959903160 1.0
C      1  0.3270272118943  0.5440187261654  0.6001052941720 1.0
C      1  0.3277186348507  0.4537965198470  0.4001703962647 1.0
C      1  0.5981997628525  0.3271076975087  0.5441685744845 1.0
C      1  0.3994026266400  0.3269420129324  0.4563913298679 1.0
C      1  0.3973783240890  0.6736978959981  0.5447697250695 1.0
C      1  0.4548867674964  0.3981347451885  0.3285835719206 1.0
C      1  0.5438971831157  0.3977516201811  0.6732019258049 1.0
C      1  0.5427409943348  0.5965905472821  0.3243524192673 1.0
C      1  0.3279544990425  0.4554766202774  0.5997804621668 1.0
C      1  0.3992246351536  0.6697538916359  0.4558931169217 1.0
C      1  0.5373542406891  0.6085906240924  0.6757805963667 1.0
C      1  0.3276468920584  0.5421728088641  0.4001868410753 1.0
C      1  0.6463984126971  0.5488216880949  0.5793375061789 1.0
C      1  0.6724820012989  0.4539707761000  0.3988343403803 1.0
C      1  0.3995610883505  0.3277405622314  0.5449027825728 1.0
C      1  0.5988111199815  0.3271302332435  0.4558377313957 1.0
C      1  0.5944037684958  0.6733685464332  0.5473789492982 1.0
C      1  0.5433500524930  0.3981674794449  0.3283960502310 1.0
C      1  0.4546242097635  0.3980830146211  0.6732770376026 1.0
C      1  0.4543588910077  0.5966828852967  0.3270169411083 1.0
C      1  0.7668975021125  0.7558352775913  0.5496086217932 1.0
C      1  0.5465487546325  0.7693053994215  0.7591302856323 1.0
C      1  0.7475124634573  0.5433439018892  0.7640701703787 1.0
C      1  0.7652553587549  0.2417406988904  0.4510297066567 1.0
C      1  0.2317204804176  0.2430997353276  0.5486034743373 1.0
C      1  0.2314422017936  0.7537998862113  0.4511270002340 1.0
C      1  0.5478034523812  0.2314232573900  0.2437620455248 1.0
C      1  0.4477551008186  0.2295259645347  0.7559478124779 1.0
C      1  0.4496198292201  0.7649876653844  0.2443946617042 1.0
C      1  0.7549137235761  0.4489701705834  0.2326089949514 1.0
C      1  0.2426938450453  0.4496783358649  0.7668516656491 1.0
C      1  0.2426690745947  0.5472024295185  0.2326159739569 1.0
C      1  0.2309931883946  0.7546577226012  0.5491614008719 1.0
C      1  0.4477812136359  0.7679484874232  0.7592606713832 1.0
C      1  0.2418814263793  0.5477393722130  0.7673996021866 1.0
C      1  0.2317189454455  0.2429478725257  0.4509171374429 1.0
C      1  0.7641405646392  0.2416695749022  0.5492632608298 1.0
C      1  0.7661964844831  0.7556169026678  0.4506785038116 1.0
C      1  0.4498412091147  0.2316256864430  0.2439260236520 1.0
C      1  0.5459743946733  0.2283756008240  0.7563024307421 1.0
C      1  0.5472294861343  0.7649977665479  0.2446680755738 1.0
C      1  0.2426994712835  0.4493246410736  0.2327250618933 1.0
C      1  0.7484339820831  0.4441631596732  0.7642281988803 1.0
C      1  0.7552029041167  0.5477356251716  0.2318687550304 1.0
C      1  0.4475694411082  0.5459081263020  0.1383164932321 1.0
C      1  0.1375110439452  0.4474688020193  0.5474045577742 1.0
C      1  0.5457013049575  0.1364954690921  0.4482099337672 1.0
C      1  0.4491108671943  0.4496093098341  0.8591985337959 1.0
C      1  0.5504815511629  0.4509832811049  0.1382541824923 1.0
C      1  0.5508426021108  0.5444356186316  0.8578460684207 1.0
C      1  0.1375912427747  0.5499701249074  0.4524229095874 1.0
C      1  0.8571584216897  0.5490119705979  0.5468162689933 1.0
C      1  0.8605505364550  0.4469825164853  0.4512708502860 1.0
C      1  0.5458081593620  0.8619417066765  0.5520511455709 1.0
C      1  0.4503807118723  0.8589687141199  0.4495836357341 1.0
C      1  0.4506620003343  0.1369453502467  0.5509973420095 1.0
C      1  0.5502397444519  0.5460065553927  0.1379250649808 1.0
C      1  0.8584497170246  0.4470450706436  0.5462675781438 1.0
C      1  0.4508414935533  0.1369984427741  0.4484068345356 1.0
C      1  0.5522035195920  0.4490275783386  0.8581816200906 1.0
C      1  0.4475678192353  0.4509360296256  0.1384614865277 1.0
C      1  0.4482717511371  0.5446893233355  0.8595251593242 1.0
C      1  0.8598395867278  0.5502000614871  0.4514097316987 1.0
C      1  0.1373219722784  0.5501595258742  0.5474615271040 1.0
C      1  0.1376645590141  0.4473562633669  0.4524141854837 1.0
C      1  0.4502384359807  0.8619291236652  0.5522009491981 1.0
C      1  0.5455058178025  0.8582124062494  0.4498077715207 1.0
C      1  0.5455334562240  0.1360750148424  0.5511299137686 1.0
C      1  0.3729544775021  0.5521188702820  0.6876198943199 1.0
C      1  0.6857799453163  0.3741183290974  0.5517429065764 1.0
C      1  0.5499513196282  0.6828068814766  0.3726448781337 1.0
C      1  0.3739253111148  0.4462046705589  0.3121835091489 1.0
C      1  0.6136272036324  0.4587839934587  0.6710006337604 1.0
C      1  0.6247492446960  0.5491475130226  0.3110335879151 1.0
C      1  0.6880847645383  0.6249843015940  0.4466022405275 1.0
C      1  0.3110627905028  0.6245025163326  0.5515902816481 1.0
C      1  0.3116290914639  0.3736013773833  0.4489049242684 1.0
C      1  0.5507871110139  0.3100420326915  0.6254614482984 1.0
C      1  0.4475065362836  0.3105022556100  0.3755222384646 1.0
C      1  0.4434641122915  0.6924733621770  0.6266039286479 1.0
C      1  0.6139869375051  0.5556111474023  0.6782891387502 1.0
C      1  0.3116485273167  0.3745287790979  0.5519457173120 1.0
C      1  0.4472995888730  0.6840259211679  0.3743640717010 1.0
C      1  0.6243582018816  0.4463240963284  0.3121142988591 1.0
C      1  0.3749334851226  0.4484240306242  0.6873147226922 1.0
C      1  0.3735440728166  0.5489908159421  0.3119730709597 1.0
C      1  0.3118797489859  0.6227014666389  0.4489011918846 1.0
C      1  0.6877712928114  0.6319761375746  0.5499512828495 1.0
C      1  0.6868783938427  0.3735854711240  0.4485764465968 1.0
C      1  0.4476563519353  0.3111169629842  0.6259614244361 1.0
C      1  0.5507032563364  0.3104035857041  0.3751538037581 1.0
C      1  0.5477895697716  0.6959548773976  0.6288479655223 1.0
C      1  0.1738190570955  0.4480056791881  0.3005541372730 1.0
C      1  0.2991142895547  0.1735233025703  0.4492181000723 1.0
C      1  0.4484453218330  0.2991754410503  0.1749275925322 1.0
C      1  0.1732414272182  0.5490003278930  0.6993831474141 1.0
C      1  0.8234338270570  0.5490623951788  0.2996710337043 1.0
C      1  0.8183654800239  0.4464334637215  0.6970079885631 1.0
C      1  0.2981142353452  0.8246922092647  0.5505189398036 1.0
C      1  0.6969441630963  0.8225047670954  0.4507394032590 1.0
C      1  0.6967454123922  0.1730548816022  0.5502698235122 1.0
C      1  0.4475201838298  0.6979843321287  0.8262628438645 1.0
C      1  0.5490742393186  0.6978887438035  0.1748071282057 1.0
C      1  0.5474639137810  0.2961922801132  0.8245699984029 1.0
C      1  0.8235408690857  0.4478059386528  0.2999328461536 1.0
C      1  0.6973232346398  0.1730609460150  0.4494133595688 1.0
C      1  0.5493253792505  0.2990656889065  0.1747839803524 1.0
C      1  0.8167131379424  0.5455996284214  0.6975024180065 1.0
C      1  0.1738444519614  0.5487261516429  0.3005216466913 1.0
C      1  0.1738379013846  0.4482801921044  0.6990784037797 1.0
C      1  0.6978377354303  0.8243449336362  0.5508836711142 1.0
C      1  0.2989103359722  0.8227578221806  0.4499163129147 1.0
C      1  0.2991164574963  0.1738148306683  0.5499230380077 1.0
C      1  0.5480973131846  0.6981851687958  0.8249611672327 1.0
C      1  0.4482300561795  0.6976720287471  0.1748658590846 1.0
C      1  0.4470173708558  0.2974315584499  0.8247594141386 1.0
C      1  0.2411364303266  0.6762965492655  0.3865829685428 1.0
C      1  0.3841875735952  0.2400435524785  0.6782819690078 1.0
C      1  0.6773716853502  0.3844244686162  0.2415774583290 1.0
C      1  0.2411167338635  0.3209725516107  0.6128223231427 1.0
C      1  0.7569337463152  0.3194867972366  0.3866033741559 1.0
C      1  0.7566421465458  0.6777508464717  0.6136449757711 1.0
C      1  0.3855057323989  0.7552072404890  0.3221056147138 1.0
C      1  0.6109236704328  0.7621144336318  0.6806852472241 1.0
C      1  0.6116844955579  0.2401701579908  0.3217597790790 1.0
C      1  0.6732446933027  0.6106554421960  0.7523118614014 1.0
C      1  0.3204691688810  0.6111589833737  0.2418846104743 1.0
C      1  0.3202308503669  0.3851694134927  0.7576126349265 1.0
C      1  0.7569568480671  0.6786870200072  0.3854218295786 1.0
C      1  0.6096724227491  0.2386675222910  0.6782908571619 1.0
C      1  0.3205873720630  0.3851529316621  0.2419822006012 1.0
C      1  0.7549064725973  0.3197629421901  0.6129644267983 1.0
C      1  0.2410868876597  0.3204659113411  0.3867120135930 1.0
C      1  0.2396070940089  0.6778098511560  0.6143563487717 1.0
C      1  0.6105963996356  0.7543606368768  0.3233098980764 1.0
C      1  0.3822491763321  0.7604741912017  0.6810205512714 1.0
C      1  0.3856544808834  0.2406725611149  0.3218561903263 1.0
C      1  0.3188092453384  0.6128234517490  0.7590616849103 1.0
C      1  0.6773645733445  0.6118073277301  0.2407448232992 1.0
C      1  0.6859714707684  0.3676122979977  0.7686588570846 1.0
C      1  0.6968343204849  0.2999470155783  0.3018842822451 1.0
C      1  0.3007552266080  0.6958151621327  0.3021245172664 1.0
C      1  0.3003115827482  0.3007494407275  0.6978740919244 1.0
C      1  0.6958298638017  0.6976491607586  0.6978081240006 1.0
C      1  0.3008617900283  0.3004645267980  0.3020485686540 1.0
C      1  0.6965392093922  0.6967456437790  0.3012451058257 1.0
C      1  0.6952467751989  0.2996428581260  0.7000262734713 1.0
C      1  0.2980979119042  0.6984358974309  0.6997003399849 1.0
C      1  0.5629497653550  0.5781363655476  0.5179746533747 1.0
END
