TITL C-1287-6203-51 -6.655 3375.00 -1222.61408102 0 0 146 (C1) n - 1
REM
REM Run started: at 2020.12.31 15:46:17 in /gpfs/home/chem/mssmkc/CARBON/AIRSS/Generating-Clusters/Str-Search/Higher-Symm/C100-200
REM VASP from code version vasp.5.4.4.18Apr17-6-g9f103f2a35 (build Oct 11 2019 16:45:47) gamma-only
REM
REM
REM
REM
REM ./C.cell (533062f00bc710175b3da973d35f2034)
REM AIRSS Version 0.9.1 bugfix July 2018 build 013d7b7c2542+ Fri, 06 Jul 2018 19:26:36 +0100
REM compiler GCC version 6.3.0
REM options -cpp -iprefix /gpfs/warwick/csc/orac/software/Core/GCCcore/6.3.0/bin/../lib/gcc/x86_64-pc-linux-gnu/6.3.0/ -mtune=generic -march=x86-64 -g -O0
REM seed 327178375 764878201 1115624928 -643984673 565727174 12196287 -320968710 1043515767 -1682435319 -1368091021 1062939993 -1683633700
REM
REM C.POTCAR (d86ddea03c3ceb6dc662c8ad6801f873)
REM 
CELL 1.54180   15.00000   15.00000   15.00000   90.00000   90.00000   90.00000
LATT -1
SFAC C  
C      1  0.1030403242683  0.4278352766003  0.4476169805747 1.0
C      1  0.9121796998580  0.4052798444783  0.4933574908459 1.0
C      1  0.1225913017356  0.4229177547020  0.5487775873255 1.0
C      1  0.9080039800588  0.4370756882051  0.5803834097677 1.0
C      1  0.0960272620019  0.4924526312072  0.6145144389188 1.0
C      1  0.9030020513594  0.5342940826739  0.5955226018083 1.0
C      1  0.0874122942921  0.5825347149486  0.5763654251526 1.0
C      1  0.9061581067267  0.5937056955306  0.5244520384333 1.0
C      1  0.1226402923520  0.5852166758280  0.4816135036417 1.0
C      1  0.9083926254485  0.5582732253022  0.4315622184524 1.0
C      1  0.1030754170966  0.5120580710248  0.4128124582710 1.0
C      1  0.9097463144216  0.4681578137003  0.4162704014812 1.0
C      1  0.2990930783986  0.4245532305365  0.5622058703502 1.0
C      1  0.6552064673688  0.4935282979793  0.6003537645834 1.0
C      1  0.2149368857073  0.5453447679642  0.5002417268112 1.0
C      1  0.7020149146818  0.5470933319951  0.5392931280685 1.0
C      1  0.2931118135429  0.5331370429471  0.4519619019932 1.0
C      1  0.7443510367781  0.4897187687209  0.4791975690588 1.0
C      1  0.3263210327122  0.4969912392485  0.3742645477105 1.0
C      1  0.6767474787763  0.4499008650780  0.4302399117753 1.0
C      1  0.4126121065362  0.4679425266183  0.4181542454004 1.0
C      1  0.7179044377133  0.3939175721237  0.5015080661987 1.0
C      1  0.2151520276512  0.4691493914884  0.5515153876025 1.0
C      1  0.6537999283955  0.4014941750302  0.5748426989455 1.0
C      1  0.5209936823322  0.7577325588423  0.7188831669626 1.0
C      1  0.4924575975153  0.8186258834856  0.5507834445128 1.0
C      1  0.4986859075770  0.7802557898511  0.3968996818485 1.0
C      1  0.4888594592661  0.6929679280030  0.2672891540068 1.0
C      1  0.5022206521172  0.5520103370484  0.1995496043787 1.0
C      1  0.4894604904379  0.3925199667322  0.2130830501515 1.0
C      1  0.5039707716487  0.2613676316773  0.2998029486577 1.0
C      1  0.4953382692107  0.1964852300403  0.4437688193544 1.0
C      1  0.5387134965421  0.1798760223074  0.6118606237312 1.0
C      1  0.4539647167033  0.3674069560923  0.7575514648219 1.0
C      1  0.5513183290670  0.4979298288064  0.7985364843272 1.0
C      1  0.4840807804524  0.6498576840594  0.7949926206539 1.0
C      1  0.6521964961783  0.2050181373936  0.5026113003298 1.0
C      1  0.3634107786509  0.2870187021523  0.6419794420001 1.0
C      1  0.6380287177481  0.3574199863121  0.7594705136687 1.0
C      1  0.3843618945565  0.5213008855757  0.7794187981902 1.0
C      1  0.6446701706161  0.6381593695158  0.7603600301746 1.0
C      1  0.3410167428845  0.7699126839540  0.6117186041649 1.0
C      1  0.6361516016568  0.7832432310306  0.5035940159879 1.0
C      1  0.3504384711952  0.7685220210592  0.3424896545191 1.0
C      1  0.6436810899406  0.6326229009297  0.2572592948289 1.0
C      1  0.3505062720275  0.4956636038438  0.2121726474539 1.0
C      1  0.6446173754709  0.3485528861111  0.2441062861391 1.0
C      1  0.3518364423285  0.2366633806740  0.3558280492202 1.0
C      1  0.7189531302744  0.4091740114555  0.7501757160030 1.0
C      1  0.3038049711056  0.5674813273874  0.7481252338640 1.0
C      1  0.7207255286248  0.6473405601720  0.7002142863722 1.0
C      1  0.2602975651096  0.7339334307415  0.5736149845689 1.0
C      1  0.7117696669232  0.7409516860970  0.4645983914246 1.0
C      1  0.2745472068403  0.7074938935716  0.3249830741644 1.0
C      1  0.7264107076672  0.5803143729212  0.2777875412586 1.0
C      1  0.2806899480398  0.4678797090243  0.2863358142904 1.0
C      1  0.7227527562868  0.3327169898870  0.3036843437515 1.0
C      1  0.2780856545098  0.2491005738771  0.4181839113451 1.0
C      1  0.7282861261327  0.2493855136013  0.5504417373901 1.0
C      1  0.2884133158501  0.3499956631763  0.6354859581329 1.0
C      1  0.1504767073678  0.3279939596065  0.5327228320013 1.0
C      1  0.8497188373649  0.4233843221195  0.6579730947715 1.0
C      1  0.1585117278058  0.5263185496603  0.6843539318075 1.0
C      1  0.8460449638171  0.5219202033487  0.6724754304920 1.0
C      1  0.1480672142327  0.6162161785215  0.6455941996736 1.0
C      1  0.8431747645616  0.6608075522342  0.4975982822390 1.0
C      1  0.1451827041323  0.6462102466607  0.4032071564755 1.0
C      1  0.8454531149063  0.6270285843654  0.4042423348235 1.0
C      1  0.1437540994027  0.5681027565785  0.3444578182200 1.0
C      1  0.8528272649908  0.4058969526152  0.3655125154051 1.0
C      1  0.1473754949679  0.3439070792951  0.4354327047038 1.0
C      1  0.8562004366045  0.3458100079647  0.4436219885401 1.0
C      1  0.2227154096666  0.6702701980884  0.6399067637625 1.0
C      1  0.7646728119853  0.6998599267526  0.5338676792986 1.0
C      1  0.2152952407204  0.7070085836104  0.4023460260780 1.0
C      1  0.7736910966774  0.6353678730679  0.3456055662852 1.0
C      1  0.2151477716462  0.5528823691391  0.2858922171575 1.0
C      1  0.7809297677624  0.4105200299666  0.3031067515584 1.0
C      1  0.2192436470882  0.3176850220562  0.3800920117706 1.0
C      1  0.7681525409816  0.3075328059205  0.4706243838585 1.0
C      1  0.2248829760410  0.2924316247058  0.5719761838138 1.0
C      1  0.7814880029376  0.3666002665963  0.6847976651498 1.0
C      1  0.2394748321081  0.4971064443449  0.7227155065300 1.0
C      1  0.7738458889762  0.5644548595118  0.7145029611287 1.0
C      1  0.5369331237967  0.7566299958301  0.6214911752149 1.0
C      1  0.4329648248907  0.7488468029153  0.4687475485879 1.0
C      1  0.5398986491985  0.6940465836483  0.3596283417625 1.0
C      1  0.4379540681950  0.6141586579095  0.2428603869496 1.0
C      1  0.5500747832430  0.4724925034362  0.2435817273605 1.0
C      1  0.4410907636111  0.3445649345660  0.2900497099782 1.0
C      1  0.5551086594785  0.2600072742309  0.3894639581651 1.0
C      1  0.4519701891999  0.2503839862037  0.5144871603954 1.0
C      1  0.5815731731129  0.2572040282452  0.6540372155506 1.0
C      1  0.4314439569311  0.2859064143699  0.7051927217700 1.0
C      1  0.5786081124200  0.5238197558069  0.6448890743602 1.0
C      1  0.4363510736647  0.7232186204700  0.7476984587335 1.0
C      1  0.5329802315329  0.4716760452310  0.3423453530593 1.0
C      1  0.4660183451799  0.3985231121118  0.3703650894157 1.0
C      1  0.5355053959859  0.3535235899514  0.4287123523562 1.0
C      1  0.5016346483508  0.3345643643123  0.5205186344045 1.0
C      1  0.5750277516413  0.3458151312846  0.5949022470421 1.0
C      1  0.4937255848310  0.3999808503797  0.5905246093193 1.0
C      1  0.4962130261161  0.4873603882036  0.6132665511183 1.0
C      1  0.5101063388800  0.5803755530513  0.6219009420334 1.0
C      1  0.4949954410526  0.6616744672161  0.5841147893276 1.0
C      1  0.4616796584371  0.6637707328458  0.4984403012815 1.0
C      1  0.5013055832837  0.6209666861989  0.4217351285514 1.0
C      1  0.4853466196332  0.5365700546321  0.3980192569054 1.0
C      1  0.7354486574114  0.2864089630996  0.6454275447562 1.0
C      1  0.2889690073841  0.4132734126218  0.7167271777499 1.0
C      1  0.7181991798609  0.5016572047250  0.7652857363089 1.0
C      1  0.2932824444056  0.6525720260230  0.7061326767859 1.0
C      1  0.7125429023263  0.7034236136604  0.6206818882034 1.0
C      1  0.2604212149528  0.7457216365857  0.4794100826721 1.0
C      1  0.7117667058169  0.7041895138739  0.3778453102070 1.0
C      1  0.2725953352674  0.6290449141935  0.2694744460707 1.0
C      1  0.7274908344889  0.4857456245912  0.2613987406023 1.0
C      1  0.2688065695871  0.3652653828982  0.3070443716653 1.0
C      1  0.7215841485870  0.2805090248415  0.3826260841538 1.0
C      1  0.2851355786926  0.2426194787551  0.5135877868319 1.0
C      1  0.6340221929312  0.7539073224158  0.5948707558797 1.0
C      1  0.3432050153237  0.7849939054344  0.4456470736098 1.0
C      1  0.6335689791259  0.6940324514047  0.3305084646169 1.0
C      1  0.3515866288979  0.5921684148787  0.2290000720967 1.0
C      1  0.6468496211912  0.4435199913038  0.2292016767490 1.0
C      1  0.3463963424605  0.3140595186589  0.2963495971480 1.0
C      1  0.6485208695859  0.2328149492429  0.4102414390511 1.0
C      1  0.3694330856057  0.2384389076056  0.5594219275811 1.0
C      1  0.6586564326609  0.2801044585012  0.7036789239218 1.0
C      1  0.3766492373800  0.4276886320100  0.7587924644986 1.0
C      1  0.6359662650037  0.5441609142660  0.7887169136681 1.0
C      1  0.3595179398524  0.7225278807212  0.6957006885303 1.0
C      1  0.3954090790998  0.8198721855437  0.5472527190042 1.0
C      1  0.5539732772417  0.8223484020350  0.4738053802193 1.0
C      1  0.4388351259631  0.7752271028648  0.3105275571796 1.0
C      1  0.5645710567103  0.6368906088214  0.2064087933629 1.0
C      1  0.4312839622576  0.4677808957813  0.1722068025543 1.0
C      1  0.5578236912651  0.3107241402552  0.2249113528981 1.0
C      1  0.4379297385190  0.1970905297279  0.3547967967935 1.0
C      1  0.5640055519623  0.1634304051712  0.5208922832158 1.0
C      1  0.4984756721408  0.2221868689558  0.6843127203066 1.0
C      1  0.5465671740686  0.4000336290886  0.7802162565221 1.0
C      1  0.4704341376189  0.5567377710750  0.8011812680412 1.0
C      1  0.5684844599222  0.6898427445139  0.7700184884936 1.0
C      1  0.3524933185277  0.4678968457157  0.4992879021799 1.0
C      1  0.5950235851207  0.4296066770151  0.4046410308613 1.0
END
