TITL C-1287-6203-38 -5.176 3375.00 -870.43972537 0 0 108 (C1) n - 1
REM
REM Run started: at 2020.12.31 05:37:09 in /gpfs/home/chem/mssmkc/CARBON/AIRSS/Generating-Clusters/Str-Search/Higher-Symm/C100-200
REM VASP from code version vasp.5.4.4.18Apr17-6-g9f103f2a35 (build Oct 11 2019 16:45:47) gamma-only
REM
REM
REM
REM
REM ./C.cell (533062f00bc710175b3da973d35f2034)
REM AIRSS Version 0.9.1 bugfix July 2018 build 013d7b7c2542+ Fri, 06 Jul 2018 19:26:36 +0100
REM compiler GCC version 6.3.0
REM options -cpp -iprefix /gpfs/warwick/csc/orac/software/Core/GCCcore/6.3.0/bin/../lib/gcc/x86_64-pc-linux-gnu/6.3.0/ -mtune=generic -march=x86-64 -g -O0
REM seed -1969620753 1927679130 -440325208 1424140818 704550022 1524937819 1399184468 -1930351980 8532376 70559558 828168517 -829629073
REM
REM C.POTCAR (d86ddea03c3ceb6dc662c8ad6801f873)
REM 
CELL 1.54180   15.00000   15.00000   15.00000   90.00000   90.00000   90.00000
LATT -1
SFAC C  
C      1  0.3749941990527  0.2123571286413  0.4122901454773 1.0
C      1  0.7458895173941  0.3482248468723  0.4130985400432 1.0
C      1  0.7398028330115  0.6462955856051  0.4249431916440 1.0
C      1  0.4124355147848  0.7982897868912  0.3900529867408 1.0
C      1  0.1917966263270  0.5031391684538  0.4253325353739 1.0
C      1  0.2420971643648  0.6173959503561  0.3281842466478 1.0
C      1  0.3439473532889  0.2831473618966  0.2707510228334 1.0
C      1  0.6457181247310  0.2908428725339  0.2990417669596 1.0
C      1  0.7651581901588  0.5333613942269  0.3259847270000 1.0
C      1  0.5643165538400  0.7885369226576  0.3163725772327 1.0
C      1  0.2341390519722  0.7223072795207  0.5177441660049 1.0
C      1  0.2524691994651  0.3022092464623  0.5036265973751 1.0
C      1  0.5785950344014  0.2020526150803  0.5139400534571 1.0
C      1  0.8243117230893  0.4454258472459  0.5331459116146 1.0
C      1  0.6096074611943  0.8184366159376  0.4897249456514 1.0
C      1  0.5782081627632  0.6161154250232  0.4323130314019 1.0
C      1  0.4965785738770  0.6711803621014  0.4456056048513 1.0
C      1  0.2910813784631  0.5061272792352  0.4480207182701 1.0
C      1  0.4510812974342  0.3540819784658  0.4429934512063 1.0
C      1  0.5988021739795  0.4391172889255  0.4474543017773 1.0
C      1  0.7670431081244  0.5232952319699  0.5760375806396 1.0
C      1  0.5496547101328  0.7834345670119  0.5625758654354 1.0
C      1  0.2570752739918  0.6280924159898  0.5601881616195 1.0
C      1  0.3210361148297  0.3178616902337  0.5773105778519 1.0
C      1  0.6229061916039  0.2886931975589  0.5547217156049 1.0
C      1  0.5695878945592  0.7070745400358  0.2644932676304 1.0
C      1  0.3226069332661  0.6334577104735  0.2815208603743 1.0
C      1  0.3395327079782  0.3835185222763  0.2507339190090 1.0
C      1  0.5560851749058  0.3025669537317  0.2604684107525 1.0
C      1  0.7204553822518  0.4797270061138  0.2663090898262 1.0
C      1  0.4933419034634  0.8367794125039  0.3582454373831 1.0
C      1  0.1885306165022  0.6005863180363  0.4063728244012 1.0
C      1  0.3057611096526  0.2336319392249  0.3410106928862 1.0
C      1  0.6834815271326  0.2744389508747  0.3877708338375 1.0
C      1  0.7901094239903  0.5675247265169  0.4112472350583 1.0
C      1  0.5325142395708  0.4338728094414  0.5929089284376 1.0
C      1  0.6630205984300  0.5291358805665  0.5701581356553 1.0
C      1  0.5401071953044  0.5999269519091  0.6198611866747 1.0
C      1  0.4163218243619  0.5649499065512  0.5632249503658 1.0
C      1  0.3701503124988  0.4061326897845  0.5941439343987 1.0
C      1  0.6945696850412  0.5951299637531  0.7046819062362 1.0
C      1  0.4146748479300  0.6774977454359  0.7005804688188 1.0
C      1  0.2997400875576  0.5331589966493  0.6853159195743 1.0
C      1  0.4839933468492  0.3193336504392  0.7041608958223 1.0
C      1  0.6724493274014  0.4019856807378  0.6968297345157 1.0
C      1  0.3314103005145  0.6416989444012  0.7224533372848 1.0
C      1  0.3421677046986  0.3161036427693  0.7443207035516 1.0
C      1  0.5761471841980  0.3015974427765  0.7162340096305 1.0
C      1  0.7270103342383  0.4815952288251  0.7317392771896 1.0
C      1  0.5483560153477  0.7383404001422  0.7271904883122 1.0
C      1  0.6521845049454  0.6443706142117  0.3788907898551 1.0
C      1  0.4332007787382  0.7011286016376  0.3851860298474 1.0
C      1  0.2692427612200  0.4611329236689  0.3749947794955 1.0
C      1  0.4395798278817  0.2846751476204  0.3863553930344 1.0
C      1  0.6741021102457  0.4054939992557  0.3904427325735 1.0
C      1  0.3433477596582  0.5557828341129  0.7702650187958 1.0
C      1  0.4230889133967  0.3538426595570  0.7749328650431 1.0
C      1  0.6044472262183  0.3787429178446  0.7661953192107 1.0
C      1  0.6707207765575  0.5475093026930  0.7849502595916 1.0
C      1  0.4897760689821  0.6717360865533  0.7644181323652 1.0
C      1  0.3476955473461  0.4996023650931  0.6050534860405 1.0
C      1  0.4604550911787  0.3693939928443  0.6199749568693 1.0
C      1  0.6299149801589  0.4413694282256  0.6117957765189 1.0
C      1  0.6303220199420  0.6000882221429  0.6338432115545 1.0
C      1  0.4537165160972  0.6514841511637  0.6103100732055 1.0
C      1  0.5006462874575  0.1561287823909  0.4966649661448 1.0
C      1  0.8013287068639  0.3557263615713  0.4870051317981 1.0
C      1  0.7510254433324  0.7187879097627  0.4839992311649 1.0
C      1  0.3412946516757  0.8214397820560  0.4417053588890 1.0
C      1  0.1459976148420  0.4335440018958  0.4760875752262 1.0
C      1  0.7006397395659  0.5741176122106  0.2624990426103 1.0
C      1  0.4876959865899  0.6683509798089  0.2393661340310 1.0
C      1  0.2780036956166  0.5516122465601  0.2644540040908 1.0
C      1  0.4269438138838  0.3881596943080  0.2713143124141 1.0
C      1  0.5720944935185  0.3968371285207  0.2590338607853 1.0
C      1  0.5786686899977  0.8324411687967  0.4007586699630 1.0
C      1  0.1889850297908  0.6508314133390  0.4889565405976 1.0
C      1  0.2849729586561  0.2540654980166  0.4319333326999 1.0
C      1  0.6483448304065  0.2370490010814  0.4700912993131 1.0
C      1  0.8210384231153  0.5272107322356  0.4927612308361 1.0
C      1  0.5012321291668  0.5889791558886  0.8099805406717 1.0
C      1  0.4237809371423  0.5263581382422  0.8081873912181 1.0
C      1  0.4561012594628  0.4340823817580  0.8136125509225 1.0
C      1  0.5532138577492  0.4412850396297  0.8127246579734 1.0
C      1  0.5825476993708  0.5329350790789  0.8145815916003 1.0
C      1  0.8553667363220  0.3529656533524  0.5573777051135 1.0
C      1  0.6914045231932  0.7773308276325  0.4949320715659 1.0
C      1  0.2729245410996  0.7961363718454  0.4820870146696 1.0
C      1  0.1785404889121  0.3597738735095  0.4963955047086 1.0
C      1  0.4245017196414  0.1466460595944  0.4644050701086 1.0
C      1  0.5998216036613  0.3851630610300  0.5342277648567 1.0
C      1  0.5939420795355  0.5353929939441  0.4897426361225 1.0
C      1  0.4936843631818  0.7120619424432  0.5372482957025 1.0
C      1  0.3240448561601  0.5562093692342  0.5235748719148 1.0
C      1  0.4157379784185  0.3416708772377  0.5349215916718 1.0
C      1  0.6477731543144  0.6493729198039  0.2825672228982 1.0
C      1  0.4134393797967  0.6675026159209  0.2924019033806 1.0
C      1  0.2850955946062  0.4586772547077  0.2808170059393 1.0
C      1  0.4526550539842  0.2928915736677  0.2866848331075 1.0
C      1  0.6650741084065  0.3990659257926  0.2890778498873 1.0
C      1  0.3145369967989  0.2866570641063  0.6711246145558 1.0
C      1  0.6489961011942  0.2939260373694  0.6544510493624 1.0
C      1  0.7735292997639  0.5432168533000  0.6740849036677 1.0
C      1  0.5623247748587  0.7818059609341  0.6572338115396 1.0
C      1  0.2589480226232  0.6153599956026  0.6598613012710 1.0
C      1  0.5124738445938  0.5267398475081  0.5557138928895 1.0
C      1  0.5096100502686  0.4248392963020  0.4032265797010 1.0
C      1  0.4995973879742  0.4371856985178  0.3111953880739 1.0
END
