TITL C-124067-8416-5 -3.949 3375.00 -710.69220783 0 0 87 (C1) n - 1
REM
REM Run started: at 2020.11.27 06:53:31 in /rds/project/t2_vol4/rds-t2-cs072/BORA/CARBON/AIRSS/Generating-Clusters/Str-Search/Higher-Symm/C10-100
REM VASP from code version vasp.5.4.4.18Apr17-6-g9f103f2a35 (build Oct 11 2019 16:45:47) gamma-only
REM
REM
REM
REM
REM ./C.cell (f39ce9773e2efe3fa5bbdf770a4156b8)
REM AIRSS Version 0.9.1 bugfix July 2018 build 013d7b7c2542+ Fri, 06 Jul 2018 19:26:36 +0100
REM compiler GCC version 4.8.5 20150623 (Red Hat 4.8.5-39)
REM options -cpp -mtune=generic -march=x86-64 -g -O0
REM seed 343677320 -776493737 -60781632 -1995654128 -995927462 1103621022 1655264195 152325052 -1357853498 -771979645 -1706582992 -1912974902
REM
REM C.POTCAR (d86ddea03c3ceb6dc662c8ad6801f873)
REM 
CELL 1.54180   15.00000   15.00000   15.00000   90.00000   90.00000   90.00000
LATT -1
SFAC C  
C      1  0.4487800333439  0.6068793573354  0.6220563632359 1.0
C      1  0.4509386021398  0.3824824505461  0.6058562898473 1.0
C      1  0.4595179508078  0.3959841945084  0.3759524368284 1.0
C      1  0.4510995900399  0.6258607690159  0.3986349594403 1.0
C      1  0.5477564958947  0.6036549415329  0.6192556370490 1.0
C      1  0.5504198360420  0.3768445582418  0.6052696874531 1.0
C      1  0.5590496476407  0.3933886270452  0.3721210680024 1.0
C      1  0.5509487961488  0.6249621921415  0.3940408345155 1.0
C      1  0.6810656148801  0.6956783256664  0.3973345241039 1.0
C      1  0.6829776070692  0.5927846583028  0.6797950114936 1.0
C      1  0.6808476944027  0.3049291393592  0.5993874329698 1.0
C      1  0.6915174188035  0.4089147764855  0.3120857283472 1.0
C      1  0.3168018734613  0.6867280573626  0.4108718532616 1.0
C      1  0.3216303100095  0.6071093561879  0.6996505134690 1.0
C      1  0.3180474923492  0.3178323563872  0.5954374157944 1.0
C      1  0.3254350619023  0.4031796475987  0.3090163916539 1.0
C      1  0.3276459715423  0.3252011297803  0.3727674282055 1.0
C      1  0.3199119664350  0.6245784904798  0.3307848804208 1.0
C      1  0.3239343183741  0.6836153294836  0.6349930914836 1.0
C      1  0.3191068009916  0.3823087709059  0.6727911866195 1.0
C      1  0.6887873562113  0.3277461084011  0.3736979838483 1.0
C      1  0.6788590206262  0.6321224058911  0.3208019350660 1.0
C      1  0.6821061846655  0.6688364837407  0.6148935519210 1.0
C      1  0.6785407434115  0.3700745795452  0.6784251498326 1.0
C      1  0.5881223293818  0.2987266759089  0.3893340144167 1.0
C      1  0.5804208004594  0.6103551985717  0.2973338824730 1.0
C      1  0.5827640465732  0.6990270759662  0.6035029154318 1.0
C      1  0.5795044764134  0.3917855374833  0.7023890881886 1.0
C      1  0.4256101715362  0.3008604546401  0.3926924537238 1.0
C      1  0.4198684453293  0.6099373337137  0.3022215632248 1.0
C      1  0.4231294699700  0.7046313658269  0.6103589867714 1.0
C      1  0.4193875024717  0.3958007823209  0.7019244260380 1.0
C      1  0.8087224595042  0.6125408152264  0.4059645071430 1.0
C      1  0.7843932613093  0.5581120432770  0.5713914323961 1.0
C      1  0.7911171568971  0.4043446877304  0.5778711114940 1.0
C      1  0.7870617803547  0.4396301992275  0.4281252014759 1.0
C      1  0.2191460687987  0.5729482393184  0.4413199609761 1.0
C      1  0.1990099004943  0.5931596502025  0.6126351142637 1.0
C      1  0.2204036842663  0.4297059986938  0.5599465206904 1.0
C      1  0.2123102453129  0.4228478191271  0.4058648606296 1.0
C      1  0.5488060411605  0.4863038226169  0.7246665987193 1.0
C      1  0.5495189964717  0.2744307567668  0.4842423597253 1.0
C      1  0.5524095106233  0.5171209268221  0.2763532253305 1.0
C      1  0.5480040542668  0.7274018949890  0.5131575953764 1.0
C      1  0.4535648709641  0.4878982609157  0.7262565728109 1.0
C      1  0.4541591778438  0.2805142804303  0.4856146620224 1.0
C      1  0.4568841228655  0.5171310183069  0.2756523360776 1.0
C      1  0.4527157532898  0.7282755418771  0.5164252970651 1.0
C      1  0.6035519169206  0.4357075053641  0.2930843183209 1.0
C      1  0.5948989865271  0.7075483342109  0.4309723970129 1.0
C      1  0.5955350789562  0.5671343191408  0.7010893112998 1.0
C      1  0.5944481828503  0.2928215554978  0.5683730754554 1.0
C      1  0.4114231039678  0.4344848896007  0.2967502129249 1.0
C      1  0.4039331466006  0.7073739279777  0.4362236101501 1.0
C      1  0.4070998052304  0.5709202674813  0.7062008061684 1.0
C      1  0.4060255084614  0.3007421784247  0.5670029359836 1.0
C      1  0.7577541147989  0.4748265115799  0.3436792714038 1.0
C      1  0.7590430830913  0.6735155173944  0.4553778021104 1.0
C      1  0.7515529383612  0.5299953501979  0.6573989726690 1.0
C      1  0.7536186011357  0.3274792142200  0.5380899045673 1.0
C      1  0.2515002334646  0.4630243700745  0.3303117621615 1.0
C      1  0.2493244734952  0.6568692120014  0.4764911509996 1.0
C      1  0.2456807738118  0.5450812099202  0.6760228501716 1.0
C      1  0.2512589573490  0.3426506210361  0.5316163346057 1.0
C      1  0.7479662794819  0.6484147673475  0.5484485585694 1.0
C      1  0.7464659757846  0.4327943428575  0.6601134744805 1.0
C      1  0.7496843809902  0.3466027957419  0.4425505477864 1.0
C      1  0.7534932358050  0.5717911364072  0.3374742007674 1.0
C      1  0.2518727689607  0.6643054717077  0.5733758408590 1.0
C      1  0.2557807294755  0.4511856525519  0.6512572222580 1.0
C      1  0.2579646255669  0.3412644119667  0.4347269251660 1.0
C      1  0.2566524275243  0.5581127421197  0.3489350036472 1.0
C      1  0.4046141118077  0.5494652712131  0.5519520957552 1.0
C      1  0.4096447816574  0.4545077065751  0.5502987421893 1.0
C      1  0.4373446387492  0.4608980631957  0.4538460183078 1.0
C      1  0.4105347767390  0.5578424384459  0.4577691537736 1.0
C      1  0.5818031295385  0.5439466777349  0.5475203343403 1.0
C      1  0.5931706368874  0.4461109950533  0.5451855596566 1.0
C      1  0.6048915188255  0.4510381076668  0.4451640850187 1.0
C      1  0.5938331596190  0.5514508739818  0.4501211638154 1.0
C      1  0.5071194053439  0.7631654422657  0.6415579233895 1.0
C      1  0.4974940651661  0.3604559236742  0.7642445458929 1.0
C      1  0.4944130501904  0.6413962615184  0.2370485423407 1.0
C      1  0.5117538197931  0.2342738679508  0.3628578112200 1.0
C      1  0.8034961179508  0.4784838465900  0.5167069583898 1.0
C      1  0.2015583886476  0.4846771219086  0.4804373598237 1.0
C      1  0.5232643567226  0.4878123114986  0.4852461752206 1.0
END
