TITL C-124067-8416-7 -3.105 3375.00 -491.75480007 0 0 62 (C3) n - 1
REM
REM Run started: at 2020.11.27 07:37:57 in /rds/project/t2_vol4/rds-t2-cs072/BORA/CARBON/AIRSS/Generating-Clusters/Str-Search/Higher-Symm/C10-100
REM VASP from code version vasp.5.4.4.18Apr17-6-g9f103f2a35 (build Oct 11 2019 16:45:47) gamma-only
REM
REM
REM
REM
REM ./C.cell (f39ce9773e2efe3fa5bbdf770a4156b8)
REM AIRSS Version 0.9.1 bugfix July 2018 build 013d7b7c2542+ Fri, 06 Jul 2018 19:26:36 +0100
REM compiler GCC version 4.8.5 20150623 (Red Hat 4.8.5-39)
REM options -cpp -mtune=generic -march=x86-64 -g -O0
REM seed -1364981693 1812844024 2094527679 -551468689 -1204695650 -1361787632 -1411006262 -1772670867 1031798909 -974789402 1386673674 -1414232798
REM
REM C.POTCAR (d86ddea03c3ceb6dc662c8ad6801f873)
REM 
CELL 1.54180   15.00000   15.00000   15.00000   90.00000   90.00000   90.00000
LATT -1
SFAC C  
C      1  0.3251702716390  0.6790257287014  0.3277868292534 1.0
C      1  0.3265072047935  0.2582087025298  0.4334877624021 1.0
C      1  0.3267549455807  0.5605125391311  0.7455477075342 1.0
C      1  0.4653562018634  0.4958599566092  0.7893407982523 1.0
C      1  0.4632014483092  0.7506055407057  0.3610748742394 1.0
C      1  0.4644649661404  0.2522255402469  0.3546839108742 1.0
C      1  0.4866594388808  0.3549862561429  0.4221186393741 1.0
C      1  0.4870044003606  0.5027068640540  0.6664581078776 1.0
C      1  0.4859019175467  0.6404519062688  0.4157642274514 1.0
C      1  0.6596589372658  0.5325205206382  0.5813395645962 1.0
C      1  0.6592816330462  0.5515181664816  0.4305999136059 1.0
C      1  0.6597304320885  0.4114121919791  0.4896182536976 1.0
C      1  0.6276385253015  0.4266754057664  0.7093253530145 1.0
C      1  0.6268538814617  0.7154706900394  0.4587604250014 1.0
C      1  0.6268649102377  0.3552135733300  0.3339482735578 1.0
C      1  0.5294923628153  0.4376021216986  0.7301155900747 1.0
C      1  0.5284653287282  0.7281087081839  0.4402222382942 1.0
C      1  0.5286377813272  0.3324535886761  0.3336409052495 1.0
C      1  0.3206668264520  0.6128626166157  0.6817364149030 1.0
C      1  0.3192849978975  0.5976921636447  0.3135048741211 1.0
C      1  0.3210011871253  0.2861619777729  0.5112011549803 1.0
C      1  0.5403069126927  0.5448274670388  0.2153783781471 1.0
C      1  0.5411383202775  0.2287732927981  0.6063928091428 1.0
C      1  0.5415660872818  0.7252430664529  0.6828821497841 1.0
C      1  0.3697741003219  0.2638784151152  0.3473740068000 1.0
C      1  0.3707075164797  0.4833063651015  0.7831352986491 1.0
C      1  0.3686209963824  0.7507729277606  0.3755597465909 1.0
C      1  0.7259703710451  0.4387712495452  0.5641930012766 1.0
C      1  0.7255463127122  0.5839488367957  0.5204407751046 1.0
C      1  0.7259036978382  0.4736029246196  0.4167213101998 1.0
C      1  0.3296452373317  0.3586122826635  0.6737647674560 1.0
C      1  0.3284821568511  0.7177841581597  0.5381384409198 1.0
C      1  0.3280738505314  0.4207496978408  0.2941746950261 1.0
C      1  0.5210652871875  0.6581351985204  0.7324599487599 1.0
C      1  0.5196984851333  0.6215134514986  0.2481039674637 1.0
C      1  0.5207269057561  0.2198529405650  0.5234068750563 1.0
C      1  0.5611660003001  0.4625749258573  0.2177405573217 1.0
C      1  0.5622037089046  0.2719946603331  0.6763865050906 1.0
C      1  0.5626262469451  0.7639281590519  0.6102236996884 1.0
C      1  0.6827260311214  0.4663548014013  0.6478309034091 1.0
C      1  0.6818793922148  0.6423176884157  0.4548299764358 1.0
C      1  0.6827483775816  0.3875092659238  0.3988842636861 1.0
C      1  0.4945412479315  0.5749132103015  0.7362885452086 1.0
C      1  0.4925132302541  0.6656639594226  0.3184714194781 1.0
C      1  0.4940950666076  0.2584371618685  0.4495920053647 1.0
C      1  0.5741183209540  0.3488064471187  0.7184177870959 1.0
C      1  0.5740545476159  0.7619929865798  0.5225828292171 1.0
C      1  0.5729558102447  0.3876037045356  0.2629788728431 1.0
C      1  0.3471558578602  0.5071272898405  0.3320420656568 1.0
C      1  0.3485940938699  0.3480310913012  0.5799474127141 1.0
C      1  0.3479779469963  0.6417058638494  0.5937182400506 1.0
C      1  0.4290358064437  0.5820077876695  0.4562058701654 1.0
C      1  0.4292086331188  0.4187465426244  0.4524918103922 1.0
C      1  0.4297783010462  0.4969215065669  0.5959384805849 1.0
C      1  0.3390656970008  0.3389579220011  0.2971475194308 1.0
C      1  0.3402696249385  0.4022633976478  0.7430984850999 1.0
C      1  0.3384933729910  0.7564813247826  0.4659074482849 1.0
C      1  0.4025245870782  0.5016155815216  0.4066419603364 1.0
C      1  0.4033035586311  0.4157864292423  0.5470742893122 1.0
C      1  0.4031241047068  0.5799731517049  0.5511718181634 1.0
C      1  0.7776958305082  0.4989366171157  0.5004334078313 1.0
C      1  0.6077418674508  0.4983970896303  0.5005699384060 1.0
END
