TITL C-12802-4528-17 -7.318 3375.00 -1434.75514125 0 0 173 (C1) n - 1
REM
REM Run started: at 2020.12.30 09:35:54 in /gpfs/home/chem/mssmkc/CARBON/AIRSS/Generating-Clusters/Str-Search/Higher-Symm/C100-200
REM VASP from code version vasp.5.4.4.18Apr17-6-g9f103f2a35 (build Oct 11 2019 16:45:47) gamma-only
REM
REM
REM
REM
REM ./C.cell (533062f00bc710175b3da973d35f2034)
REM AIRSS Version 0.9.1 bugfix July 2018 build 013d7b7c2542+ Fri, 06 Jul 2018 19:26:36 +0100
REM compiler GCC version 6.3.0
REM options -cpp -iprefix /gpfs/warwick/csc/orac/software/Core/GCCcore/6.3.0/bin/../lib/gcc/x86_64-pc-linux-gnu/6.3.0/ -mtune=generic -march=x86-64 -g -O0
REM seed 1561319614 -1884638436 1191368116 794635770 -900886682 1342214656 139178895 1858937154 260074032 556122364 1044566641 -1109642248
REM
REM C.POTCAR (d86ddea03c3ceb6dc662c8ad6801f873)
REM 
CELL 1.54180   15.00000   15.00000   15.00000   90.00000   90.00000   90.00000
LATT -1
SFAC C  
C      1  0.3753135466878  0.7849401327175  0.5636586134054 1.0
C      1  0.3468939967814  0.7281658417480  0.7884123812514 1.0
C      1  0.3773608540750  0.5007889249445  0.8013145582129 1.0
C      1  0.3602223191855  0.2821999232261  0.7441373963936 1.0
C      1  0.3614421608280  0.1821520705014  0.5488150750912 1.0
C      1  0.3723390824919  0.2348491868001  0.3422302552940 1.0
C      1  0.3823807775972  0.4157820341139  0.2215992881120 1.0
C      1  0.3378427514519  0.6300458776967  0.1502791385815 1.0
C      1  0.3597904395917  0.7620590606218  0.3401748933812 1.0
C      1  0.2790635546798  0.3046117773146  0.2726200876405 1.0
C      1  0.2747954570605  0.4979391717855  0.2106565877796 1.0
C      1  0.2662265551967  0.6694141286264  0.2640092754516 1.0
C      1  0.2704361731538  0.7657742557172  0.4471916576871 1.0
C      1  0.2788969218482  0.7411364989031  0.6482403260233 1.0
C      1  0.2771174820676  0.6083591521543  0.7684578686537 1.0
C      1  0.2800268541288  0.4094749202210  0.7737610709194 1.0
C      1  0.2632088318554  0.2401472498377  0.6526373274087 1.0
C      1  0.2700517046505  0.2025158723011  0.4500868539571 1.0
C      1  0.3676291016503  0.4085456737969  0.8101807998685 1.0
C      1  0.3477721069117  0.2083651888951  0.6892480418986 1.0
C      1  0.3530413271148  0.1552191083206  0.4595385556407 1.0
C      1  0.3781986937051  0.2657943183024  0.2525371519942 1.0
C      1  0.3600362763124  0.4880362373928  0.1667717387681 1.0
C      1  0.3418723213093  0.7039932885086  0.2079038586343 1.0
C      1  0.3514561243189  0.8076475375954  0.4218062101722 1.0
C      1  0.3624209176303  0.7889896758380  0.6578541327314 1.0
C      1  0.3538733811742  0.6414900575887  0.8243336350793 1.0
C      1  0.4537540902507  0.2180770628888  0.1981752316167 1.0
C      1  0.4616697303366  0.3895658279196  0.0281843448068 1.0
C      1  0.5031669274486  0.7218818380860  0.0204342296377 1.0
C      1  0.4598111687899  0.9444750553443  0.3357358028142 1.0
C      1  0.4857515231066  0.9561552570558  0.5760522047962 1.0
C      1  0.5020508725430  0.7363958807355  0.9381934959791 1.0
C      1  0.4731902511727  0.4214105898350  0.9527627213459 1.0
C      1  0.5005603122528  0.1260231672008  0.8086224279771 1.0
C      1  0.4931540625669  0.0453848101000  0.5773891337010 1.0
C      1  0.5114452206792  0.3782387562012  0.1037074327877 1.0
C      1  0.5196034796305  0.6761916295567  0.1007253914016 1.0
C      1  0.5066711822975  0.8701911565379  0.3205366882133 1.0
C      1  0.5130897563043  0.8788592275488  0.6061408196386 1.0
C      1  0.5314222580927  0.7398125956884  0.8482794209295 1.0
C      1  0.5236893006274  0.4679762261524  0.8925268827746 1.0
C      1  0.5300512183040  0.2071699245716  0.7897512953748 1.0
C      1  0.5165243484857  0.1117216074498  0.5244925884228 1.0
C      1  0.5168316541125  0.1802147924010  0.2590282197309 1.0
C      1  0.9135340351286  0.4356861158633  0.6369447609841 1.0
C      1  0.9497881854421  0.3766302609810  0.5723347086850 1.0
C      1  0.9016287625343  0.3842672371209  0.4831490921785 1.0
C      1  0.9299195456891  0.4601874653223  0.4424927738101 1.0
C      1  0.9284144496016  0.5450899843160  0.4378380871276 1.0
C      1  0.9035904532839  0.6251884294427  0.4729137326268 1.0
C      1  0.9499506185620  0.6319403744251  0.5620414640255 1.0
C      1  0.9072747288893  0.5887882663484  0.6332872140643 1.0
C      1  0.9650194925375  0.5152332577747  0.6574966131378 1.0
C      1  0.2940984968750  0.5129780966278  0.7406716806202 1.0
C      1  0.2827574058785  0.3340247786229  0.6993352109667 1.0
C      1  0.2774002932549  0.2434047658820  0.5511801682857 1.0
C      1  0.2869762033968  0.2737706559971  0.3770623547703 1.0
C      1  0.2948005176439  0.4084348294647  0.2739714741721 1.0
C      1  0.2626987995323  0.5907597440717  0.2103985740074 1.0
C      1  0.2853147171170  0.6937851620911  0.3602762625324 1.0
C      1  0.2916687706206  0.7270879406152  0.5444620477004 1.0
C      1  0.2704870516774  0.6946108106026  0.7285209316076 1.0
C      1  0.4886044815447  0.6097308204263  0.5641082158053 1.0
C      1  0.4978617526387  0.5404952189149  0.6284601366707 1.0
C      1  0.5117739982925  0.4438186747236  0.6237313354245 1.0
C      1  0.4724697718307  0.3906322342855  0.5587799674961 1.0
C      1  0.5325254632227  0.3653963476870  0.4853835187223 1.0
C      1  0.4727895595910  0.4116245849349  0.4252951680064 1.0
C      1  0.5085341572055  0.4793927576961  0.3728091432299 1.0
C      1  0.4954655343210  0.5743560891503  0.3871055950950 1.0
C      1  0.4865455243830  0.6249568758364  0.4668630501124 1.0
C      1  0.4105767828429  0.8311395156829  0.4931251695580 1.0
C      1  0.4088642682556  0.7839401004058  0.7435436913174 1.0
C      1  0.4188855559868  0.5749387326677  0.8423329076151 1.0
C      1  0.4186808304741  0.3264231341454  0.8021551609443 1.0
C      1  0.4098455918204  0.1723075567275  0.6269027114857 1.0
C      1  0.4134422463138  0.1639311568456  0.3842553058286 1.0
C      1  0.4358071792027  0.3441502076453  0.2307472584336 1.0
C      1  0.4014894366867  0.5642472314222  0.1237926290077 1.0
C      1  0.4021687527740  0.7610661716456  0.2565354614803 1.0
C      1  0.1242798825117  0.6080330954294  0.4065325218786 1.0
C      1  0.0921715900959  0.6194428115471  0.4860175516058 1.0
C      1  0.0451479707135  0.6098982226249  0.5633248547134 1.0
C      1  0.0530403273206  0.5308422826990  0.6217518468656 1.0
C      1  0.0966408383113  0.4513474322530  0.5945896343277 1.0
C      1  0.0442557869574  0.3760779505314  0.5704044485862 1.0
C      1  0.1101401935457  0.4060837556761  0.5097624239405 1.0
C      1  0.1187128302610  0.4350327660091  0.4223401920880 1.0
C      1  0.1208208991347  0.5167886354331  0.4019262343723 1.0
C      1  0.2900050602228  0.3955730461328  0.6178427733036 1.0
C      1  0.2808295860386  0.3435457765520  0.5316183880909 1.0
C      1  0.2889683517795  0.3586291775495  0.4325932280930 1.0
C      1  0.2948965871280  0.4347586947398  0.3706542451335 1.0
C      1  0.3153585342712  0.5200791554964  0.4084289868736 1.0
C      1  0.3029159540628  0.6144297225502  0.4205883721045 1.0
C      1  0.3021014776460  0.6316287823215  0.5170857453283 1.0
C      1  0.3134368543008  0.5489781552970  0.5661004860540 1.0
C      1  0.2975540919477  0.4903951867568  0.6401411428561 1.0
C      1  0.7211493336200  0.3442210708057  0.7089723293372 1.0
C      1  0.7173978759515  0.2471627466927  0.5463271663632 1.0
C      1  0.7192147431784  0.2681946731715  0.3704896918529 1.0
C      1  0.7102916514307  0.4059377921726  0.2476290117179 1.0
C      1  0.7005021223544  0.5846624188567  0.2388678341000 1.0
C      1  0.7070440234115  0.7290152756436  0.3504475934955 1.0
C      1  0.7068061013556  0.7578958036912  0.5236219479254 1.0
C      1  0.7117151023385  0.6736556063079  0.6887786920748 1.0
C      1  0.7257806959912  0.5134116521984  0.7601712255198 1.0
C      1  0.7612037842023  0.4201408317082  0.3968030148491 1.0
C      1  0.7800034732967  0.5046126723379  0.3485624362011 1.0
C      1  0.7765538566729  0.5925024158162  0.3762124336043 1.0
C      1  0.8016313054650  0.6434279358485  0.4587247858517 1.0
C      1  0.7739357884968  0.6214837957900  0.5544463183294 1.0
C      1  0.8101610885817  0.5621662385544  0.6280622171591 1.0
C      1  0.8139135658601  0.4571471133043  0.6337014381456 1.0
C      1  0.7672309062584  0.4006694389871  0.5652300858828 1.0
C      1  0.8020586440428  0.3692796173484  0.4748984238352 1.0
C      1  0.6232099373299  0.3797298669148  0.4849714214779 1.0
C      1  0.6617354284783  0.4262890061898  0.4125343656372 1.0
C      1  0.6054843336000  0.4890423210203  0.3698044616777 1.0
C      1  0.5963165545098  0.5834126684664  0.3868695042978 1.0
C      1  0.5866970827414  0.6334748008044  0.4680193542209 1.0
C      1  0.5886343340705  0.6187137449048  0.5614195046442 1.0
C      1  0.5976700275183  0.5480408949967  0.6251536863337 1.0
C      1  0.6098375551840  0.4543592728830  0.6240404318465 1.0
C      1  0.6677734416582  0.3973164877535  0.5699842021266 1.0
C      1  0.7358174829320  0.4972321419033  0.2636003002564 1.0
C      1  0.7303671851477  0.6440053852995  0.3109592560764 1.0
C      1  0.7457297541377  0.7300430860519  0.4412896429826 1.0
C      1  0.7330232529698  0.6938108725030  0.5937230459094 1.0
C      1  0.7522142982894  0.5897239532646  0.7072096093299 1.0
C      1  0.7579159104149  0.4324775760874  0.7176786226223 1.0
C      1  0.7286833782448  0.3208301684064  0.6123031142398 1.0
C      1  0.7521753919369  0.2771837685669  0.4632961740761 1.0
C      1  0.7357297070905  0.3531812476589  0.3259214822886 1.0
C      1  0.5790973951638  0.8533515048642  0.4656202312838 1.0
C      1  0.5817284609105  0.7795475043502  0.7066255929835 1.0
C      1  0.5965519575442  0.5908556674480  0.8422621640147 1.0
C      1  0.5931266947003  0.3466608972141  0.8174933996708 1.0
C      1  0.5922199763870  0.1791631177962  0.6427898106146 1.0
C      1  0.5899154122064  0.1597579635873  0.3936414588702 1.0
C      1  0.5964414632707  0.2984741528466  0.2045772391876 1.0
C      1  0.5713711835543  0.5329622755013  0.1379144061312 1.0
C      1  0.5772087163609  0.7568876639863  0.2388525119412 1.0
C      1  0.5103685948116  0.5591986522144  0.8734150385259 1.0
C      1  0.5077545815783  0.2980925620490  0.8205528619069 1.0
C      1  0.5025976747142  0.1349220285467  0.6221903738497 1.0
C      1  0.5041389681849  0.1485481383143  0.3486225269422 1.0
C      1  0.5048344290391  0.3039850218707  0.1693045083127 1.0
C      1  0.4933450995717  0.5812336678878  0.1065672881833 1.0
C      1  0.4920810649421  0.7997066128139  0.2526937660349 1.0
C      1  0.4920961723912  0.8853131113760  0.5049432697514 1.0
C      1  0.5035400171824  0.7844177466757  0.7675611465800 1.0
C      1  0.6307877002566  0.8130372711092  0.5370643631624 1.0
C      1  0.6439608740556  0.7157785732392  0.7398169785296 1.0
C      1  0.6513062483885  0.5138357703634  0.8196704846802 1.0
C      1  0.6512522670310  0.3008192077170  0.7559309616000 1.0
C      1  0.6424844580796  0.1886396149283  0.5594907083712 1.0
C      1  0.6521223388024  0.2087103156995  0.3385926968202 1.0
C      1  0.6394277800377  0.3813765240908  0.1915004638285 1.0
C      1  0.6272933366404  0.6001917996185  0.1818167336846 1.0
C      1  0.6341567413100  0.7795065502497  0.3175988175542 1.0
C      1  0.5785435627723  0.4377843268529  0.1400254178863 1.0
C      1  0.5835935794723  0.6876176723313  0.1726764659461 1.0
C      1  0.5850428534533  0.8415788655115  0.3731337694835 1.0
C      1  0.5831259552946  0.8204047610675  0.6222755907632 1.0
C      1  0.6048655341774  0.6819271308298  0.8204214545039 1.0
C      1  0.6006492992669  0.4356205848079  0.8468783222095 1.0
C      1  0.6037768878702  0.2219755652226  0.7244785841359 1.0
C      1  0.5920988480256  0.1520853589452  0.4872204126264 1.0
C      1  0.6046278314836  0.2224168461110  0.2561314071220 1.0
C      1  0.3468283419794  0.4954243099586  0.4954048133073 1.0
C      1  0.4094653785659  0.4287578923383  0.4960262669797 1.0
END
