TITL C-123431-5306-10 -15.113 3375.00 -2528.29386956 0 0 307 (C1) n - 1
REM
REM Run started: at 2020.11.24 00:19:08 in /rds/project/t2_vol4/rds-t2-cs072/BORA/CARBON/AIRSS/Generating-Clusters/Str-Search/Higher-Symm
REM VASP from code version vasp.5.4.4.18Apr17-6-g9f103f2a35 (build Oct 11 2019 16:45:47) gamma-only
REM
REM
REM
REM
REM ./C.cell (e5ae0387ce4d49c7c0135a1433873289)
REM AIRSS Version 0.9.1 bugfix July 2018 build 013d7b7c2542+ Fri, 06 Jul 2018 19:26:36 +0100
REM compiler GCC version 4.8.5 20150623 (Red Hat 4.8.5-39)
REM options -cpp -mtune=generic -march=x86-64 -g -O0
REM seed 626134486 513187376 1034640423 1520927747 -1216076087 -45604218 -1765126696 -1375005329 827909898 2058549596 -107713273 -469009877
REM
REM C.POTCAR (d86ddea03c3ceb6dc662c8ad6801f873)
REM 
CELL 1.54180   15.00000   15.00000   15.00000   90.00000   90.00000   90.00000
LATT -1
SFAC C  
C      1  0.9535907602886  0.7030207024269  0.0931151643715 1.0
C      1  0.9448108579554  0.3177921859826  0.1610158772547 1.0
C      1  0.2981784714505  0.7054248792835  0.3946631186063 1.0
C      1  0.3121575814416  0.2832983720554  0.3763503245730 1.0
C      1  0.4845998440531  0.2019768870197  0.8907774510522 1.0
C      1  0.4860079276221  0.8201471718890  0.9139200270326 1.0
C      1  0.7590577532943  0.8424885125995  0.8785357917597 1.0
C      1  0.7902894318642  0.1835052239395  0.9195470403335 1.0
C      1  0.5795283739150  0.2744243701688  0.3443497255041 1.0
C      1  0.5358533575748  0.7867570621662  0.3553229698064 1.0
C      1  0.7718992318408  0.7705621164907  0.4488274984213 1.0
C      1  0.7486957653585  0.1928700045916  0.5114358528125 1.0
C      1  0.3565173168177  0.9045036698415  0.4211876864454 1.0
C      1  0.3476142257213  0.1111814216959  0.4192925550068 1.0
C      1  0.8069165918038  0.0323550599731  0.2179191459132 1.0
C      1  0.7968039434648  0.9325313001334  0.2129132212060 1.0
C      1  0.6052227655779  0.6281409599733  0.7222167710555 1.0
C      1  0.6107237572860  0.4015265862097  0.7140734090795 1.0
C      1  0.0616389875599  0.1072055940039  0.2724432468468 1.0
C      1  0.0963297316748  0.8823510053460  0.2767017969970 1.0
C      1  0.4474023574166  0.3553034724116  0.9536782797734 1.0
C      1  0.4728600049184  0.6927065610255  0.0176898872222 1.0
C      1  0.2540189682058  0.1608672390760  0.5385788130689 1.0
C      1  0.2832265307538  0.8151630366465  0.5395784889487 1.0
C      1  0.3495778722187  0.2448571383410  0.7810042928948 1.0
C      1  0.3563560828755  0.7335678680881  0.8050815237055 1.0
C      1  0.9158286537534  0.1559913882889  0.5224537865170 1.0
C      1  0.9167569682845  0.8883596219686  0.5377618073806 1.0
C      1  0.3875401193455  0.6651544980369  0.0360751251928 1.0
C      1  0.3797998674973  0.3463340273607  0.0300104685191 1.0
C      1  0.4857431947755  0.7939807914981  0.5943012741065 1.0
C      1  0.4974258884615  0.2002792365425  0.5919482363297 1.0
C      1  0.9392788876476  0.2504719838953  0.5011740128673 1.0
C      1  0.9403084104945  0.8023819618674  0.4361656511409 1.0
C      1  0.2586067550005  0.6179977868796  0.4221592680566 1.0
C      1  0.2791986403774  0.3560624102575  0.4249803369735 1.0
C      1  0.2666147128274  0.3863488232048  0.8555837879594 1.0
C      1  0.2713980428018  0.5912610348241  0.8651990932611 1.0
C      1  0.3742035855144  0.0315623444156  0.8164021488188 1.0
C      1  0.3630270676838  0.9392286639019  0.8157486363318 1.0
C      1  0.2710542182207  0.8789725203993  0.9550500793234 1.0
C      1  0.2808706432069  0.1066418629478  0.9429059852271 1.0
C      1  0.2225191763601  0.3247267844507  0.4997404498504 1.0
C      1  0.2373377748339  0.6566892419165  0.5309610835702 1.0
C      1  0.0605399964893  0.8905411054307  0.1850014554984 1.0
C      1  0.0338669882717  0.1076025293542  0.1745984712616 1.0
C      1  0.3412183550029  0.8937168321891  0.5182659080241 1.0
C      1  0.3302225692806  0.0926090261884  0.5134513949068 1.0
C      1  0.9591129480330  0.8809613614909  0.8024580164246 1.0
C      1  0.9527166040872  0.1247664893649  0.8033952534301 1.0
C      1  0.6803488052813  0.7447079365276  0.4288510478993 1.0
C      1  0.7182610736422  0.2724760239500  0.4591762359085 1.0
C      1  0.7772195062989  0.1681553407256  0.8072839995863 1.0
C      1  0.7854046042759  0.8908911728070  0.7981666882327 1.0
C      1  0.3231587259892  0.6462132249685  0.1009986244729 1.0
C      1  0.3459030206204  0.3967773602942  0.0955098004652 1.0
C      1  0.6322475554738  0.1971625425783  0.7206967330818 1.0
C      1  0.5779498363300  0.8308916485881  0.7287145656184 1.0
C      1  0.5236823166226  0.1147794106814  0.8646573206793 1.0
C      1  0.5188864266114  0.8767498725568  0.7783460059662 1.0
C      1  0.8793621721049  0.3038016338392  0.9203215740803 1.0
C      1  0.8786328681042  0.6522057984527  0.8927049795964 1.0
C      1  0.0849499349349  0.3489320177574  0.2068133227834 1.0
C      1  0.0920082433485  0.7162316508618  0.1670140722728 1.0
C      1  0.8228939121870  0.1557215447558  0.5674826046646 1.0
C      1  0.8334960180898  0.8705621412520  0.5772896423213 1.0
C      1  0.0427177956868  0.8857264281693  0.7469761633940 1.0
C      1  0.0326588375336  0.1100558705473  0.7454610158264 1.0
C      1  0.2020634309105  0.1522379775902  0.6202236655436 1.0
C      1  0.2029300719407  0.8037863035290  0.5986515768466 1.0
C      1  0.2211432651646  0.5073357244474  0.2836438111361 1.0
C      1  0.2187068956095  0.5864051084222  0.3243216346720 1.0
C      1  0.3256670367734  0.7222797075320  0.5563343132123 1.0
C      1  0.3435686605421  0.1960548132502  0.5329087304033 1.0
C      1  0.3399024384272  0.8486687552785  0.0903960320362 1.0
C      1  0.3775318581494  0.1726956273932  0.0766460981696 1.0
C      1  0.4172604727683  0.8643358986559  0.7717606718804 1.0
C      1  0.4486851140920  0.0949353017771  0.8083591389828 1.0
C      1  0.5784561804639  0.9597276950793  0.9196511463448 1.0
C      1  0.6229244925745  0.0132651886120  0.9847881438817 1.0
C      1  0.1583431633196  0.7212264110552  0.5502189533764 1.0
C      1  0.1891633872393  0.2285630915103  0.4940273773412 1.0
C      1  0.4410305535503  0.9590256720609  0.2831928888530 1.0
C      1  0.4461578448900  0.0561232614079  0.2793172469655 1.0
C      1  0.9743783677599  0.3120781033816  0.9166061629848 1.0
C      1  0.9651821163070  0.6381830606743  0.8752926245301 1.0
C      1  0.6468830423207  0.4434457320227  0.2840269179504 1.0
C      1  0.6559610590599  0.5394328961438  0.2857207057944 1.0
C      1  0.4791931898989  0.8961929833612  0.5826213801306 1.0
C      1  0.4870633179922  0.0950440066963  0.5746700061996 1.0
C      1  0.8645881996804  0.7467726450161  0.4342280735460 1.0
C      1  0.8843297058251  0.3303267311158  0.4740010628479 1.0
C      1  0.7790000328076  0.8087678898359  0.0922606826171 1.0
C      1  0.7690127374339  0.2154727756171  0.1954957933836 1.0
C      1  0.4846302629116  0.5750574805999  0.8110131520023 1.0
C      1  0.4916782631152  0.4165244932854  0.7888055762918 1.0
C      1  0.4715455933681  0.0920799659516  0.1982468726899 1.0
C      1  0.4572974436618  0.9070046272858  0.2091639061687 1.0
C      1  0.1105437419265  0.5432478625217  0.9485689207083 1.0
C      1  0.1188883074687  0.4377110112605  0.9511043114178 1.0
C      1  0.4104008882624  0.4162012820408  0.2393673161856 1.0
C      1  0.4070819778794  0.6048212029499  0.2455985066520 1.0
C      1  0.6511011001169  0.7821763786217  0.6844700763152 1.0
C      1  0.7153408509773  0.2257717419911  0.7494772604196 1.0
C      1  0.0936136411223  0.4043942156824  0.6962301240130 1.0
C      1  0.1324701731833  0.5602739137530  0.6429969810252 1.0
C      1  0.1956810192768  0.5389297304287  0.8916980424535 1.0
C      1  0.1941777178865  0.4434011412014  0.8892716854009 1.0
C      1  0.0694953153745  0.6103242899067  0.0150305270556 1.0
C      1  0.0830898174875  0.3738835237006  0.0015609586761 1.0
C      1  0.2025872141388  0.0449577887496  0.9566857313971 1.0
C      1  0.1985551474608  0.9469958774566  0.9619024990581 1.0
C      1  0.5840844682958  0.4615407600031  0.7793208127577 1.0
C      1  0.5755886017103  0.5552013033147  0.7802000319384 1.0
C      1  0.5459141694158  0.0407063977585  0.5298799021495 1.0
C      1  0.5424343265550  0.9421050087088  0.5344564530215 1.0
C      1  0.4996260398439  0.5585800192240  0.2238271344643 1.0
C      1  0.4967877663849  0.4650219523551  0.2176719234740 1.0
C      1  0.7355400980684  0.6874021094209  0.6242154875310 1.0
C      1  0.6817848750408  0.3575227209110  0.6701659091565 1.0
C      1  0.5476972802292  0.7656315220500  0.6660488788894 1.0
C      1  0.5606273381492  0.2505266479373  0.6671842535170 1.0
C      1  0.1159358310038  0.9080941940538  0.9548142006504 1.0
C      1  0.1230646779552  0.0899772703982  0.9485030801068 1.0
C      1  0.0328217005299  0.1320382048613  0.6521185094735 1.0
C      1  0.0443209176821  0.8616354150394  0.6517408716311 1.0
C      1  0.1533039590842  0.6454911897326  0.6999774600629 1.0
C      1  0.1687509632497  0.3484842050397  0.6677603808910 1.0
C      1  0.0411885752242  0.2025693634234  0.2854485747545 1.0
C      1  0.9637059697731  0.6874307244391  0.2722488899911 1.0
C      1  0.0197461719522  0.3092481042306  0.0023371938410 1.0
C      1  0.0296374132674  0.5997825083196  0.9372304996811 1.0
C      1  0.7822389378602  0.9035239595407  0.3794083574278 1.0
C      1  0.7766443991383  0.0623111683685  0.3791075317620 1.0
C      1  0.8048955005943  0.6441949177610  0.5895302073059 1.0
C      1  0.7940206942232  0.3433243183666  0.4574839805623 1.0
C      1  0.0971447622364  0.9488034358847  0.5210421103242 1.0
C      1  0.0924130023551  0.0420337431285  0.5240806186146 1.0
C      1  0.3490419138083  0.2520462625736  0.0376497745870 1.0
C      1  0.3068034672550  0.7119437128085  0.0294664156959 1.0
C      1  0.0972778954056  0.9581733061332  0.7659073764391 1.0
C      1  0.0924226047084  0.0415051353786  0.7661874883014 1.0
C      1  0.7889132864034  0.9282387047574  0.9005237376101 1.0
C      1  0.7961333198840  0.0921243350316  0.9225734456280 1.0
C      1  0.0386064078314  0.3733843127769  0.7657406521814 1.0
C      1  0.0698563683045  0.6680341649942  0.7402865372600 1.0
C      1  0.6224288417347  0.0305137357675  0.4674147582502 1.0
C      1  0.6206275877491  0.9385912893247  0.4717570153182 1.0
C      1  0.2719653973998  0.3035303150353  0.8014184922995 1.0
C      1  0.2852225668710  0.6741246792593  0.8124347737447 1.0
C      1  0.7677032892135  0.0697623397882  0.2913861902819 1.0
C      1  0.7744958309690  0.8927277845622  0.2901334051311 1.0
C      1  0.3415746563855  0.2191849942703  0.6858798666773 1.0
C      1  0.3547704334867  0.7844701082771  0.7166055873341 1.0
C      1  0.0205466123854  0.5608202658075  0.1513213345941 1.0
C      1  0.0042540870001  0.4824606133873  0.1676412117863 1.0
C      1  0.4357349218207  0.5648730820078  0.7236925426212 1.0
C      1  0.4416788567626  0.4687624621489  0.7134271058736 1.0
C      1  0.3169562650869  0.6201367850884  0.1866033577714 1.0
C      1  0.3277966712625  0.4214252517231  0.1789833475078 1.0
C      1  0.7219816246516  0.0384159839673  0.4606901172283 1.0
C      1  0.7215325568696  0.9223037276108  0.4631767621373 1.0
C      1  0.7551419062706  0.9811041101287  0.8223396665693 1.0
C      1  0.7581698224742  0.0704067865295  0.8354333708730 1.0
C      1  0.6271644574082  0.7564389968870  0.5094276215744 1.0
C      1  0.6349733246544  0.2722215782955  0.5248106022788 1.0
C      1  0.2495738879661  0.7781633975709  0.6913106911215 1.0
C      1  0.2416538485881  0.2090555956758  0.6799759525640 1.0
C      1  0.4365238640326  0.2310489539741  0.3899550303524 1.0
C      1  0.3979707089280  0.8227073507039  0.4426117451643 1.0
C      1  0.7549533874396  0.8399159114166  0.5310691306084 1.0
C      1  0.7483725358253  0.1057547881191  0.5268453107771 1.0
C      1  0.0120878837432  0.3431546129134  0.8375159825852 1.0
C      1  0.0106083907642  0.6664177499223  0.7966596235594 1.0
C      1  0.1711077631216  0.7219631312076  0.2304043483856 1.0
C      1  0.1788344209588  0.3622791370183  0.2158357579579 1.0
C      1  0.0394069905758  0.9433067917557  0.4365058374692 1.0
C      1  0.0320496937754  0.0489438338694  0.4388135100841 1.0
C      1  0.8849027128244  0.2174537298855  0.0636652096178 1.0
C      1  0.7703228439047  0.7584984931834  0.0115661282173 1.0
C      1  0.2006540104684  0.3559418456848  0.5825056527253 1.0
C      1  0.1637247614485  0.6359621170162  0.5964327537773 1.0
C      1  0.0296589100687  0.3643617254409  0.4708255200707 1.0
C      1  0.9235242788439  0.6791629423117  0.4847681365554 1.0
C      1  0.7746830480148  0.5093474959145  0.3887206200206 1.0
C      1  0.7622783138415  0.4177177742369  0.4024233906259 1.0
C      1  0.6222741988300  0.7409419326496  0.3493173181531 1.0
C      1  0.7182393776988  0.2496835267385  0.2642084721072 1.0
C      1  0.5367538917869  0.8888450588966  0.8755891983551 1.0
C      1  0.5730916262606  0.0517061544384  0.9133595840749 1.0
C      1  0.2378124506427  0.4393013265837  0.2252299156616 1.0
C      1  0.2516044819602  0.6626265310228  0.2523777437604 1.0
C      1  0.3296155955649  0.8788955851349  0.8840453749008 1.0
C      1  0.3345767820458  0.1047170569504  0.8691335884813 1.0
C      1  0.8809547261743  0.0478957200578  0.9361715611043 1.0
C      1  0.8787003699190  0.9553657889156  0.9280761803620 1.0
C      1  0.3883867143260  0.9640841745489  0.3634473464887 1.0
C      1  0.3885156083721  0.0604846618656  0.3583705996175 1.0
C      1  0.0399574351592  0.6454603781955  0.1068184202661 1.0
C      1  0.0067572464531  0.3905114614182  0.1847407736500 1.0
C      1  0.6906917252448  0.7750875740941  0.5866046138330 1.0
C      1  0.6355912420267  0.2902774554213  0.6166419576724 1.0
C      1  0.7939023412434  0.7175946747623  0.0934436529607 1.0
C      1  0.6791972421883  0.2864967920887  0.3532562033563 1.0
C      1  0.9727781599832  0.7961686349365  0.0948490162934 1.0
C      1  0.9780750700863  0.2566293084380  0.0800267887829 1.0
C      1  0.3851248080994  0.4599596512937  0.3265088730958 1.0
C      1  0.3845956603030  0.5485412000220  0.3297651463390 1.0
C      1  0.4417766404980  0.4250924446857  0.8797621928945 1.0
C      1  0.4403136615326  0.5323396082247  0.8794805927834 1.0
C      1  0.8797626102117  0.6344455417514  0.5493556216240 1.0
C      1  0.9542140248062  0.3982643419628  0.4573890745503 1.0
C      1  0.0828770636773  0.7699943378362  0.5162644593198 1.0
C      1  0.1022683308732  0.2104032144037  0.5183173878660 1.0
C      1  0.3452336268885  0.4358817148852  0.4171619803066 1.0
C      1  0.3446786160940  0.5576813207455  0.4237386652737 1.0
C      1  0.1968207671165  0.2696631236568  0.2137042406096 1.0
C      1  0.1175221237946  0.7826226891503  0.2901190393730 1.0
C      1  0.5681813851763  0.4091966612952  0.2444872221452 1.0
C      1  0.5834388600158  0.5957528567249  0.2546121057935 1.0
C      1  0.1073787451914  0.1278432483732  0.5844418081404 1.0
C      1  0.1122337678689  0.8595546227056  0.5743980705797 1.0
C      1  0.8750632357552  0.0804824845715  0.1688337701046 1.0
C      1  0.9208942709176  0.8783447029457  0.1173421740052 1.0
C      1  0.3124974459469  0.1731054417416  0.0062742713439 1.0
C      1  0.2918395030663  0.8108531869759  0.0263508949190 1.0
C      1  0.8687737360680  0.6734892274992  0.1340425848888 1.0
C      1  0.9136751655018  0.2513758894823  0.2193688649801 1.0
C      1  0.8719908078602  0.8720456840264  0.7548006454357 1.0
C      1  0.8686175681610  0.1547101464747  0.7580739715237 1.0
C      1  0.4423346498453  0.3260406860917  0.2641681325192 1.0
C      1  0.4128605635883  0.7013752544185  0.2735143745465 1.0
C      1  0.9528247730262  0.2237432718283  0.3020063652375 1.0
C      1  0.8966204793112  0.6740827255074  0.2206542287955 1.0
C      1  0.9828093925904  0.9447850196490  0.1553055760884 1.0
C      1  0.9618817198238  0.0401746590756  0.1587113733348 1.0
C      1  0.9472048404776  0.8993192831251  0.4439452442551 1.0
C      1  0.9391762706846  0.0890651115295  0.4473732103202 1.0
C      1  0.3975338709462  0.7330312636527  0.6301366374077 1.0
C      1  0.3964287113302  0.2185566572595  0.6103886450830 1.0
C      1  0.3199202863232  0.7148764839772  0.3068217512154 1.0
C      1  0.3924595602748  0.2764607930362  0.3217751998625 1.0
C      1  0.6902492501853  0.6849019288257  0.7155179202432 1.0
C      1  0.7440544578643  0.3209715008553  0.7302625014176 1.0
C      1  0.8290456740852  0.8807034231551  0.1342210141189 1.0
C      1  0.8583604330437  0.1830398184101  0.1600007074901 1.0
C      1  0.3973219635009  0.9512181668779  0.5770175818093 1.0
C      1  0.3974901291560  0.0432511322973  0.5710660241979 1.0
C      1  0.5006458712385  0.7635349361445  0.9838269272362 1.0
C      1  0.4887964436854  0.2789188748368  0.9328989718808 1.0
C      1  0.0036542658010  0.7418456039542  0.4771293969072 1.0
C      1  0.0302305037849  0.2715166878356  0.5019717232708 1.0
C      1  0.5513427299332  0.2338739746412  0.5047879995192 1.0
C      1  0.5352897862816  0.7688628152382  0.5110371902394 1.0
C      1  0.5244293343540  0.3461274676205  0.7066686750407 1.0
C      1  0.5361311523310  0.6730299751775  0.6833912236592 1.0
C      1  0.4064191490733  0.4100949218172  0.4858668924626 1.0
C      1  0.4044781913423  0.5812724119988  0.4942563896436 1.0
C      1  0.3998340034423  0.1800578699557  0.8370317965440 1.0
C      1  0.4001589400890  0.8078392037233  0.8580915962357 1.0
C      1  0.4486396088565  0.6367847534356  0.6521287855085 1.0
C      1  0.4615452067334  0.4032670585141  0.6492942517849 1.0
C      1  0.9609740222420  0.8693188060860  0.6200082435600 1.0
C      1  0.9504125095477  0.1429833652745  0.6166422989878 1.0
C      1  0.2092082665892  0.2846070333804  0.7318332481230 1.0
C      1  0.2281625949393  0.6982563369308  0.7361672872101 1.0
C      1  0.6876488730356  0.2584110303081  0.1744201033210 1.0
C      1  0.5812605590579  0.6862494348063  0.2812284058500 1.0
C      1  0.0389206069223  0.9510291176521  0.9330783206407 1.0
C      1  0.0415465790559  0.0519739921817  0.9305470889494 1.0
C      1  0.5257852424406  0.2353172535332  0.4125772335459 1.0
C      1  0.4912341478030  0.7982308209490  0.4337943249420 1.0
C      1  0.8699896550298  0.0372881117836  0.4053043162026 1.0
C      1  0.8723540893685  0.9458407770082  0.3994263321549 1.0
C      1  0.4395465538084  0.4010953639685  0.5601058570991 1.0
C      1  0.4443135678591  0.5967923969932  0.5635744067510 1.0
C      1  0.9584015427429  0.9140695351531  0.8909933975262 1.0
C      1  0.9591386709889  0.0911301722116  0.8947385308914 1.0
C      1  0.7698663471642  0.7605991776125  0.9179868294266 1.0
C      1  0.8422710306656  0.2356487787811  0.9810526817878 1.0
C      1  0.7737550380125  0.5571996447938  0.7739703543413 1.0
C      1  0.7810670773803  0.4750750811345  0.7784746098348 1.0
C      1  0.3414561933834  0.4386443082604  0.8717769871555 1.0
C      1  0.3440563239325  0.5325828179791  0.8784000114780 1.0
C      1  0.4472131233492  0.1270424828853  0.1144609146605 1.0
C      1  0.4126731172053  0.8751457975454  0.1309401837926 1.0
C      1  0.8766380879890  0.8657320668013  0.6651295427162 1.0
C      1  0.8693388053646  0.1540623359267  0.6632271396454 1.0
C      1  0.6967130309443  0.3871071399589  0.3424250613874 1.0
C      1  0.7297808378301  0.5610973571193  0.3403587401953 1.0
C      1  0.0573731498187  0.8073517610576  0.1354773935834 1.0
C      1  0.0431016294877  0.1944646601866  0.1376472712062 1.0
C      1  0.0436429046362  0.7274866009895  0.2620980698950 1.0
C      1  0.0924949243187  0.2499613788679  0.2090556416201 1.0
C      1  0.4789235989853  0.9465581068138  0.1258068406720 1.0
C      1  0.4832428555188  0.0377557399923  0.1214006349178 1.0
C      1  0.7993007899412  0.6841710959434  0.8628363517665 1.0
C      1  0.8285853872114  0.3488745667052  0.8646884149173 1.0
C      1  0.3328090192172  0.7557403349341  0.4656621776810 1.0
C      1  0.3536705442684  0.2087957167610  0.4348286176216 1.0
C      1  0.7886996964423  0.3823099842502  0.7913014778803 1.0
C      1  0.7550636413216  0.6471160156262  0.7863665111022 1.0
C      1  0.5356313976945  0.3233103494603  0.2753879332587 1.0
C      1  0.4960911013714  0.7368151713850  0.2817135761760 1.0
C      1  0.0650150342027  0.0425899400274  0.3376454183083 1.0
C      1  0.0768846237966  0.9473160025305  0.3409499813337 1.0
C      1  0.0948348882483  0.4843987617620  0.6555207413824 1.0
END
