TITL C-124067-8416-15 -2.418 3375.00 -389.25314106 0 0 48 (C1) n - 1
REM
REM Run started: at 2020.11.27 09:52:13 in /rds/project/t2_vol4/rds-t2-cs072/BORA/CARBON/AIRSS/Generating-Clusters/Str-Search/Higher-Symm/C10-100
REM VASP from code version vasp.5.4.4.18Apr17-6-g9f103f2a35 (build Oct 11 2019 16:45:47) gamma-only
REM
REM
REM
REM
REM ./C.cell (f39ce9773e2efe3fa5bbdf770a4156b8)
REM AIRSS Version 0.9.1 bugfix July 2018 build 013d7b7c2542+ Fri, 06 Jul 2018 19:26:36 +0100
REM compiler GCC version 4.8.5 20150623 (Red Hat 4.8.5-39)
REM options -cpp -mtune=generic -march=x86-64 -g -O0
REM seed -1327478705 383184654 -1058992246 86365379 95207449 1469552806 1948949856 -1055691199 1115443931 2085833179 1741906420 -1846371701
REM
REM C.POTCAR (d86ddea03c3ceb6dc662c8ad6801f873)
REM 
CELL 1.54180   15.00000   15.00000   15.00000   90.00000   90.00000   90.00000
LATT -1
SFAC C  
C      1  0.4433556762865  0.6106394878326  0.3174378715950 1.0
C      1  0.2657279968147  0.5655368111566  0.5118704308949 1.0
C      1  0.4203981480969  0.5932491745900  0.7381726689855 1.0
C      1  0.6844064817113  0.5913300264160  0.6431932322845 1.0
C      1  0.6767164050778  0.5585299751951  0.3429578297174 1.0
C      1  0.3834304426532  0.4466982710849  0.3594874145692 1.0
C      1  0.3180855100141  0.4327043893751  0.5931239414427 1.0
C      1  0.5161109241616  0.4471447173114  0.7140157094253 1.0
C      1  0.6964864129213  0.4385406673693  0.5652769701092 1.0
C      1  0.5919749933148  0.4163977881519  0.3546449595898 1.0
C      1  0.3076698286653  0.6828512483425  0.4000808729799 1.0
C      1  0.2820569374291  0.6539957887884  0.6551971132590 1.0
C      1  0.5746937527951  0.6415125216116  0.7538824509141 1.0
C      1  0.6829726728804  0.6481323770539  0.4820260222630 1.0
C      1  0.5894296347043  0.6153338868033  0.2396556534586 1.0
C      1  0.3636128915065  0.3360768216727  0.4802204532362 1.0
C      1  0.4132683572464  0.3502880629124  0.6502289217295 1.0
C      1  0.5945043643277  0.3549487779319  0.6452448727617 1.0
C      1  0.6502766992767  0.3440221045018  0.4750876061461 1.0
C      1  0.4769071624808  0.3776885225002  0.2332689475838 1.0
C      1  0.6997677299256  0.6333192453387  0.5612059851511 1.0
C      1  0.6558388213566  0.5618571063555  0.2501297829550 1.0
C      1  0.3712614313315  0.6561033937030  0.3547318931007 1.0
C      1  0.2559701982921  0.6411751542218  0.5681276808413 1.0
C      1  0.4900010558058  0.6450052324842  0.7703349918623 1.0
C      1  0.6920911633152  0.4329936444825  0.4688869064883 1.0
C      1  0.5162341421905  0.4448184810763  0.2990032895777 1.0
C      1  0.3387822700789  0.4247401508933  0.4399699994455 1.0
C      1  0.3734072042278  0.4398528942081  0.6712880309737 1.0
C      1  0.6091945764484  0.4440220692141  0.6866946745733 1.0
C      1  0.4226258660135  0.3791192307743  0.3014241259387 1.0
C      1  0.3539313646828  0.3446034127499  0.5722597246012 1.0
C      1  0.5011027834304  0.3560523508898  0.6747343260749 1.0
C      1  0.6501289308374  0.3500869699861  0.5719955945906 1.0
C      1  0.5897625813078  0.3310074705157  0.4054205985021 1.0
C      1  0.5272441437153  0.6571562248292  0.2921500434023 1.0
C      1  0.2650168506630  0.6520724551167  0.4759320663073 1.0
C      1  0.3387358978829  0.6301889171216  0.7106908310927 1.0
C      1  0.6509270629252  0.6383656385194  0.7152770902405 1.0
C      1  0.6557274299015  0.6430010849767  0.3928808034294 1.0
C      1  0.6608321004464  0.4744759312891  0.3888062345885 1.0
C      1  0.4457632690723  0.5177425097866  0.3249587815554 1.0
C      1  0.4358704034761  0.5000525240732  0.7122542732757 1.0
C      1  0.6755321614500  0.4949171796721  0.6392277338032 1.0
C      1  0.3011073040290  0.4804652380012  0.5116885428517 1.0
C      1  0.5099732128728  0.2859725609051  0.4193830427712 1.0
C      1  0.5800793689148  0.6883017176264  0.3640867331185 1.0
C      1  0.4300572830418  0.2847129905878  0.4397032759418 1.0
END
