TITL C-1287-6203-30 -6.484 3375.00 -1122.72622222 0 0 138 (C1) n - 1
REM
REM Run started: at 2020.12.30 21:59:56 in /gpfs/home/chem/mssmkc/CARBON/AIRSS/Generating-Clusters/Str-Search/Higher-Symm/C100-200
REM VASP from code version vasp.5.4.4.18Apr17-6-g9f103f2a35 (build Oct 11 2019 16:45:47) gamma-only
REM
REM
REM
REM
REM ./C.cell (533062f00bc710175b3da973d35f2034)
REM AIRSS Version 0.9.1 bugfix July 2018 build 013d7b7c2542+ Fri, 06 Jul 2018 19:26:36 +0100
REM compiler GCC version 6.3.0
REM options -cpp -iprefix /gpfs/warwick/csc/orac/software/Core/GCCcore/6.3.0/bin/../lib/gcc/x86_64-pc-linux-gnu/6.3.0/ -mtune=generic -march=x86-64 -g -O0
REM seed 1369539109 1801903922 1395490495 -892984210 1784255644 -1376543412 -1446316562 1867936155 -1266118137 -1792891410 -1983457872 1902799402
REM
REM C.POTCAR (d86ddea03c3ceb6dc662c8ad6801f873)
REM 
CELL 1.54180   15.00000   15.00000   15.00000   90.00000   90.00000   90.00000
LATT -1
SFAC C  
C      1  0.3849449018472  0.6959364331543  0.5516440807295 1.0
C      1  0.7275790647758  0.3155614281752  0.3510016237468 1.0
C      1  0.4981533975695  0.3155118249334  0.2245136781481 1.0
C      1  0.5196560102721  0.8881609953777  0.6033600692739 1.0
C      1  0.2058450658367  0.5575317440566  0.5916527001947 1.0
C      1  0.4068993852657  0.4380934204783  0.3000111337989 1.0
C      1  0.6743848185471  0.4910064632048  0.7688347603614 1.0
C      1  0.2670844988081  0.4887310314556  0.3495271152566 1.0
C      1  0.7325384687088  0.6561697047225  0.2324201447966 1.0
C      1  0.4247077052959  0.7863753445521  0.6864736082032 1.0
C      1  0.6064438655918  0.4351511025784  0.1591552620661 1.0
C      1  0.6405152093604  0.6795889689629  0.4273323239004 1.0
C      1  0.3186145625310  0.3515668442105  0.2446757583982 1.0
C      1  0.5311650083481  0.4591714013901  0.3892342931323 1.0
C      1  0.6421978346544  0.3411871541281  0.8389790966698 1.0
C      1  0.4423902131913  0.3967456630085  0.6999855689978 1.0
C      1  0.7265722465857  0.2715032709290  0.6057452109816 1.0
C      1  0.4060596802954  0.5411313821614  0.7569296862576 1.0
C      1  0.6667614610684  0.7684104268142  0.6405785892847 1.0
C      1  0.6959422007076  0.2711791066238  0.5050842961965 1.0
C      1  0.8070417830767  0.3897593397157  0.4831594644802 1.0
C      1  0.1343262199763  0.6267852645892  0.3557591435050 1.0
C      1  0.3412216219829  0.8120405146689  0.3830038883004 1.0
C      1  0.4292260327079  0.1872199174971  0.3566511435160 1.0
C      1  0.3920562935478  0.6326412055149  0.7393719750406 1.0
C      1  0.5830114571767  0.3612452793459  0.6055464665467 1.0
C      1  0.3866604796000  0.8599895911243  0.4553855767494 1.0
C      1  0.4024365266501  0.2950855958409  0.2371442090486 1.0
C      1  0.7486816837905  0.4675027458500  0.4606855167877 1.0
C      1  0.3468084483348  0.4605774134933  0.5791582164894 1.0
C      1  0.2951013765543  0.6137604452377  0.7177954434723 1.0
C      1  0.7100583115154  0.3664617995352  0.2746509879552 1.0
C      1  0.4385707743399  0.3319017153429  0.7763541679843 1.0
C      1  0.4554391351115  0.7013793628667  0.7241132816877 1.0
C      1  0.7635125741897  0.3551465838286  0.6411336282139 1.0
C      1  0.5790634935898  0.5027142071175  0.7092858060784 1.0
C      1  0.4989688602230  0.6249146990683  0.4362774681699 1.0
C      1  0.7439374426646  0.5490386951434  0.4245580779855 1.0
C      1  0.5490349135783  0.8406865855717  0.5268241403124 1.0
C      1  0.5476451779718  0.6741431091742  0.7171962209315 1.0
C      1  0.6200976029165  0.6826247740450  0.5276106785848 1.0
C      1  0.4760959702011  0.3598714216441  0.8578162214652 1.0
C      1  0.7529921199326  0.7160712728580  0.1657323508735 1.0
C      1  0.6221550219603  0.4205984734910  0.6650126348749 1.0
C      1  0.1655286778926  0.4064714927363  0.5685389521240 1.0
C      1  0.8169951902994  0.4052103665337  0.5797965359424 1.0
C      1  0.7718770122823  0.6785055392539  0.3220816917185 1.0
C      1  0.2486576066189  0.6359162220288  0.6414555683553 1.0
C      1  0.5990172433066  0.3894042748450  0.4206273234065 1.0
C      1  0.8056990177015  0.5467527145663  0.6856320067264 1.0
C      1  0.2755888521501  0.7443407543081  0.4099282846399 1.0
C      1  0.6722590507792  0.5817766495011  0.2272382379817 1.0
C      1  0.8003901278957  0.6261607319359  0.3996827131311 1.0
C      1  0.2532963981218  0.3331110433101  0.3905150945014 1.0
C      1  0.6498245834058  0.5819476521031  0.4027542783778 1.0
C      1  0.4472395914043  0.4679894662074  0.2080669907567 1.0
C      1  0.6069076931557  0.6013741739268  0.5786577239473 1.0
C      1  0.6329344664644  0.7183699935510  0.7169941637045 1.0
C      1  0.5268061701769  0.4379839775702  0.8418628984607 1.0
C      1  0.5612307526696  0.5059391628723  0.3062629336706 1.0
C      1  0.2650828820254  0.6423649599873  0.2593396970760 1.0
C      1  0.4860949384071  0.4798489245514  0.7537774741268 1.0
C      1  0.3134202011251  0.2478148597519  0.5345410159387 1.0
C      1  0.2853043506863  0.2925735589381  0.3134792633633 1.0
C      1  0.1937932680413  0.4658599140601  0.6385964952847 1.0
C      1  0.7344367701841  0.7146427661237  0.4044389884713 1.0
C      1  0.6393244887243  0.5560692569679  0.3099449331750 1.0
C      1  0.5754762147128  0.5931924188836  0.6671061743299 1.0
C      1  0.3209970976649  0.3121890578968  0.4567803559293 1.0
C      1  0.1565794238574  0.5509245026818  0.5022064528371 1.0
C      1  0.4922604861225  0.3884760150440  0.6059629981326 1.0
C      1  0.6040742499196  0.2275207321062  0.7183827112064 1.0
C      1  0.2886140360811  0.7056570211200  0.5844113438592 1.0
C      1  0.2680328390132  0.4456381015959  0.7003300307093 1.0
C      1  0.5571168654016  0.2796059447271  0.2932234661632 1.0
C      1  0.8335805230940  0.4944011198131  0.6123616780012 1.0
C      1  0.6039957215705  0.1793991732540  0.5863092628581 1.0
C      1  0.3565969199863  0.5621801268650  0.4787828124694 1.0
C      1  0.5594615783968  0.5457056981350  0.4411531539109 1.0
C      1  0.4187914073088  0.4929527330523  0.5257234297304 1.0
C      1  0.4406594169790  0.4163765257176  0.3846314253804 1.0
C      1  0.3459245427590  0.3936451502622  0.6545873031944 1.0
C      1  0.7475119828364  0.7104350415418  0.6398291807982 1.0
C      1  0.4178471396924  0.6394553821812  0.4893671305763 1.0
C      1  0.3971589927554  0.1823265423065  0.5274511741704 1.0
C      1  0.4468995511375  0.1645828583222  0.4516659196311 1.0
C      1  0.2174811357062  0.2429269435243  0.5598564902327 1.0
C      1  0.6062602439641  0.5346963476810  0.1643001833338 1.0
C      1  0.5453993203092  0.6952307165929  0.3984495999143 1.0
C      1  0.3523164111943  0.5152738950486  0.1988830542065 1.0
C      1  0.3650974090106  0.3002000482644  0.6068444093547 1.0
C      1  0.3354423406480  0.8282995817101  0.5278520070264 1.0
C      1  0.3105311863490  0.5191958619974  0.7411962297188 1.0
C      1  0.1692706229953  0.4542511382587  0.4818092132011 1.0
C      1  0.4864444330029  0.7677314001851  0.3880607922785 1.0
C      1  0.5233767340631  0.2113429900717  0.3467990634804 1.0
C      1  0.4843678405918  0.8370431021310  0.4513056597697 1.0
C      1  0.7370860703654  0.5713993524770  0.7458853541989 1.0
C      1  0.7620511503737  0.3145581668809  0.4408198176874 1.0
C      1  0.4061569270049  0.2932394119825  0.8553656403828 1.0
C      1  0.3620084466502  0.7743207439584  0.6089356412493 1.0
C      1  0.5469322459675  0.1835870065559  0.4360877884984 1.0
C      1  0.3175333930878  0.5969981058364  0.1983688210535 1.0
C      1  0.1235259310993  0.6087619673951  0.4405394029444 1.0
C      1  0.7053313083652  0.4138167862666  0.6996587128217 1.0
C      1  0.5268600593713  0.5207739626016  0.2236148346972 1.0
C      1  0.7987777342674  0.6702089072034  0.5689733955318 1.0
C      1  0.5338419230721  0.2118853490075  0.6432582344884 1.0
C      1  0.6304476782827  0.3304944082957  0.3427390793119 1.0
C      1  0.6233124124995  0.4332697016152  0.8416376140092 1.0
C      1  0.1760950099058  0.3139241942338  0.5711598605883 1.0
C      1  0.3960885576072  0.7454130232077  0.3505192490079 1.0
C      1  0.4458067387992  0.2348964163033  0.5999942644427 1.0
C      1  0.2647408644980  0.7605824304530  0.5020212191775 1.0
C      1  0.4044657772248  0.3543575283488  0.4547450958410 1.0
C      1  0.6191534714803  0.1975637625151  0.4949845574100 1.0
C      1  0.4412149092751  0.3277093126509  0.5483928174795 1.0
C      1  0.6221775324848  0.2715163794029  0.7955675087155 1.0
C      1  0.2166936132106  0.4260106123229  0.4034771935821 1.0
C      1  0.5150782384184  0.3936225744532  0.1719767818490 1.0
C      1  0.6265572324095  0.3514305304167  0.5160159096650 1.0
C      1  0.2954732122606  0.5298430050787  0.5523013719216 1.0
C      1  0.4768410571066  0.8596457911254  0.6701366532112 1.0
C      1  0.7148434946540  0.6614443308662  0.7194475196762 1.0
C      1  0.3148473344689  0.6640293198759  0.3481986789860 1.0
C      1  0.8322230196755  0.5879372776159  0.6047244208064 1.0
C      1  0.6569889395189  0.4407405984090  0.4890931957594 1.0
C      1  0.6709651205950  0.2115576599920  0.6478661820162 1.0
C      1  0.7650627763287  0.7771462152064  0.1073158536730 1.0
C      1  0.5880362123434  0.5139405039051  0.5287204551464 1.0
C      1  0.1739749916945  0.6398616029602  0.2803741044914 1.0
C      1  0.3128579630509  0.4501291231543  0.2685219132784 1.0
C      1  0.8006427274366  0.6899224428907  0.4741538696152 1.0
C      1  0.3684876775256  0.2352867330894  0.3048939068274 1.0
C      1  0.6104519264821  0.7725645257503  0.5586564527059 1.0
C      1  0.6771229303962  0.3885599483674  0.1969255311749 1.0
C      1  0.5007414908691  0.4767068650871  0.5596406716585 1.0
C      1  0.3166273783773  0.5681850721580  0.3870891436849 1.0
END
