TITL C-124067-8416-22 -2.782 3375.00 -480.60249787 0 0 61 (C1) n - 1
REM
REM Run started: at 2020.11.27 11:24:26 in /rds/project/t2_vol4/rds-t2-cs072/BORA/CARBON/AIRSS/Generating-Clusters/Str-Search/Higher-Symm/C10-100
REM VASP from code version vasp.5.4.4.18Apr17-6-g9f103f2a35 (build Oct 11 2019 16:45:47) gamma-only
REM
REM
REM
REM
REM ./C.cell (f39ce9773e2efe3fa5bbdf770a4156b8)
REM AIRSS Version 0.9.1 bugfix July 2018 build 013d7b7c2542+ Fri, 06 Jul 2018 19:26:36 +0100
REM compiler GCC version 4.8.5 20150623 (Red Hat 4.8.5-39)
REM options -cpp -mtune=generic -march=x86-64 -g -O0
REM seed -579185457 863017113 -1254405898 -1899148953 -1041996473 -1312835826 -638200418 1968657362 -1770610407 13999042 676770479 1541592346
REM
REM C.POTCAR (d86ddea03c3ceb6dc662c8ad6801f873)
REM 
CELL 1.54180   15.00000   15.00000   15.00000   90.00000   90.00000   90.00000
LATT -1
SFAC C  
C      1  0.6707000405490  0.5413070359430  0.7427650158979 1.0
C      1  0.3945298295746  0.6080460099699  0.6897682900463 1.0
C      1  0.3884208914688  0.4549452116897  0.6994437096030 1.0
C      1  0.4514944273117  0.3842449031732  0.7014760711339 1.0
C      1  0.6367395077685  0.4607244791170  0.7062416015673 1.0
C      1  0.6386369156158  0.5135649631394  0.2626556531538 1.0
C      1  0.3941050959136  0.8001573843766  0.2549995516000 1.0
C      1  0.3712158232512  0.4304988545001  0.3107423668233 1.0
C      1  0.5244110813678  0.3758234729688  0.3056894262186 1.0
C      1  0.5999235883221  0.4310369760481  0.2627890802551 1.0
C      1  0.6636929892174  0.3742559491742  0.6952458485716 1.0
C      1  0.6881513069307  0.6021446769862  0.6869654119935 1.0
C      1  0.4186448159406  0.6948330045188  0.6823226363459 1.0
C      1  0.3264154330050  0.5333099041548  0.6936476421360 1.0
C      1  0.4012668678345  0.3055371109829  0.6931890926581 1.0
C      1  0.6224748256306  0.3571443207565  0.3159874080082 1.0
C      1  0.6739347644400  0.5767145120740  0.3057765482737 1.0
C      1  0.4165005905456  0.7629986537120  0.3295726768169 1.0
C      1  0.2955572591926  0.4795503754018  0.3155265994672 1.0
C      1  0.4243279388523  0.3452885220557  0.3085920019932 1.0
C      1  0.4208540219086  0.4690726711933  0.6040694268223 1.0
C      1  0.5028073789674  0.4099361243831  0.6111456874516 1.0
C      1  0.5836397476256  0.4748951167267  0.6162197545002 1.0
C      1  0.5419502581234  0.5638331234099  0.5798617661794 1.0
C      1  0.4440291749850  0.5692447320332  0.6065926604594 1.0
C      1  0.4200964689333  0.4658524118627  0.3957444477328 1.0
C      1  0.5067525461743  0.4127576250949  0.4012816102675 1.0
C      1  0.5737719998115  0.4766812356471  0.4317279288431 1.0
C      1  0.5473564782421  0.5699876448244  0.4102586797687 1.0
C      1  0.4510218633768  0.5569818867381  0.4219272331089 1.0
C      1  0.6043469038421  0.3000518960588  0.4598549463015 1.0
C      1  0.7183780885901  0.5375518762043  0.4518768987232 1.0
C      1  0.5282580960925  0.7220925006588  0.4527662412642 1.0
C      1  0.2958813746119  0.5932257821276  0.4504103734903 1.0
C      1  0.3439928768032  0.3387135849721  0.4537114787361 1.0
C      1  0.6050466869220  0.2982801057025  0.5525822023994 1.0
C      1  0.7206266079269  0.5412418542994  0.5452860088318 1.0
C      1  0.5289316705271  0.7230827097865  0.5457476741385 1.0
C      1  0.2974458592346  0.5986846077477  0.5438890467508 1.0
C      1  0.3439933744477  0.3347211855781  0.5467269795065 1.0
C      1  0.6022677617505  0.6476454235347  0.5510814631713 1.0
C      1  0.3914558094120  0.6420691740046  0.5454897589561 1.0
C      1  0.3329081569361  0.4408780321057  0.5581297998587 1.0
C      1  0.5041443192502  0.3222168144838  0.5565618297846 1.0
C      1  0.6716337259049  0.4468303336545  0.5564601328560 1.0
C      1  0.6020258751519  0.6483785217826  0.4432393499095 1.0
C      1  0.3923503103737  0.6359999355937  0.4432595845809 1.0
C      1  0.3331298937902  0.4412041826229  0.4550015596935 1.0
C      1  0.5019134660464  0.3219823488517  0.4509710346852 1.0
C      1  0.6672637305463  0.4463617654222  0.4518171709711 1.0
C      1  0.4427000685858  0.7156211497118  0.5955836811222 1.0
C      1  0.2845872568183  0.5246122506284  0.6079127728353 1.0
C      1  0.4098506440415  0.2892274266202  0.6013157263215 1.0
C      1  0.6674205236272  0.3536661367951  0.6062539257520 1.0
C      1  0.6906648316746  0.6192367638596  0.5966471422838 1.0
C      1  0.4417795090603  0.7167547977023  0.4016603831802 1.0
C      1  0.2785053374105  0.5095844749687  0.4010599997417 1.0
C      1  0.4136282363938  0.3024243020760  0.3944703773564 1.0
C      1  0.6610895385409  0.3524827283615  0.4017292299475 1.0
C      1  0.6877029781754  0.6086853271684  0.3917959336648 1.0
C      1  0.5160774566313  0.5268146142595  0.4937597654879 1.0
END
