TITL C-124067-8416-4 -4.015 3375.00 -631.28697981 0 0 79 (C1) n - 1
REM
REM Run started: at 2020.11.27 06:27:16 in /rds/project/t2_vol4/rds-t2-cs072/BORA/CARBON/AIRSS/Generating-Clusters/Str-Search/Higher-Symm/C10-100
REM VASP from code version vasp.5.4.4.18Apr17-6-g9f103f2a35 (build Oct 11 2019 16:45:47) gamma-only
REM
REM
REM
REM
REM ./C.cell (f39ce9773e2efe3fa5bbdf770a4156b8)
REM AIRSS Version 0.9.1 bugfix July 2018 build 013d7b7c2542+ Fri, 06 Jul 2018 19:26:36 +0100
REM compiler GCC version 4.8.5 20150623 (Red Hat 4.8.5-39)
REM options -cpp -mtune=generic -march=x86-64 -g -O0
REM seed 363167089 1429144124 -1320701593 -346967194 68820228 -448594925 1841923183 1448558523 -1091843716 848288614 327821973 1699176508
REM
REM C.POTCAR (d86ddea03c3ceb6dc662c8ad6801f873)
REM 
CELL 1.54180   15.00000   15.00000   15.00000   90.00000   90.00000   90.00000
LATT -1
SFAC C  
C      1  0.7929928875323  0.4382815882471  0.5587360438301 1.0
C      1  0.7847554787516  0.5266048612612  0.4456035688027 1.0
C      1  0.8714366739372  0.5444011789664  0.4321183157926 1.0
C      1  0.8958538945549  0.4920780861879  0.5005483973568 1.0
C      1  0.8817118809852  0.4361559969795  0.5692721095463 1.0
C      1  0.2177006749432  0.3876930898269  0.6141499062199 1.0
C      1  0.1748200896637  0.5833201558258  0.4198210616730 1.0
C      1  0.1233571592841  0.5968849934550  0.5016338043143 1.0
C      1  0.1669907901677  0.5128150258750  0.5259261837181 1.0
C      1  0.1642166521136  0.4292422125791  0.5662761580264 1.0
C      1  0.6619971577070  0.1219112779122  0.3807146792441 1.0
C      1  0.5600831397530  0.4958514727329  0.0989376923539 1.0
C      1  0.5903772189742  0.7847072539593  0.3842792177289 1.0
C      1  0.4684820919135  0.7661719228368  0.8355240685374 1.0
C      1  0.5470421862885  0.3446387545056  0.7988919415265 1.0
C      1  0.4469285124555  0.1685786533003  0.4401414297862 1.0
C      1  0.4257421031924  0.2997745036693  0.0335704307529 1.0
C      1  0.3772771426202  0.7704604554129  0.3635875196823 1.0
C      1  0.4393905013650  0.0038869722362  0.7384597269530 1.0
C      1  0.3074329215862  0.3796184844449  0.7519475454091 1.0
C      1  0.3467786159533  0.4061090449248  0.8204132349269 1.0
C      1  0.5188044535120  0.1266751549362  0.4717023867298 1.0
C      1  0.5009478997599  0.3302785233946  0.0714420179877 1.0
C      1  0.4037936906805  0.7912666541435  0.2815335730059 1.0
C      1  0.4765628849352  0.9221191856736  0.7415088464124 1.0
C      1  0.4991356313797  0.3933895495432  0.8445498169735 1.0
C      1  0.6112008556337  0.1068916303965  0.4558638642853 1.0
C      1  0.5555312798022  0.4054776466327  0.0953790055113 1.0
C      1  0.5579451627686  0.7952111317358  0.3098129244521 1.0
C      1  0.4878078372502  0.8347161760094  0.7790410521164 1.0
C      1  0.4310433404171  0.3405699679752  0.5480874297997 1.0
C      1  0.4309939371415  0.4175449981477  0.4108601009053 1.0
C      1  0.4482437195709  0.5828346214321  0.4083735293254 1.0
C      1  0.4467375539337  0.6195205606003  0.5631056764814 1.0
C      1  0.4306052318560  0.4729594508400  0.6334173406365 1.0
C      1  0.5291517345617  0.3463483385282  0.5547592664183 1.0
C      1  0.5282768968609  0.4238792909125  0.4095001430006 1.0
C      1  0.5420903244444  0.5884682322253  0.4084896334310 1.0
C      1  0.5422954519581  0.6088470839318  0.5583446118896 1.0
C      1  0.5265050128677  0.4682968138039  0.6383570249328 1.0
C      1  0.4357529608245  0.6097805668328  0.8972022544627 1.0
C      1  0.5893291805034  0.2262012989378  0.6805351732563 1.0
C      1  0.6545621151569  0.2105029618101  0.2347755087866 1.0
C      1  0.5296947315484  0.6614776781477  0.1317108776987 1.0
C      1  0.5911492699845  0.7938962133976  0.5503441740572 1.0
C      1  0.4221058272487  0.5279586312201  0.8983467398212 1.0
C      1  0.5965888610982  0.1675689174245  0.6232819557154 1.0
C      1  0.6274364395523  0.2639139582293  0.1775613670497 1.0
C      1  0.5052202546946  0.7305620376783  0.1707022804195 1.0
C      1  0.5712871859719  0.8261953626760  0.6230657305046 1.0
C      1  0.4013179181624  0.3315650324445  0.4538987444683 1.0
C      1  0.3966044413246  0.5044617367142  0.4222336085440 1.0
C      1  0.3958539237883  0.6405697161324  0.4742824797666 1.0
C      1  0.3923269784992  0.5464244674195  0.5860912181809 1.0
C      1  0.3846831007708  0.3866075159470  0.6169477512448 1.0
C      1  0.5747474748903  0.3864709691706  0.4855239351431 1.0
C      1  0.5800594208549  0.5030840570238  0.4158697813887 1.0
C      1  0.5745819489891  0.6540376411229  0.4761332469839 1.0
C      1  0.5771103956074  0.5238241639564  0.5790006273780 1.0
C      1  0.5564566528148  0.3740356138745  0.6442466173739 1.0
C      1  0.6671045426060  0.1596233816477  0.3069077798456 1.0
C      1  0.5466070827726  0.5771594211009  0.1092805457646 1.0
C      1  0.5932893939861  0.7440491335198  0.4698728916549 1.0
C      1  0.4513132490606  0.6937859398225  0.8721527052842 1.0
C      1  0.5727430533489  0.3146399923607  0.7126888505765 1.0
C      1  0.4176429324446  0.2467319735739  0.4268596468008 1.0
C      1  0.3505621752330  0.2791946733509 -0.0011527932890 1.0
C      1  0.3679799591345  0.7206886369701  0.4304639382892 1.0
C      1  0.4095189267338  0.0824371661819  0.7251104997723 1.0
C      1  0.2963761956435  0.3745726827626  0.6600590478469 1.0
C      1  0.4884897580674  0.7847723625034  0.2451358030253 1.0
C      1  0.5301350940459  0.8569477317108  0.6988710485350 1.0
C      1  0.5839183970007  0.1240982159694  0.5424893298840 1.0
C      1  0.4196585878565  0.4402352162728  0.8669227218345 1.0
C      1  0.5799690466659  0.3195614615752  0.1230685284457 1.0
C      1  0.2413355246281  0.5487390593064  0.4805371302625 1.0
C      1  0.7301026976618  0.4771487254862  0.5023135141616 1.0
C      1  0.3377940697787  0.5524078851192  0.4964387509030 1.0
C      1  0.6307922579701  0.4736446046039  0.5014200076820 1.0
END
