TITL C-123431-5306-7 -13.591 3375.00 -2326.36197027 0 0 277 (C1) n - 1
REM
REM Run started: at 2020.11.23 20:16:38 in /rds/project/t2_vol4/rds-t2-cs072/BORA/CARBON/AIRSS/Generating-Clusters/Str-Search/Higher-Symm
REM VASP from code version vasp.5.4.4.18Apr17-6-g9f103f2a35 (build Oct 11 2019 16:45:47) gamma-only
REM
REM
REM
REM
REM ./C.cell (e5ae0387ce4d49c7c0135a1433873289)
REM AIRSS Version 0.9.1 bugfix July 2018 build 013d7b7c2542+ Fri, 06 Jul 2018 19:26:36 +0100
REM compiler GCC version 4.8.5 20150623 (Red Hat 4.8.5-39)
REM options -cpp -mtune=generic -march=x86-64 -g -O0
REM seed -1493273722 764135991 1541756883 -2068498463 632764884 1812151551 -1751983981 -230947773 -271092975 -159559979 -600375340 -1222440751
REM
REM C.POTCAR (d86ddea03c3ceb6dc662c8ad6801f873)
REM 
CELL 1.54180   15.00000   15.00000   15.00000   90.00000   90.00000   90.00000
LATT -1
SFAC C  
C      1  0.8248618238649  0.2461170548201  0.3739229236990 1.0
C      1  0.8030148768539  0.3211433189969  0.7168177976065 1.0
C      1  0.7594924329801  0.6372416948119  0.7323440694051 1.0
C      1  0.8116584145338  0.8077088816501  0.4462974953569 1.0
C      1  0.7905695952512  0.5515031906353  0.2340684928242 1.0
C      1  0.4533961719642  0.4122400952896  0.8156923745842 1.0
C      1  0.4165344717561  0.7205091893142  0.7098641986717 1.0
C      1  0.4152049375625  0.8100408106385  0.2973154672362 1.0
C      1  0.4487428887475  0.4028346160317  0.1711367241201 1.0
C      1  0.4464769712433  0.1762864591132  0.4921054320183 1.0
C      1  0.4378377220153  0.7060514577748  0.3157075955278 1.0
C      1  0.3729515185598  0.4426613748203  0.2353969982289 1.0
C      1  0.3570173023836  0.2359171315224  0.4908464923957 1.0
C      1  0.3971443703129  0.4412593604470  0.7378423662662 1.0
C      1  0.3439251220171  0.6789371417083  0.6703983178485 1.0
C      1  0.4518651588672  0.8467048177011  0.2104893767058 1.0
C      1  0.4653028507183  0.3274378797843  0.0218014240269 1.0
C      1  0.4546871711725  0.0902677419824  0.5386188986763 1.0
C      1  0.4526850708659  0.4226208661596  0.9877762120494 1.0
C      1  0.4167198397570  0.8971368798991  0.7387817665951 1.0
C      1  0.5549717126596  0.2679185527492  0.8462740468412 1.0
C      1  0.5312241517413  0.7492500795164  0.8419427811882 1.0
C      1  0.5463538682849  0.8804742903836  0.3780558544227 1.0
C      1  0.5759106027433  0.4952467474325  0.0708261796666 1.0
C      1  0.5641796112945  0.1393234820322  0.3791127905972 1.0
C      1  0.5466812454472  0.1239942469349  0.7470526278532 1.0
C      1  0.5609285495228  0.6148357164803  0.9694378922701 1.0
C      1  0.4999908934854  0.9413721502174  0.5887427482855 1.0
C      1  0.5202453228014  0.7349569614958  0.1122570701702 1.0
C      1  0.5515566432852  0.1679739991104  0.2123562489399 1.0
C      1  0.4580941031558  0.1663097271918  0.2038761242812 1.0
C      1  0.4561105386224  0.1030846566426  0.7517119486271 1.0
C      1  0.4367321672964  0.5803900932958  0.9826782203245 1.0
C      1  0.3987419691888  0.9459366486230  0.5433149572535 1.0
C      1  0.4352678892856  0.7294894456714  0.0675505385674 1.0
C      1  0.6710027717843  0.6925957344406  0.5377717997595 1.0
C      1  0.7135485395902  0.5744508536870  0.2963642026836 1.0
C      1  0.6844831764513  0.3811314221649  0.3693201617897 1.0
C      1  0.6661017138285  0.3536387004735  0.5965797085930 1.0
C      1  0.6834402345575  0.5694750588004  0.7071977944639 1.0
C      1  0.3227091654197  0.5363723040817  0.2162907135940 1.0
C      1  0.3111725254582  0.2513904514247  0.4042002114999 1.0
C      1  0.2758709813245  0.2395707160949  0.6544230899647 1.0
C      1  0.3056120302128  0.5973837756362  0.7159826121412 1.0
C      1  0.2751025497994  0.6835403053040  0.4813237087885 1.0
C      1  0.2955982353699  0.8615380914388  0.4210110948396 1.0
C      1  0.3226711775076  0.5250839458230  0.1004571154263 1.0
C      1  0.3514442667830  0.0678245938187  0.3084702415072 1.0
C      1  0.3776320647171  0.2163152010771  0.8618384941434 1.0
C      1  0.3822640636512  0.8381758357963  0.8139728739737 1.0
C      1  0.5888346113930  0.6603174806080  0.1431104228387 1.0
C      1  0.5932825005016  0.2523237082335  0.2415793118069 1.0
C      1  0.5802495888626  0.1836163521731  0.6776940836894 1.0
C      1  0.5895618825674  0.5824483965094  0.8796765352500 1.0
C      1  0.5640656114536  0.8703181475288  0.5487013320842 1.0
C      1  0.1665970120330  0.1574566890734  0.3480267899208 1.0
C      1  0.2424927064104  0.1486423417392  0.6868006209947 1.0
C      1  0.2252186324990  0.6758424634131  0.8272901458460 1.0
C      1  0.1663979213648  0.7823732281347  0.4359000800463 1.0
C      1  0.1703846511500  0.4922858775647  0.2058186379712 1.0
C      1  0.3922997543363  0.6511518853289  0.0310645712683 1.0
C      1  0.2189518699172  0.8469201940637  0.4842054485259 1.0
C      1  0.3131809082287  0.6270783425189  0.0765493145877 1.0
C      1  0.3688416174188  0.1254401400983  0.2411614104879 1.0
C      1  0.3787282858672  0.1428066170403  0.8033038279464 1.0
C      1  0.4371325280657  0.5857526212152  0.8063108272392 1.0
C      1  0.4403046063923  0.7904619682235  0.4616863827296 1.0
C      1  0.4761098305095  0.5540925848423  0.2157364343342 1.0
C      1  0.4564560624082  0.2591468246076  0.3439631816165 1.0
C      1  0.4510890440499  0.2965785732255  0.7103674532002 1.0
C      1  0.7709949248801  0.2908139869211  0.2262019370421 1.0
C      1  0.7493363583826  0.1901798148836  0.6264270354851 1.0
C      1  0.7579488760585  0.5380351009670  0.8628332763803 1.0
C      1  0.7377626579751  0.8467420165280  0.5911199519079 1.0
C      1  0.7614036028749  0.7101352248126  0.1962471694088 1.0
C      1  0.5974139558107  0.4472272039032  0.2796500707039 1.0
C      1  0.5834236523398  0.2934185898495  0.4958809397613 1.0
C      1  0.5886610029770  0.4347034449847  0.7169560306885 1.0
C      1  0.5671136721617  0.6719038103971  0.6412117902979 1.0
C      1  0.6043837030287  0.6779686632914  0.3749034538764 1.0
C      1  0.7587268130735  0.2335562767087  0.7088360363812 1.0
C      1  0.7523599505946  0.6284399547513  0.8342578567544 1.0
C      1  0.7542427179511  0.8635432822492  0.5000254939636 1.0
C      1  0.7715060423729  0.6215875757625  0.1599400399922 1.0
C      1  0.7770825249584  0.2235368236838  0.2913149532935 1.0
C      1  0.7896522650565  0.7778121374100  0.6322714331035 1.0
C      1  0.7886532775254  0.7185044716202  0.2996515310697 1.0
C      1  0.8235780365799  0.3728607148996  0.2351194777502 1.0
C      1  0.7741226600793  0.2404542904187  0.5371258257502 1.0
C      1  0.7832216899101  0.4694394566739  0.7872229947041 1.0
C      1  0.6678309111226  0.5866954646257  0.5356488043908 1.0
C      1  0.7422081796147  0.5369241742202  0.3846447408767 1.0
C      1  0.7179927526974  0.4570604118165  0.4214735895461 1.0
C      1  0.7289341384541  0.4232489889616  0.6059712120758 1.0
C      1  0.6792137622507  0.5212799126002  0.6145692482908 1.0
C      1  0.5623876657958  0.3416438506386  0.0396954291770 1.0
C      1  0.5308178548912  0.0458194221220  0.5582530705902 1.0
C      1  0.5545148418745  0.4338868069119  0.9883766620450 1.0
C      1  0.4987231412687  0.9051201393226  0.6886893099608 1.0
C      1  0.5267474076514  0.8037113572122  0.1758859474269 1.0
C      1  0.1563501923651  0.6108391067691  0.3990157328392 1.0
C      1  0.1212375093770  0.3953442474611  0.3446622576244 1.0
C      1  0.0971664956994  0.3050353290889  0.5207209676588 1.0
C      1  0.1100808800613  0.4384940808310  0.6707656856934 1.0
C      1  0.1241973685252  0.6255970966049  0.5993287992675 1.0
C      1  0.6271718861708  0.3350043596155  0.8742176677820 1.0
C      1  0.5941828210655  0.7993449562486  0.7806072317403 1.0
C      1  0.6092671102815  0.8472685417635  0.3155320579829 1.0
C      1  0.6484251477500  0.4378053922249  0.1016476772253 1.0
C      1  0.6305931082806  0.1163428477174  0.4480263706876 1.0
C      1  0.1333547333772  0.6890041947565  0.6531044197114 1.0
C      1  0.1866712041789  0.6224315652096  0.3069619399200 1.0
C      1  0.1417245096968  0.3418618716651  0.2829629144730 1.0
C      1  0.1136581122673  0.2248685906551  0.5324452478079 1.0
C      1  0.1397205841156  0.4166765251289  0.7440670658686 1.0
C      1  0.2611944587405  0.2807966366819  0.1652712634558 1.0
C      1  0.2181230947710  0.1097611013860  0.5962127471140 1.0
C      1  0.2566999437084  0.4385296047073  0.8643432501437 1.0
C      1  0.2018326109058  0.8418378963311  0.6615442850440 1.0
C      1  0.2630659875989  0.7362514767616  0.2147527612679 1.0
C      1  0.7165769197651  0.5742395248104  0.0986916205794 1.0
C      1  0.7074978869244  0.1605555031554  0.3148320926289 1.0
C      1  0.6964192847567  0.2282879574804  0.7825989605953 1.0
C      1  0.6868219611168  0.6963213756689  0.8568176135861 1.0
C      1  0.6878495504200  0.8972975653648  0.4399720054149 1.0
C      1  0.3895543605547  0.5401855500497  0.7221802523605 1.0
C      1  0.3383392209009  0.7610204230539  0.4545799394603 1.0
C      1  0.3985101407155  0.6024027432153  0.2672585197373 1.0
C      1  0.3703523183152  0.2964910477081  0.3425429072568 1.0
C      1  0.3220132211639  0.2688042855486  0.5791509658382 1.0
C      1  0.1620866571799  0.1467169243484  0.5276006689670 1.0
C      1  0.1949242168314  0.3845505047093  0.8102681648187 1.0
C      1  0.1669786181943  0.7628105740431  0.7003115872125 1.0
C      1  0.1999427947739  0.7105758041067  0.2819113909773 1.0
C      1  0.1873628352725  0.3318515940716  0.2012291722971 1.0
C      1  0.8421879643303  0.5984488716040  0.6955085643004 1.0
C      1  0.8612234916408  0.7381661683752  0.4852479930387 1.0
C      1  0.8676807445384  0.5676115845528  0.2947446879205 1.0
C      1  0.8720072315556  0.3275656965152  0.3847341716118 1.0
C      1  0.8214090588757  0.3740103587633  0.6337136734170 1.0
C      1  0.4133665950716  0.5550677040551  0.6244223543421 1.0
C      1  0.4139599210979  0.6391616120646  0.4961907297977 1.0
C      1  0.4214631815866  0.5422042912394  0.3533013152765 1.0
C      1  0.3367223966604  0.3820631998131  0.3046968133939 1.0
C      1  0.3569251674418  0.3647466845258  0.5901168950950 1.0
C      1  0.8809385208369  0.4509075067511  0.6505855030091 1.0
C      1  0.8808746972295  0.6380605869670  0.6178584154004 1.0
C      1  0.8934818825771  0.6674199151239  0.4252617578357 1.0
C      1  0.9030753160367  0.4877847339740  0.3352414621339 1.0
C      1  0.8832671977801  0.3565973579350  0.4770015774639 1.0
C      1  0.8768575836214  0.3932002109553  0.3125036147420 1.0
C      1  0.8325480811322  0.3208546714801  0.5482149856779 1.0
C      1  0.8481902832382  0.5072063291010  0.7185973063749 1.0
C      1  0.8513698633892  0.7240706586204  0.5819215363634 1.0
C      1  0.8611590862225  0.6550141788641  0.3354773006580 1.0
C      1  0.7663938471890  0.4527387063061  0.2083109993367 1.0
C      1  0.7838353708310  0.1985038125121  0.4467740562392 1.0
C      1  0.7795064137381  0.3669264202928  0.7935844975675 1.0
C      1  0.7285623803066  0.7297712243116  0.7001575278351 1.0
C      1  0.7752044527589  0.8029484257688  0.3543384193283 1.0
C      1  0.2874418240649  0.5265785155794  0.8625586633261 1.0
C      1  0.2410200339599  0.8643777972212  0.5740399225895 1.0
C      1  0.2932680646713  0.7082605630851  0.1304556664403 1.0
C      1  0.3222543100303  0.2050453203710  0.1839308868830 1.0
C      1  0.3210172560000  0.1106231883926  0.7298546816743 1.0
C      1  0.2609208025043  0.8804086095913  0.7265659630491 1.0
C      1  0.3127325005838  0.8171405393772  0.2514371042996 1.0
C      1  0.3114280526390  0.3459234766746  0.1071949304944 1.0
C      1  0.2886306104398  0.0671209096109  0.5494874491286 1.0
C      1  0.3236130561541  0.3779724422117  0.8959347540435 1.0
C      1  0.4974629200262  0.5868949768851  0.5047148197959 1.0
C      1  0.5053468564972  0.5491175055192  0.4140171797937 1.0
C      1  0.5291687143985  0.4587626204840  0.4372727126560 1.0
C      1  0.5210034517069  0.4402479608620  0.5243119770961 1.0
C      1  0.4966216354352  0.5154735598792  0.5812671449187 1.0
C      1  0.3176442175554  0.4427506459732  0.5470316551552 1.0
C      1  0.3294292977737  0.5321907834213  0.5722521094976 1.0
C      1  0.3249304835598  0.5930456208106  0.4860240258271 1.0
C      1  0.3341608778856  0.5241251158386  0.4056978666129 1.0
C      1  0.2946580259282  0.4333516717831  0.3688619254068 1.0
C      1  0.3387160820528  0.0249571044758  0.3894035552233 1.0
C      1  0.4633491981105  0.2588472358667  0.8910843192865 1.0
C      1  0.4365488446215  0.7714677693442  0.8598901137992 1.0
C      1  0.3737670326486  0.9313645926071  0.4300017516361 1.0
C      1  0.4194774623678  0.5029583448800  0.0501191016125 1.0
C      1  0.5552567332903  0.6115489967752  0.2314762357261 1.0
C      1  0.5340422671300  0.3056996846240  0.3039936373879 1.0
C      1  0.5229175090876  0.2604282029820  0.6498566156685 1.0
C      1  0.5330809231520  0.5593655417843  0.8013309506038 1.0
C      1  0.5155439700303  0.7821512886908  0.5286994375446 1.0
C      1  0.6158470333649  0.5475864653443  0.2860763071444 1.0
C      1  0.5986782860844  0.3233188891460  0.3925271493503 1.0
C      1  0.5811194730447  0.3498895188558  0.6547350448968 1.0
C      1  0.5823555919344  0.5925490688145  0.7079371888553 1.0
C      1  0.5947876775313  0.7166573698508  0.4780003552548 1.0
C      1  0.2217662393784  0.2420929688576  0.7252015091704 1.0
C      1  0.2576842334560  0.5973762086364  0.8016100171403 1.0
C      1  0.1862771952812  0.6899097483653  0.4553385090612 1.0
C      1  0.2225318594166  0.5512596278509  0.2459002751106 1.0
C      1  0.2353530287840  0.2040543692692  0.3816842976388 1.0
C      1  0.6516921263764  0.1696287606653  0.6055434667406 1.0
C      1  0.6610621366522  0.5103448780297  0.8668756995092 1.0
C      1  0.6360312056472  0.8384257793213  0.6216324944350 1.0
C      1  0.6604543875822  0.7150430550040  0.2095195203924 1.0
C      1  0.6693947538425  0.3118412841676  0.2017091792553 1.0
C      1  0.5388842191670  0.6956631494803  0.2969635742563 1.0
C      1  0.5116898196680  0.3985953373313  0.2578417058354 1.0
C      1  0.4978156360157  0.2535989302504  0.5453089219651 1.0
C      1  0.5400200447126  0.4562431294171  0.8047701698064 1.0
C      1  0.4808066599535  0.7199307116308  0.6270454724692 1.0
C      1  0.6016845486534  0.1971859053354  0.7871262993257 1.0
C      1  0.5940714784382  0.6841037659582  0.8969692782763 1.0
C      1  0.5981365032906  0.8992117144789  0.4589510958751 1.0
C      1  0.6147024875188  0.5925085825250  0.0640830668461 1.0
C      1  0.6106254206734  0.1573837506206  0.2915004081555 1.0
C      1  0.1875390447017  0.7879995084823  0.3413670028601 1.0
C      1  0.1925755645063  0.4201498869037  0.1563581029599 1.0
C      1  0.2002509968452  0.1222836630554  0.4380628827954 1.0
C      1  0.2292531395354  0.2959242855677  0.8071503119784 1.0
C      1  0.2149996769708  0.7560006740209  0.7912748473292 1.0
C      1  0.1058598028999  0.4608981129909  0.5818501678858 1.0
C      1  0.1175663747503  0.5481353828107  0.5463541174958 1.0
C      1  0.1271901319015  0.5376296118207  0.4481806678108 1.0
C      1  0.1132745205934  0.4422012814160  0.4255381542114 1.0
C      1  0.1013681147847  0.3961487598127  0.5096694062982 1.0
C      1  0.6495667487662  0.7321240361864  0.6301283866394 1.0
C      1  0.6941518809074  0.6728834652069  0.3038357888352 1.0
C      1  0.6823920130005  0.3990610325255  0.2626372098332 1.0
C      1  0.6691966241475  0.2623040455198  0.5515689622154 1.0
C      1  0.6823285605379  0.4887208899897  0.7653404915339 1.0
C      1  0.3610358524833  0.7760262538634  0.1065020015522 1.0
C      1  0.4070043853844  0.2320009504122  0.1555009131653 1.0
C      1  0.3888771902403  0.0665741437163  0.6828664986181 1.0
C      1  0.3888887232555  0.5384426766663  0.8907347182627 1.0
C      1  0.3277216859070  0.9018030878458  0.5942594038856 1.0
C      1  0.4162133322162  0.7072529958861  0.4174526619370 1.0
C      1  0.4520019371876  0.4777306793640  0.2837935126480 1.0
C      1  0.4135186339855  0.3049840161781  0.5351455382410 1.0
C      1  0.3964215687946  0.3710171683175  0.6793147961816 1.0
C      1  0.4094146995960  0.6565058376665  0.5965858295031 1.0
C      1  0.5868060326518  0.4185658470915  0.3773982959664 1.0
C      1  0.5767320121615  0.3742263738670  0.5573068102560 1.0
C      1  0.5756367222951  0.5110582217799  0.6491071593447 1.0
C      1  0.5773847320939  0.6341632019741  0.5431789330638 1.0
C      1  0.5945247295687  0.5785897557619  0.3820410579059 1.0
C      1  0.5786585822050  0.8577140152628  0.7071874571695 1.0
C      1  0.5888239684713  0.7783306525929  0.2467422249787 1.0
C      1  0.6275970066959  0.3467858383794  0.1098371285305 1.0
C      1  0.6145195921831  0.0983715974113  0.5391091283124 1.0
C      1  0.6010010296378  0.4304452681543  0.8933373207772 1.0
C      1  0.7236713631090  0.4815617185857  0.1223386167086 1.0
C      1  0.7137646597369  0.1468502884760  0.4091143353197 1.0
C      1  0.7065544400842  0.3109935921672  0.8328941631738 1.0
C      1  0.6792346683259  0.7582609544140  0.7859248464640 1.0
C      1  0.6992517828420  0.8590761283529  0.3520324601557 1.0
C      1  0.9328527596469  0.5046492127585  0.4231249805706 1.0
C      1  0.9242379012890  0.4399598275381  0.4921021606709 1.0
C      1  0.9219831485868  0.4858202155211  0.5761224737309 1.0
C      1  0.9252245559004  0.5791750427222  0.5600838909601 1.0
C      1  0.9302846000736  0.5913272812675  0.4648714492011 1.0
C      1  0.4424800796697  0.6916852191247  0.8005194577923 1.0
C      1  0.4464994925195  0.8624260923583  0.3872220886786 1.0
C      1  0.4833373597181  0.4932791609018  0.1264807466513 1.0
C      1  0.4835769856059  0.1812220297114  0.3984497599049 1.0
C      1  0.4751823655974  0.3158118992166  0.8037905708646 1.0
C      1  0.3088708110680  0.2886461435502  0.8649845685297 1.0
C      1  0.2836364320873  0.8274514129482  0.7993245812856 1.0
C      1  0.2578536576504  0.8474889350857  0.3283183503272 1.0
C      1  0.2700350911528  0.4311204125953  0.0984952182746 1.0
C      1  0.2774581500729  0.0662033907113  0.4552244706291 1.0
C      1  0.4072710745797  0.4348519645203  0.9018204344309 1.0
C      1  0.3384552361838  0.9134824594432  0.6868939531732 1.0
C      1  0.3677640054113  0.8436149937617  0.1701599467445 1.0
C      1  0.4112498188245  0.3211765355449  0.1093112735145 1.0
C      1  0.3784506490007  0.0450862534858  0.5823930931500 1.0
C      1  0.6696786064524  0.5454619731662  0.4458098785183 1.0
C      1  0.3136502143283  0.4406638231184  0.4562845110746 1.0
END
