TITL C-13148-6401-2 -9.418 3375.00 -2167.68547512 0 0 264 (C1) n - 1
REM
REM Run started: at 2020.11.22 04:27:33 in /rds/project/t2_vol4/rds-t2-cs072/BORA/CARBON/AIRSS/Generating-Clusters/Str-Search/Higher-Symm
REM VASP from code version vasp.5.4.4.18Apr17-6-g9f103f2a35 (build Oct 11 2019 16:45:47) gamma-only
REM
REM
REM
REM
REM ./C.cell (e5ae0387ce4d49c7c0135a1433873289)
REM AIRSS Version 0.9.1 bugfix July 2018 build 013d7b7c2542+ Fri, 06 Jul 2018 19:26:36 +0100
REM compiler GCC version 4.8.5 20150623 (Red Hat 4.8.5-39)
REM options -cpp -mtune=generic -march=x86-64 -g -O0
REM seed 365283747 -994731692 1867491180 -1687537829 1181221705 414060489 -469787240 -1858208603 -1314933780 -2125800237 618762398 -1203304745
REM
REM C.POTCAR (d86ddea03c3ceb6dc662c8ad6801f873)
REM 
CELL 1.54180   15.00000   15.00000   15.00000   90.00000   90.00000   90.00000
LATT -1
SFAC C  
C      1  0.5328218681821  0.6688990904134  0.2778985510103 1.0
C      1  0.5685893552548  0.4365296456731  0.2850141923368 1.0
C      1  0.5916720024743  0.3866390231954  0.1887514585230 1.0
C      1  0.4225848107489  0.3152514434533  0.2452481923701 1.0
C      1  0.3533773480612  0.3749717917382  0.2422307978941 1.0
C      1  0.3934590281629  0.5681606953854  0.1754778080963 1.0
C      1  0.4509939484571  0.6383109539031  0.2190087464833 1.0
C      1  0.8759581931660  0.5387492201614  0.6236028255175 1.0
C      1  0.7618783576582  0.2140730178455  0.6342685603963 1.0
C      1  0.4353331397740  0.1020216282782  0.6775221224707 1.0
C      1  0.1516597807317  0.2934031315638  0.6574074400717 1.0
C      1  0.1364300485455  0.6389532911105  0.6616084886279 1.0
C      1  0.3717922057958  0.8804113127897  0.6703736079973 1.0
C      1  0.7216014992876  0.8376607415739  0.6664630294974 1.0
C      1  0.6164688159834  0.4807469069383  0.0387002843140 1.0
C      1  0.5549632720741  0.4361310588134  0.1086511111778 1.0
C      1  0.4605036850848  0.4471473977580  0.0585935485851 1.0
C      1  0.4379893282101  0.5435649613530  0.0874489745426 1.0
C      1  0.4564807234298  0.6231020004603  0.0270077510779 1.0
C      1  0.5586597485091  0.6280770263653  0.0199838140893 1.0
C      1  0.6038226767689  0.5692110509318  0.0780576499186 1.0
C      1  0.0547334303451  0.6233530283521  0.3375636004887 1.0
C      1  0.2713914724456  0.9597494701879  0.3111105053244 1.0
C      1  0.6841915308014  0.9905985260522  0.3939650589647 1.0
C      1  0.9641317244248  0.6127489596697  0.3510751316549 1.0
C      1  0.8935109185783  0.1661969843393  0.3344698275598 1.0
C      1  0.4821869635177  0.0289988098468  0.3538026590215 1.0
C      1  0.1303321362265  0.1952328362704  0.3511203415470 1.0
C      1  0.6789022516505  0.1635509581947  0.6011037819149 1.0
C      1  0.3444463598053  0.1153823501726  0.6416783456718 1.0
C      1  0.1195871344933  0.3799524875049  0.6151956192335 1.0
C      1  0.1658142765131  0.7285185343051  0.6341424034603 1.0
C      1  0.4660873164134  0.9079409514291  0.6423447515400 1.0
C      1  0.7922209487101  0.7854615665675  0.6237237805752 1.0
C      1  0.8731569012456  0.4375201452730  0.5754368655916 1.0
C      1  0.4266358023046  0.5489338140582  0.5045421809072 1.0
C      1  0.4856037139156  0.5895769916847  0.5722659831856 1.0
C      1  0.5740989250666  0.5792860004695  0.5261986332356 1.0
C      1  0.6090639314693  0.4847791382397  0.5188514037165 1.0
C      1  0.5631869703137  0.3922502800593  0.5176084946717 1.0
C      1  0.4641739765010  0.3855305074923  0.5162777479746 1.0
C      1  0.4181491402654  0.4662958728113  0.5521949865315 1.0
C      1  0.1813350351484  0.2832610534096  0.7496922805360 1.0
C      1  0.1404741614123  0.5976356750538  0.7476379970420 1.0
C      1  0.3519558997203  0.8497115815101  0.7598060769295 1.0
C      1  0.6895950299329  0.8325039448661  0.7566364491173 1.0
C      1  0.8705588648494  0.5562595422072  0.7185310882345 1.0
C      1  0.7806690328825  0.2436315852368  0.7208914658052 1.0
C      1  0.4737103999885  0.1194261494508  0.7621151037103 1.0
C      1  0.5830419375560  0.8026942004727  0.3992371956225 1.0
C      1  0.7921276349818  0.5586257980956  0.3902127024818 1.0
C      1  0.7449746137740  0.3462838476239  0.3507652322649 1.0
C      1  0.5502062138968  0.1866222673053  0.4070213227511 1.0
C      1  0.2822649631966  0.2673724027840  0.3963764447208 1.0
C      1  0.2165764836607  0.5249493845291  0.3714319017677 1.0
C      1  0.3648928356100  0.7870877801906  0.3906093720394 1.0
C      1  0.6661987313824  0.4753874989193  0.6025387746720 1.0
C      1  0.5962992289406  0.3308658492656  0.5971611056044 1.0
C      1  0.4355779579027  0.3217228206731  0.5947712618483 1.0
C      1  0.3243965868181  0.4536312316693  0.5917329476974 1.0
C      1  0.3388679285222  0.6747141799119  0.6037128796063 1.0
C      1  0.4884216519489  0.6902497894201  0.6034824427408 1.0
C      1  0.6455862940974  0.6284115110839  0.5874217512513 1.0
C      1  0.6986755927343  0.3984109720611  0.4276061541771 1.0
C      1  0.6121232694121  0.2528492343989  0.4511557302883 1.0
C      1  0.3632218709695  0.2945480280798  0.4527102204448 1.0
C      1  0.2753550892670  0.4595617176433  0.4255874189354 1.0
C      1  0.3364270137446  0.6984679602130  0.4275293101126 1.0
C      1  0.5503375542171  0.7247481460976  0.4523469267860 1.0
C      1  0.7144838718194  0.5677559306654  0.4418216668837 1.0
C      1  0.5952210776777  0.8477602528575  0.7563463986354 1.0
C      1  0.8299351417947  0.6438695109940  0.7340698002913 1.0
C      1  0.8133975958980  0.3363873707956  0.7147336968170 1.0
C      1  0.5690777083436  0.1427626864793  0.7514286003130 1.0
C      1  0.2610796589653  0.2278552437334  0.7501329066592 1.0
C      1  0.1589183891596  0.5054577890953  0.7360959967511 1.0
C      1  0.2817685797259  0.7858606429244  0.7581126858562 1.0
C      1  0.7647618361790  0.6943808525903  0.2246652094197 1.0
C      1  0.9285655020414  0.3816196341774  0.2032997778488 1.0
C      1  0.6424024029288  0.1363032382662  0.2053945268722 1.0
C      1  0.3535799483070  0.1604215540189  0.2475478333690 1.0
C      1  0.1151735091649  0.4107979405003  0.2267891739608 1.0
C      1  0.1891698493982  0.7529301669543  0.2270392837393 1.0
C      1  0.4968415457330  0.9140096814441  0.2433756358772 1.0
C      1  0.9150259524400  0.3552959885003  0.3571032028383 1.0
C      1  0.6321879890345  0.1391068708348  0.3670692080175 1.0
C      1  0.3134344932492  0.1687271560079  0.3983694400950 1.0
C      1  0.1361360321235  0.4547349677009  0.3810027279687 1.0
C      1  0.1947235605575  0.7768419430887  0.3826192279112 1.0
C      1  0.5173313198831  0.8764595139738  0.4115011326975 1.0
C      1  0.8058613841267  0.7474151500466  0.3718436304364 1.0
C      1  0.5180681492134  0.3330226445389  0.6637345037600 1.0
C      1  0.3462402184722  0.3570633222678  0.6305798916364 1.0
C      1  0.3508204689275  0.5108149177547  0.6702682949116 1.0
C      1  0.4037064629244  0.6923356489418  0.6636934563315 1.0
C      1  0.5815906968056  0.6915039356909  0.6442871266683 1.0
C      1  0.6803188819899  0.5575343186733  0.6491428066949 1.0
C      1  0.6658339548577  0.3902111356751  0.6397387106920 1.0
C      1  0.6574801517221  0.3057593592472  0.3047582286884 1.0
C      1  0.4759850750209  0.2230402116572  0.3522105068820 1.0
C      1  0.2505345645012  0.3289816857739  0.3274995011898 1.0
C      1  0.2445223425911  0.5451545722873  0.2733743673903 1.0
C      1  0.3798047092724  0.7715082199446  0.2971800685897 1.0
C      1  0.6388455164365  0.7783059621835  0.3225457276204 1.0
C      1  0.8192401374002  0.4958823553862  0.3225513613572 1.0
C      1  0.8321900430455  0.6924754269603  0.2902453120902 1.0
C      1  0.9346549154171  0.3138342032820  0.2686502232120 1.0
C      1  0.6070927215489  0.0828639249735  0.2822120999309 1.0
C      1  0.2820686689846  0.1444489102019  0.3049044145417 1.0
C      1  0.0899962319600  0.4699860343939  0.2898372403461 1.0
C      1  0.2111413383139  0.8110617976799  0.2969169748335 1.0
C      1  0.5293493151333  0.9411467834950  0.3309794737997 1.0
C      1  0.4218899766244  0.3690057646589  0.4219388516573 1.0
C      1  0.3705319581224  0.4557686197273  0.3913637601459 1.0
C      1  0.4054869552423  0.5495181362120  0.4177697337287 1.0
C      1  0.3905734780942  0.6354849583898  0.3772000841430 1.0
C      1  0.5755489393294  0.6352312894252  0.4387558980032 1.0
C      1  0.6565671443698  0.4907073534925  0.4260895776921 1.0
C      1  0.6066177631276  0.3511023234973  0.4396377195602 1.0
C      1  0.9237887828915  0.2238309455032  0.2791626254348 1.0
C      1  0.5061801979572  0.0844566229021  0.2815405276479 1.0
C      1  0.1886137288807  0.1575908248312  0.3037529886475 1.0
C      1  0.0900466851439  0.5662082170743  0.2683621743455 1.0
C      1  0.2724025968669  0.8812939759727  0.2650680798598 1.0
C      1  0.6219574780191  0.9870810785073  0.3245187985306 1.0
C      1  0.8956060417370  0.6251396707592  0.2817352189582 1.0
C      1  0.6047963488229  0.5140696764771  0.3414658028394 1.0
C      1  0.5748166965364  0.3557811843186  0.3425453839232 1.0
C      1  0.4793910896236  0.3194758725207  0.3345173506020 1.0
C      1  0.3795853398832  0.4586894151548  0.2922739771129 1.0
C      1  0.3303034207161  0.5315405657367  0.2446330295804 1.0
C      1  0.4300618651524  0.6844220142518  0.2998327078980 1.0
C      1  0.5723807434344  0.6016168905077  0.3481121923609 1.0
C      1  0.2855006289578  0.1412586042785  0.4926612360219 1.0
C      1  0.0804970242038  0.4624283942677  0.4633820174882 1.0
C      1  0.2055617504293  0.7797797497226  0.4800604718738 1.0
C      1  0.5437706915005  0.9170738222728  0.5014884799814 1.0
C      1  0.8350383834225  0.7434907778405  0.4663267292331 1.0
C      1  0.9601750482702  0.3454456937254  0.4372558343987 1.0
C      1  0.6889310517826  0.0804064248198  0.4275838145869 1.0
C      1  0.5478403707405  0.7716556346100  0.7932577031380 1.0
C      1  0.7477211651173  0.6349588798001  0.7854894153327 1.0
C      1  0.7599703272450  0.3961126208358  0.7725387396113 1.0
C      1  0.5904904512750  0.2255055133007  0.7964205194926 1.0
C      1  0.3387072049238  0.2742613562307  0.7881914334456 1.0
C      1  0.2341814222122  0.4739622351315  0.7899006249212 1.0
C      1  0.3110641489003  0.7010492941044  0.7984915400600 1.0
C      1  0.2934823093456  0.8102807393067  0.5269807068773 1.0
C      1  0.6219010390749  0.8719632840757  0.5312360748604 1.0
C      1  0.8227092184816  0.6525550600619  0.5070929305486 1.0
C      1  0.7944553989634  0.3012292360771  0.4890495107168 1.0
C      1  0.5230595370041  0.1692374024600  0.5529575896306 1.0
C      1  0.2484077138314  0.2293147239553  0.5353303629682 1.0
C      1  0.1964129111444  0.5532318321958  0.5231360089758 1.0
C      1  0.6415065507727  0.8765899499129  0.6204618660117 1.0
C      1  0.8595103537660  0.6306619740028  0.5928927503673 1.0
C      1  0.8061638754990  0.2796297849168  0.5764617403500 1.0
C      1  0.5194363321512  0.1095435328362  0.6215545731543 1.0
C      1  0.2012818880274  0.2180521413813  0.6177366335861 1.0
C      1  0.1379087992738  0.5615318661980  0.6001884077984 1.0
C      1  0.2925900531515  0.8470823782587  0.6192052662164 1.0
C      1  0.6111720702896  0.5430965399835  0.8905519242631 1.0
C      1  0.6122398387050  0.4648062709454  0.9459471467638 1.0
C      1  0.5391660859177  0.4040563650783  0.9149636615075 1.0
C      1  0.4592371466992  0.4334042040060  0.9673315135605 1.0
C      1  0.4281846629763  0.5048537633852  0.9103082684998 1.0
C      1  0.4672385245186  0.5926428669603  0.9399087884601 1.0
C      1  0.5650550831735  0.6186269964573  0.9275001661800 1.0
C      1  0.6407269822283  0.2145494004047  0.1772452085926 1.0
C      1  0.4108892728754  0.2260911592793  0.2137744068439 1.0
C      1  0.1850097798050  0.3768428094689  0.1928429552862 1.0
C      1  0.1852204730988  0.6762755767376  0.1982416337244 1.0
C      1  0.4327547635572  0.8802331392824  0.2044025866801 1.0
C      1  0.6853176845284  0.6959149802455  0.2027475849513 1.0
C      1  0.9133535037442  0.4637454214023  0.2034645421406 1.0
C      1  0.7352810165694  0.7013524719376  0.8537960839691 1.0
C      1  0.8150854876443  0.4449623947329  0.8344273141977 1.0
C      1  0.6715932053092  0.2264642721534  0.8476778819001 1.0
C      1  0.3810905740390  0.2238974366485  0.8588932807396 1.0
C      1  0.2099960545238  0.4100569693623  0.8521571569960 1.0
C      1  0.2472676770667  0.6569174410927  0.8507225682382 1.0
C      1  0.4796900779462  0.7972550032306  0.8533458899473 1.0
C      1  0.5450238173574  0.2989927071226  0.7647570075733 1.0
C      1  0.3671798069089  0.3458642025448  0.7382059781756 1.0
C      1  0.3205507938706  0.5021324107593  0.7592640680911 1.0
C      1  0.3873040058534  0.6657316947514  0.7576399938389 1.0
C      1  0.5655578671596  0.6947045797276  0.7435646110653 1.0
C      1  0.6879431448086  0.5761401993868  0.7457828914650 1.0
C      1  0.6750514336170  0.4017668597928  0.7369207177332 1.0
C      1  0.1725175746433  0.5903263991674  0.2295438205366 1.0
C      1  0.3538000382817  0.8391554025845  0.2346492054700 1.0
C      1  0.6106826774301  0.7245289834669  0.2531219209775 1.0
C      1  0.8694443402266  0.5313440964232  0.2525432839609 1.0
C      1  0.6341805592124  0.3056041249590  0.2069206672903 1.0
C      1  0.4540054201857  0.1644968093731  0.2736540524005 1.0
C      1  0.2604995937535  0.3487049709161  0.2346252969230 1.0
C      1  0.3404898441454  0.2871122137496  0.5551352912998 1.0
C      1  0.2596306686613  0.4845681844274  0.5208505924849 1.0
C      1  0.3350729867662  0.7151295648173  0.5248953572340 1.0
C      1  0.4852720582873  0.7495345560357  0.5136899008942 1.0
C      1  0.7200543104037  0.6306164318621  0.5115972831683 1.0
C      1  0.7973638969983  0.3985101341702  0.4679385590988 1.0
C      1  0.6081483047101  0.2294058974118  0.5512786032685 1.0
C      1  0.7806016434399  0.1184610793697  0.4589097380501 1.0
C      1  0.3993722594785  0.0087568686667  0.5072753849574 1.0
C      1  0.0463006753601  0.3079235038174  0.4599202294730 1.0
C      1  0.0764092379327  0.6889889200432  0.4969214418359 1.0
C      1  0.3342754184286  0.9539113845957  0.4556142965391 1.0
C      1  0.7952590021295  0.8995201569508  0.4943323855361 1.0
C      1  0.9952580493388  0.4985595668307  0.4716721504239 1.0
C      1  0.5866011251413  0.4460913573407  0.7613657075045 1.0
C      1  0.5300373013934  0.3825245505207  0.8198648629967 1.0
C      1  0.4419114113598  0.4115687895468  0.7722765740673 1.0
C      1  0.4071952229008  0.5019533271757  0.8137558301291 1.0
C      1  0.4450942943529  0.5913320948843  0.7813513771243 1.0
C      1  0.5330339845341  0.6065718349494  0.7697678778212 1.0
C      1  0.6028351568396  0.5399440219061  0.7924363932970 1.0
C      1  0.8340745796776  0.6992679062066  0.6569991485151 1.0
C      1  0.8397066025218  0.3570819624405  0.6282759814851 1.0
C      1  0.6043621786018  0.1213503951625  0.6680651651845 1.0
C      1  0.2675492966586  0.1707577449029  0.6760637464834 1.0
C      1  0.1331781818389  0.4713734531479  0.6503877472121 1.0
C      1  0.2345079138901  0.7898103988377  0.6742781983597 1.0
C      1  0.5605367399007  0.8866660170761  0.6768844135299 1.0
C      1  0.1909279976388  0.6047283992515  0.4332160775204 1.0
C      1  0.3478710685746  0.8582848952414  0.4595413404886 1.0
C      1  0.6676858049211  0.8328375852254  0.4491436590351 1.0
C      1  0.8560318859180  0.5858202959347  0.4461984629024 1.0
C      1  0.7691397979261  0.2578694085375  0.4034527408895 1.0
C      1  0.4787560304789  0.1494164308110  0.4677254784147 1.0
C      1  0.2047287130218  0.2840636539373  0.4559608077059 1.0
C      1  0.7393559389371  0.2174192086981  0.8000215971143 1.0
C      1  0.4247110516498  0.1586617494268  0.8303383909355 1.0
C      1  0.1732762148761  0.3408228288114  0.8192371884147 1.0
C      1  0.1694046979122  0.6377607875266  0.8269897468903 1.0
C      1  0.4159074080461  0.8440444404497  0.8267118323400 1.0
C      1  0.7248834578960  0.7782118599759  0.8230279151126 1.0
C      1  0.8624085091001  0.4973239483068  0.7887692455779 1.0
C      1  0.6752184805037  0.2295957602657  0.3741893618086 1.0
C      1  0.4060171874046  0.2054467436791  0.4229912179236 1.0
C      1  0.2087031645951  0.3826207785159  0.3995010555272 1.0
C      1  0.2349103620930  0.6944743355495  0.4195987244784 1.0
C      1  0.4401423011148  0.8226576628618  0.4533194379739 1.0
C      1  0.7197254619257  0.7834021503959  0.3738749313010 1.0
C      1  0.8287667151930  0.4053363084081  0.3633991218677 1.0
C      1  0.2772605592829  0.9863928179026  0.3912861970495 1.0
C      1  0.7282831933720  0.9199783219684  0.4394292734584 1.0
C      1  0.9460450563531  0.5662231518825  0.4302981454960 1.0
C      1  0.8292565453431  0.1736663487792  0.3980570115322 1.0
C      1  0.4567585198308  0.0563151166620  0.4394338463905 1.0
C      1  0.1126999158735  0.2544564969501  0.4228583441302 1.0
C      1  0.0993708350686  0.6448715793240  0.4187365566298 1.0
C      1  0.9570046341208  0.4179376912807  0.5165266852125 1.0
C      1  0.7163378847727  0.1101609960110  0.5197555712404 1.0
C      1  0.3373926503038  0.0866894065252  0.5492439793292 1.0
C      1  0.0667101213196  0.3826245374910  0.5277715953832 1.0
C      1  0.1381512506449  0.7406957019071  0.5417958533508 1.0
C      1  0.4716046818447  0.9498608271538  0.5575458497621 1.0
C      1  0.8119272332848  0.8122789043513  0.5287914777978 1.0
C      1  0.4833495828891  0.5415301244293  0.2165533091200 1.0
C      1  0.5352895847887  0.5315732408076  0.1366139902150 1.0
C      1  0.5046803739382  0.4342703194902  0.6952893277343 1.0
C      1  0.4769229433043  0.4739272463724  0.2752032092541 1.0
C      1  0.4539705686546  0.5059842802687  0.6386091920746 1.0
END
