TITL C-13179-9057-180 -0.553 3375.00 -78.69847292 0 0 10 (D10) n - 1
REM
REM Run started: at 2020.12.30 15:45:51 in /gpfs/home/chem/mssmkc/CARBON/AIRSS/Generating-Clusters/Str-Search/Higher-Symm/C4-100
REM VASP from code version vasp.5.4.4.18Apr17-6-g9f103f2a35 (build Oct 11 2019 16:45:47) gamma-only
REM
REM
REM
REM
REM ./C.cell (6bd13a13d554368a30d355f37ece5b26)
REM AIRSS Version 0.9.1 bugfix July 2018 build 013d7b7c2542+ Fri, 06 Jul 2018 19:26:36 +0100
REM compiler GCC version 6.3.0
REM options -cpp -iprefix /gpfs/warwick/csc/orac/software/Core/GCCcore/6.3.0/bin/../lib/gcc/x86_64-pc-linux-gnu/6.3.0/ -mtune=generic -march=x86-64 -g -O0
REM seed -1829179893 1135927125 204105898 -1331917214 -1981339843 1616555807 -1614061259 -758575979 1305843249 -296031247 1875140812 -824471845
REM
REM C.POTCAR (d86ddea03c3ceb6dc662c8ad6801f873)
REM 
CELL 1.54180   15.00000   15.00000   15.00000   90.00000   90.00000   90.00000
LATT -1
SFAC C  
C      1  0.5387853854343  0.3972266230339  0.5866256540863 1.0
C      1  0.4612237907486  0.6027691866487  0.4133602923455 1.0
C      1  0.5926931470260  0.4202207633645  0.4333376962870 1.0
C      1  0.4073039612680  0.5797725879654  0.5666722110819 1.0
C      1  0.5184920686047  0.5530223228874  0.3724663462326 1.0
C      1  0.4815031401061  0.4469795309112  0.6275419282248 1.0
C      1  0.4313444953877  0.5166617451931  0.6202833044338 1.0
C      1  0.5686535478142  0.4833452337581  0.3797158062874 1.0
C      1  0.5810049749413  0.3873884066642  0.5121478277587 1.0
C      1  0.4189954886693  0.6126135995734  0.4878489332621 1.0
END
