TITL C-13179-9057-9 -3.361 3375.00 -581.23627297 0 0 73 (C1) n - 1
REM
REM Run started: at 2020.12.29 05:39:46 in /gpfs/home/chem/mssmkc/CARBON/AIRSS/Generating-Clusters/Str-Search/Higher-Symm/C4-100
REM VASP from code version vasp.5.4.4.18Apr17-6-g9f103f2a35 (build Oct 11 2019 16:45:47) gamma-only
REM
REM
REM
REM
REM ./C.cell (6bd13a13d554368a30d355f37ece5b26)
REM AIRSS Version 0.9.1 bugfix July 2018 build 013d7b7c2542+ Fri, 06 Jul 2018 19:26:36 +0100
REM compiler GCC version 6.3.0
REM options -cpp -iprefix /gpfs/warwick/csc/orac/software/Core/GCCcore/6.3.0/bin/../lib/gcc/x86_64-pc-linux-gnu/6.3.0/ -mtune=generic -march=x86-64 -g -O0
REM seed -954349646 1059705508 -1084883747 1556636481 -200090809 -1430187029 -1033637551 937871501 -460733399 -154140593 1366436474 810971615
REM
REM C.POTCAR (d86ddea03c3ceb6dc662c8ad6801f873)
REM 
CELL 1.54180   15.00000   15.00000   15.00000   90.00000   90.00000   90.00000
LATT -1
SFAC C  
C      1  0.5906453478281  0.5675401094987  0.4377739929320 1.0
C      1  0.3990151001402  0.5377566346377  0.4364915231664 1.0
C      1  0.5142689669033  0.4094603715922  0.4429673593829 1.0
C      1  0.3181698639660  0.3737234851046  0.4393913793974 1.0
C      1  0.6998341874760  0.4074873490703  0.4349508858175 1.0
C      1  0.4829023159159  0.7170689139573  0.4369912054328 1.0
C      1  0.4047024579910  0.2763084549574  0.6618900491317 1.0
C      1  0.7456350139301  0.5258106696530  0.6520935402829 1.0
C      1  0.3621748384437  0.6953482933810  0.6503507525881 1.0
C      1  0.5348054432776  0.5479178212766  0.7877780798439 1.0
C      1  0.4503949068990  0.5050247366683  0.7879646150828 1.0
C      1  0.5302369409035  0.4531985760701  0.7877461704440 1.0
C      1  0.4547925165755  0.4108480708779  0.5229082700292 1.0
C      1  0.5992996345243  0.5035782203523  0.5168168284658 1.0
C      1  0.4523892895507  0.5754072150771  0.5110739573704 1.0
C      1  0.6512179819241  0.5481901714477  0.6820560044340 1.0
C      1  0.3913704372352  0.6023056746806  0.6795008256500 1.0
C      1  0.4721025355721  0.3479206324476  0.6868882542430 1.0
C      1  0.3832945070476  0.7181482832560  0.4247852498107 1.0
C      1  0.3621089541807  0.2852221195194  0.4327491344217 1.0
C      1  0.7528984309080  0.4927850846590  0.4241854521705 1.0
C      1  0.7186223522337  0.6660368502099  0.4484690647687 1.0
C      1  0.2516184332460  0.6008832956459  0.4496425708717 1.0
C      1  0.5237973199566  0.2393600748206  0.4536293560348 1.0
C      1  0.6951824390881  0.6709041035569  0.5448818150612 1.0
C      1  0.2582031008598  0.5795469108112  0.5463938301119 1.0
C      1  0.5528960271628  0.2491057626588  0.5464085453700 1.0
C      1  0.3045196442029  0.3978210704350  0.3456704106834 1.0
C      1  0.6859845608453  0.3798900644523  0.3431063382058 1.0
C      1  0.5146035045631  0.7235761715911  0.3453326436935 1.0
C      1  0.3401545455849  0.4516805801781  0.6693308899077 1.0
C      1  0.6277191079469  0.3826419913666  0.6679873266541 1.0
C      1  0.5444404268208  0.6665179231048  0.6664140816641 1.0
C      1  0.5840750088848  0.6032638273633  0.7275518706363 1.0
C      1  0.3778426449308  0.5184847150275  0.7277300201324 1.0
C      1  0.5531993575088  0.3812809964334  0.7305734552435 1.0
C      1  0.3187921311269  0.6619539282306  0.5656718307617 1.0
C      1  0.4516609307189  0.2543217054408  0.5754096722696 1.0
C      1  0.7379632242558  0.5784536712333  0.5660860098146 1.0
C      1  0.6922259360285  0.4771423004188  0.3503967766341 1.0
C      1  0.4296546984659  0.6751054571603  0.3512491152042 1.0
C      1  0.3824870727383  0.3409032956678  0.3549117714360 1.0
C      1  0.6705720229717  0.7059575135173  0.3821170757922 1.0
C      1  0.2413440519826  0.5372772288151  0.3838408059784 1.0
C      1  0.5462123998618  0.2861163193330  0.3735774082558 1.0
C      1  0.5956103752973  0.3430874680060  0.5754248495560 1.0
C      1  0.5912800277140  0.6571656321507  0.5731562015098 1.0
C      1  0.3204719539705  0.4970286609851  0.5758902918144 1.0
C      1  0.3715475416438  0.5322749341397  0.2783439052272 1.0
C      1  0.5357848462618  0.3899362712221  0.2747811538044 1.0
C      1  0.5891345369637  0.6002100263803  0.2804699714055 1.0
C      1  0.5173531717287  0.4616375693797  0.2202706314866 1.0
C      1  0.5333637956796  0.5569947921233  0.2185634172426 1.0
C      1  0.4417830443666  0.5204557978991  0.2159086913629 1.0
C      1  0.6183931088539  0.5430255657497  0.3533830224994 1.0
C      1  0.4066736256147  0.5787238572676  0.3538214740827 1.0
C      1  0.4801100126516  0.3614059024105  0.3526111068343 1.0
C      1  0.6889010438378  0.4559542035801  0.6812391252844 1.0
C      1  0.4499784597427  0.6823280022990  0.6801417339476 1.0
C      1  0.3734340019140  0.3624349254675  0.6853153836895 1.0
C      1  0.3100843305608  0.6870930454946  0.4707139535550 1.0
C      1  0.4275863850090  0.2411119476958  0.4802301663967 1.0
C      1  0.7635291698620  0.5721763234828  0.4708461177738 1.0
C      1  0.5995698412074  0.6902671673215  0.3215242418843 1.0
C      1  0.2914503694718  0.4874951166062  0.3197223462948 1.0
C      1  0.6076592418698  0.3364915423559  0.3159748346927 1.0
C      1  0.3838219435079  0.5778831916097  0.5831745604155 1.0
C      1  0.4933864927098  0.3517821660509  0.5900937982715 1.0
C      1  0.6331506027097  0.5643643723188  0.5857026655029 1.0
C      1  0.6156811360800  0.4060915040564  0.4929254241738 1.0
C      1  0.5281618911162  0.6418198092771  0.4892233319899 1.0
C      1  0.3616759789070  0.4472822756690  0.4937557445998 1.0
C      1  0.5037564575699  0.4928413833433  0.5136562394186 1.0
END
