TITL C-13179-9057-206 -3.958 3375.00 -672.55810830 0 0 81 (C1) n - 1
REM
REM Run started: at 2020.12.30 19:41:17 in /gpfs/home/chem/mssmkc/CARBON/AIRSS/Generating-Clusters/Str-Search/Higher-Symm/C4-100
REM VASP from code version vasp.5.4.4.18Apr17-6-g9f103f2a35 (build Oct 11 2019 16:45:47) gamma-only
REM
REM
REM
REM
REM ./C.cell (6bd13a13d554368a30d355f37ece5b26)
REM AIRSS Version 0.9.1 bugfix July 2018 build 013d7b7c2542+ Fri, 06 Jul 2018 19:26:36 +0100
REM compiler GCC version 6.3.0
REM options -cpp -iprefix /gpfs/warwick/csc/orac/software/Core/GCCcore/6.3.0/bin/../lib/gcc/x86_64-pc-linux-gnu/6.3.0/ -mtune=generic -march=x86-64 -g -O0
REM seed -644248700 935324726 327415340 668391816 -2118767530 1618807376 -1587601856 513277680 2131699852 1882505283 1974873274 -1001090369
REM
REM C.POTCAR (d86ddea03c3ceb6dc662c8ad6801f873)
REM 
CELL 1.54180   15.00000   15.00000   15.00000   90.00000   90.00000   90.00000
LATT -1
SFAC C  
C      1  0.6260428059782  0.7468671773275  0.4266176057457 1.0
C      1  0.6297997212507  0.6976133824724  0.6483140242543 1.0
C      1  0.6404478567624  0.5044618918139  0.7605442643695 1.0
C      1  0.6290496949561  0.3014427233607  0.6683949735336 1.0
C      1  0.6207985257899  0.2458389293174  0.4519916545642 1.0
C      1  0.6261606681252  0.3758569959386  0.2687592763671 1.0
C      1  0.6278063619689  0.5998810069100  0.2591192146050 1.0
C      1  0.7304827494315  0.5627810985117  0.5958771691076 1.0
C      1  0.7231256680501  0.4664391410049  0.6135638622632 1.0
C      1  0.7146672632277  0.3919524421049  0.5481606444404 1.0
C      1  0.7088329858365  0.3935727702021  0.4483184497035 1.0
C      1  0.7079167308241  0.4692006407010  0.3846523315564 1.0
C      1  0.7054526758168  0.5665922774954  0.4089424598258 1.0
C      1  0.7294169260723  0.6049927105026  0.5031781602655 1.0
C      1  0.6805220395750  0.4513636172225  0.2966356853559 1.0
C      1  0.6829593404464  0.6292370759694  0.3330160550646 1.0
C      1  0.6718927944783  0.6887613418458  0.4950865801078 1.0
C      1  0.6908489016081  0.6198359686251  0.6606021700272 1.0
C      1  0.6909586861327  0.4454684854090  0.7027562191719 1.0
C      1  0.6793091365961  0.3116337043529  0.5857485232974 1.0
C      1  0.6747904697987  0.3142289978789  0.4093827251273 1.0
C      1  0.2796266330590  0.6644923894387  0.4223132366611 1.0
C      1  0.2796288276137  0.6658232755780  0.5794229192058 1.0
C      1  0.2855965148949  0.5379343806249  0.6729733557653 1.0
C      1  0.2825605811949  0.3866108843297  0.6380706996030 1.0
C      1  0.2775461334383  0.3169963380244  0.4968751753011 1.0
C      1  0.2771642460440  0.3881787891190  0.3563756534408 1.0
C      1  0.2780703264795  0.5421606560552  0.3224379504672 1.0
C      1  0.3252538422346  0.4523635787125  0.6949511893868 1.0
C      1  0.3184726490112  0.3104202127364  0.5859914250119 1.0
C      1  0.3142229867623  0.3116214485577  0.4060697948770 1.0
C      1  0.3163706921513  0.4551838153767  0.2964899564272 1.0
C      1  0.3184912588805  0.6306025985525  0.3386052243291 1.0
C      1  0.3168481307510  0.7100543161133  0.5009550521083 1.0
C      1  0.3243692855421  0.6283281599393  0.6586480849028 1.0
C      1  0.4738726468757  0.4386093382842  0.2236061693408 1.0
C      1  0.4762323009285  0.6770186296230  0.2762737691045 1.0
C      1  0.4738437062059  0.7844168451579  0.4979226238443 1.0
C      1  0.4816357279630  0.6677586142144  0.7212010374996 1.0
C      1  0.4858648477635  0.4345401824232  0.7702422715843 1.0
C      1  0.4732755947832  0.2405795209509  0.6238904985889 1.0
C      1  0.4697527651241  0.2417732748625  0.3714190774651 1.0
C      1  0.4013454868465  0.6594818016202  0.7007113922470 1.0
C      1  0.4235253235371  0.4479286633005  0.7089854310158 1.0
C      1  0.3939939744175  0.2627578275162  0.6088548661219 1.0
C      1  0.3908485109913  0.2659419041211  0.3831612559795 1.0
C      1  0.3943575723249  0.4434790526092  0.2482433668540 1.0
C      1  0.3985989435201  0.6591377305408  0.3017213347675 1.0
C      1  0.3940995327568  0.7619499791082  0.5002224770962 1.0
C      1  0.5608015705273  0.2448784564103  0.3735273756468 1.0
C      1  0.5659585330932  0.4374072961438  0.2207236499300 1.0
C      1  0.5673273183346  0.6763511330642  0.2744469378726 1.0
C      1  0.5665784883471  0.7783463672206  0.4975333120363 1.0
C      1  0.5734551306497  0.6668576591301  0.7219000770906 1.0
C      1  0.5748681326857  0.4313119473274  0.7774296787074 1.0
C      1  0.5646321687612  0.2413996850457  0.6229411213452 1.0
C      1  0.2167883779941  0.4317728288819  0.5834950445633 1.0
C      1  0.2154298582283  0.3907516458149  0.4982721631282 1.0
C      1  0.2144843552121  0.4329849829943  0.4133371808516 1.0
C      1  0.2151691531287  0.5259594242759  0.3928646778104 1.0
C      1  0.2162751131667  0.5991943849882  0.4530947319671 1.0
C      1  0.2164466281486  0.5989477259708  0.5481358749918 1.0
C      1  0.2174985027418  0.5242199388434  0.6051472327977 1.0
C      1  0.6374732626030  0.5927964397731  0.7368908386844 1.0
C      1  0.6355830983181  0.3700417856688  0.7279422798401 1.0
C      1  0.6224994142106  0.2452672163231  0.5430777164668 1.0
C      1  0.6222771620424  0.3062401573450  0.3277588188438 1.0
C      1  0.6272358556961  0.5107290322833  0.2390942252819 1.0
C      1  0.6301285914778  0.7113440622309  0.3417751978744 1.0
C      1  0.6216666154972  0.7354141970552  0.5659453360902 1.0
C      1  0.4511840173517  0.5470138985881  0.4230839822705 1.0
C      1  0.4723306996579  0.5912942253027  0.5109024980335 1.0
C      1  0.4078311255825  0.5365191523798  0.5615261945986 1.0
C      1  0.4570218389819  0.4701243272478  0.6165467921983 1.0
C      1  0.4965682688449  0.4109485694318  0.5451729665638 1.0
C      1  0.4559295300811  0.4235696421293  0.4577310396443 1.0
C      1  0.5066412579421  0.4736469881984  0.3915707436529 1.0
C      1  0.5615947099185  0.5594054251089  0.5266795919493 1.0
C      1  0.3878203528076  0.4949619406097  0.4781288875011 1.0
C      1  0.6328770440845  0.5961418543316  0.4782422312232 1.0
C      1  0.5504054790620  0.4797339234233  0.5769211627925 1.0
END
