TITL C-13179-9057-174 -2.058 3375.00 -353.48033158 0 0 42 (C1) n - 1
REM
REM Run started: at 2020.12.30 13:32:17 in /gpfs/home/chem/mssmkc/CARBON/AIRSS/Generating-Clusters/Str-Search/Higher-Symm/C4-100
REM VASP from code version vasp.5.4.4.18Apr17-6-g9f103f2a35 (build Oct 11 2019 16:45:47) gamma-only
REM
REM
REM
REM
REM ./C.cell (6bd13a13d554368a30d355f37ece5b26)
REM AIRSS Version 0.9.1 bugfix July 2018 build 013d7b7c2542+ Fri, 06 Jul 2018 19:26:36 +0100
REM compiler GCC version 6.3.0
REM options -cpp -iprefix /gpfs/warwick/csc/orac/software/Core/GCCcore/6.3.0/bin/../lib/gcc/x86_64-pc-linux-gnu/6.3.0/ -mtune=generic -march=x86-64 -g -O0
REM seed 165229704 2124086223 143050353 614878338 -549918886 -707307054 -2126877161 -1640924130 709768542 2034834215 1693937125 1649912006
REM
REM C.POTCAR (d86ddea03c3ceb6dc662c8ad6801f873)
REM 
CELL 1.54180   15.00000   15.00000   15.00000   90.00000   90.00000   90.00000
LATT -1
SFAC C  
C      1  0.5060643069094  0.4451756623216  0.2969341334084 1.0
C      1  0.3261980473040  0.4510714718426  0.5965234619491 1.0
C      1  0.6642255643887  0.4548801465293  0.5929858136159 1.0
C      1  0.3357728108373  0.4125324094311  0.4668152023993 1.0
C      1  0.5550245936717  0.4107782503132  0.6614549696498 1.0
C      1  0.6147890805958  0.3984061676356  0.3621763577465 1.0
C      1  0.3978680985790  0.4782361716066  0.6535415458569 1.0
C      1  0.6720487154690  0.4826414579415  0.5031432501857 1.0
C      1  0.4302607487717  0.4820018404237  0.3415398466727 1.0
C      1  0.5277886455327  0.3586449773860  0.3314832606330 1.0
C      1  0.3443530956223  0.3669925556034  0.5561410539929 1.0
C      1  0.6273582117988  0.3679402668780  0.6029855381093 1.0
C      1  0.5966087330216  0.4785956023688  0.3083032318208 1.0
C      1  0.3082437635008  0.4947808205673  0.5113460000300 1.0
C      1  0.6045790728999  0.4955875015045  0.6575877448006 1.0
C      1  0.6019249310479  0.5658523254569  0.3293959079826 1.0
C      1  0.3345303626867  0.5832324342292  0.5036824486017 1.0
C      1  0.5791343634910  0.5830001785112  0.6462504828165 1.0
C      1  0.5598712918711  0.7053126238167  0.5541714985024 1.0
C      1  0.5209877656939  0.7206588733502  0.4666295005044 1.0
C      1  0.4052455135280  0.7032803571920  0.5686831799246 1.0
C      1  0.4546517939714  0.3292432504200  0.3841136215933 1.0
C      1  0.4222480881453  0.3307660139788  0.5964406541450 1.0
C      1  0.6215868580795  0.3309319972537  0.5165071980886 1.0
C      1  0.4697695403341  0.2689641749043  0.5452279781612 1.0
C      1  0.5546110427195  0.2666145048028  0.5029627295926 1.0
C      1  0.4753843946037  0.2680254618413  0.4513718640337 1.0
C      1  0.4346761052802  0.5786231385544  0.3618821231228 1.0
C      1  0.4115252498311  0.5726335961827  0.6540648227299 1.0
C      1  0.6550849022961  0.5787066424743  0.4902803486009 1.0
C      1  0.4616108618305  0.4016425565946  0.6546404179231 1.0
C      1  0.6491781417784  0.4001084761801  0.4504020542799 1.0
C      1  0.3916693499511  0.4049140842913  0.3918576110171 1.0
C      1  0.4871131571450  0.7028668690925  0.6180907152033 1.0
C      1  0.5639305279777  0.6818242897468  0.3956886136599 1.0
C      1  0.4259610647789  0.7043039268911  0.4738222906971 1.0
C      1  0.3567435832334  0.6253438840285  0.5886991061858 1.0
C      1  0.6163044792617  0.6296815582389  0.5675839213914 1.0
C      1  0.5193080386518  0.6185865169557  0.3373782833519 1.0
C      1  0.3865167746306  0.6273767529415  0.4318081123006 1.0
C      1  0.4927908689443  0.6226996667409  0.6693801833621 1.0
C      1  0.6364572593346  0.6165402429766  0.4060228213567 1.0
END
