TITL C-13179-9057-229 -1.879 3375.00 -315.15500864 0 0 39 (D3h) n - 1
REM
REM Run started: at 2020.12.31 00:48:40 in /gpfs/home/chem/mssmkc/CARBON/AIRSS/Generating-Clusters/Str-Search/Higher-Symm/C4-100
REM VASP from code version vasp.5.4.4.18Apr17-6-g9f103f2a35 (build Oct 11 2019 16:45:47) gamma-only
REM
REM
REM
REM
REM ./C.cell (6bd13a13d554368a30d355f37ece5b26)
REM AIRSS Version 0.9.1 bugfix July 2018 build 013d7b7c2542+ Fri, 06 Jul 2018 19:26:36 +0100
REM compiler GCC version 6.3.0
REM options -cpp -iprefix /gpfs/warwick/csc/orac/software/Core/GCCcore/6.3.0/bin/../lib/gcc/x86_64-pc-linux-gnu/6.3.0/ -mtune=generic -march=x86-64 -g -O0
REM seed 959174887 -1123322554 1231206412 -1958340843 -1476214820 -1149811008 79893555 -1509297798 -2003584407 1217971534 1205108413 1461712769
REM
REM C.POTCAR (d86ddea03c3ceb6dc662c8ad6801f873)
REM 
CELL 1.54180   15.00000   15.00000   15.00000   90.00000   90.00000   90.00000
LATT -1
SFAC C  
C      1  0.3805149896746  0.6078004428680  0.6226534550987 1.0
C      1  0.4664307320979  0.3428250205700  0.6225169200167 1.0
C      1  0.6528374706160  0.5495629176347  0.6226368838201 1.0
C      1  0.3807524584005  0.6073538654027  0.3768132583079 1.0
C      1  0.4670218088766  0.3434213080937  0.3767493403005 1.0
C      1  0.6530153928131  0.5496001250318  0.3762535279004 1.0
C      1  0.3805140041780  0.3921929364328  0.6226553651351 1.0
C      1  0.4664305646181  0.6571717791164  0.6225158746548 1.0
C      1  0.6528380282751  0.4504387226411  0.6226374445618 1.0
C      1  0.3807563951389  0.3926480101147  0.3768141789441 1.0
C      1  0.4670170855906  0.6565817272833  0.3767477463046 1.0
C      1  0.6530165253198  0.4504034535394  0.3762548421063 1.0
C      1  0.5017206792874  0.4041412473796  0.6891183555915 1.0
C      1  0.5818369040346  0.5495367459042  0.6889317195946 1.0
C      1  0.4159947341649  0.5463666754160  0.6890368096476 1.0
C      1  0.5019309174331  0.4044056401692  0.3099266649883 1.0
C      1  0.5822655658662  0.5494106477339  0.3094927577400 1.0
C      1  0.4160844781405  0.5462791023636  0.3098532399664 1.0
C      1  0.5017203436009  0.5958558786908  0.6891170371690 1.0
C      1  0.5818371847023  0.4504629047085  0.6889302190992 1.0
C      1  0.4159942171320  0.4536268267042  0.6890400390434 1.0
C      1  0.5019278004015  0.5955971977107  0.3099255304163 1.0
C      1  0.5822667234313  0.4505920280477  0.3094918188889 1.0
C      1  0.4160860287667  0.4537232947869  0.3098552653422 1.0
C      1  0.3338982179693  0.4128211514469  0.5451038958127 1.0
C      1  0.6591120169576  0.3995992171182  0.5453464305983 1.0
C      1  0.5072811773186  0.6872130958462  0.5451866979959 1.0
C      1  0.3332797703877  0.4119832539682  0.4536638829075 1.0
C      1  0.6580734949280  0.4009408459130  0.4541013416285 1.0
C      1  0.5078445303132  0.6879347243578  0.4537438207209 1.0
C      1  0.3338870379966  0.5871769630940  0.5451059297102 1.0
C      1  0.6591085527813  0.6003969229216  0.5453454881567 1.0
C      1  0.5072826996554  0.3127973332283  0.5451829645823 1.0
C      1  0.3332862941255  0.5880132546586  0.4536661641856 1.0
C      1  0.6580731801050  0.5990683116728  0.4541003808543 1.0
C      1  0.5078499421605  0.3120550434841  0.4537401411353 1.0
C      1  0.3165042598483  0.4999986850137  0.5012888438308 1.0
C      1  0.5918552147593  0.3411450446524  0.4999133818098 1.0
C      1  0.5918521781333  0.6588576542805  0.4999016414329 1.0
END
