TITL C-13179-9057-142 -2.222 3375.00 -361.63863235 0 0 45 (C1) n - 1
REM
REM Run started: at 2020.12.30 07:05:32 in /gpfs/home/chem/mssmkc/CARBON/AIRSS/Generating-Clusters/Str-Search/Higher-Symm/C4-100
REM VASP from code version vasp.5.4.4.18Apr17-6-g9f103f2a35 (build Oct 11 2019 16:45:47) gamma-only
REM
REM
REM
REM
REM ./C.cell (6bd13a13d554368a30d355f37ece5b26)
REM AIRSS Version 0.9.1 bugfix July 2018 build 013d7b7c2542+ Fri, 06 Jul 2018 19:26:36 +0100
REM compiler GCC version 6.3.0
REM options -cpp -iprefix /gpfs/warwick/csc/orac/software/Core/GCCcore/6.3.0/bin/../lib/gcc/x86_64-pc-linux-gnu/6.3.0/ -mtune=generic -march=x86-64 -g -O0
REM seed -131208124 466836971 -397748506 661837951 1841438264 125609812 230678575 -139430273 -76323072 141555212 1230534683 -559272826
REM
REM C.POTCAR (d86ddea03c3ceb6dc662c8ad6801f873)
REM 
CELL 1.54180   15.00000   15.00000   15.00000   90.00000   90.00000   90.00000
LATT -1
SFAC C  
C      1  0.5010586654682  0.6883577030736  0.3471542243164 1.0
C      1  0.5034815350511  0.4122193899406  0.2726313100885 1.0
C      1  0.5030846284288  0.2577504372912  0.5132360296674 1.0
C      1  0.5018699667773  0.4376419254596  0.7346467908667 1.0
C      1  0.5043890662318  0.7044185861042  0.6324988019738 1.0
C      1  0.4056839390564  0.5576972958545  0.6455135121724 1.0
C      1  0.4056083901662  0.6558635655885  0.4932705360015 1.0
C      1  0.4052512814742  0.5387795228734  0.3487245231816 1.0
C      1  0.4057820372734  0.3690274440335  0.4141814570208 1.0
C      1  0.4048268366447  0.3776877404682  0.5991201119952 1.0
C      1  0.4226588348908  0.7048578395013  0.5785289110808 1.0
C      1  0.4200044174419  0.6358578474240  0.3310816924323 1.0
C      1  0.4222907270686  0.3802658108503  0.3166683793471 1.0
C      1  0.4212423301838  0.2889391564159  0.5568870981381 1.0
C      1  0.4210160177618  0.4898514174891  0.7170677144053 1.0
C      1  0.4216180508379  0.4651273193346  0.2834356571812 1.0
C      1  0.4220938570471  0.2852055594490  0.4658021246703 1.0
C      1  0.4202056893018  0.4015920385362  0.6945564976914 1.0
C      1  0.4227836956501  0.6554192061480  0.6549788372224 1.0
C      1  0.4203151395556  0.6929848656516  0.4020229907244 1.0
C      1  0.3283516437339  0.4291135322729  0.4524581341638 1.0
C      1  0.3380591225453  0.4380294182744  0.5495636154947 1.0
C      1  0.3291708510776  0.5324239766437  0.5783496570608 1.0
C      1  0.3322332205767  0.5821368478339  0.4986463264400 1.0
C      1  0.3335263692216  0.5181505303651  0.4208527717943 1.0
C      1  0.6951853168064  0.4695781666052  0.4215758836171 1.0
C      1  0.6955492181010  0.4164999612107  0.5044433433792 1.0
C      1  0.6951811055485  0.4788219851134  0.5804515866956 1.0
C      1  0.6952961929414  0.5707588999100  0.5453562146014 1.0
C      1  0.6944404637254  0.5645828053584  0.4470929860731 1.0
C      1  0.5905797498944  0.6834957471856  0.6190934246886 1.0
C      1  0.5865704240354  0.6672437497559  0.3643879127332 1.0
C      1  0.5893653020091  0.4217261991729  0.2968088932298 1.0
C      1  0.5888905438644  0.2839175395621  0.5123087787657 1.0
C      1  0.5871020213039  0.4442370942985  0.7073350926716 1.0
C      1  0.4813863694750  0.4310737106717  0.4541436075122 1.0
C      1  0.4702722474206  0.4396991237633  0.5485565839427 1.0
C      1  0.4805672392930  0.5312378438003  0.5763303972371 1.0
C      1  0.4774513961005  0.5800409475450  0.4981838083413 1.0
C      1  0.4757366791320  0.5180511047705  0.4228037471626 1.0
C      1  0.6544606525454  0.6281599750521  0.3949200156101 1.0
C      1  0.6565470844540  0.4396459071034  0.3442239284348 1.0
C      1  0.6564334213791  0.3339735389056  0.5097324997774 1.0
C      1  0.6551879829246  0.4572892940188  0.6597806932429 1.0
C      1  0.6571907755790  0.6405675293189  0.5905929971522 1.0
END
