TITL C-13179-9057-46 -2.331 3375.00 -400.03514867 0 0 49 (D2) n - 1
REM
REM Run started: at 2020.12.29 13:02:19 in /gpfs/home/chem/mssmkc/CARBON/AIRSS/Generating-Clusters/Str-Search/Higher-Symm/C4-100
REM VASP from code version vasp.5.4.4.18Apr17-6-g9f103f2a35 (build Oct 11 2019 16:45:47) gamma-only
REM
REM
REM
REM
REM ./C.cell (6bd13a13d554368a30d355f37ece5b26)
REM AIRSS Version 0.9.1 bugfix July 2018 build 013d7b7c2542+ Fri, 06 Jul 2018 19:26:36 +0100
REM compiler GCC version 6.3.0
REM options -cpp -iprefix /gpfs/warwick/csc/orac/software/Core/GCCcore/6.3.0/bin/../lib/gcc/x86_64-pc-linux-gnu/6.3.0/ -mtune=generic -march=x86-64 -g -O0
REM seed 197489799 516543293 1363315105 -2025969846 1459515671 -339974566 1186174570 -120679505 -736503823 2021498733 1254904863 1520259827
REM
REM C.POTCAR (d86ddea03c3ceb6dc662c8ad6801f873)
REM 
CELL 1.54180   15.00000   15.00000   15.00000   90.00000   90.00000   90.00000
LATT -1
SFAC C  
C      1  0.4048785634747  0.3904420332702  0.3467570069494 1.0
C      1  0.4052190033597  0.6123858497860  0.6465232590968 1.0
C      1  0.5926828773415  0.6124830756795  0.3475052526649 1.0
C      1  0.5918904825010  0.3900131728827  0.6463686323908 1.0
C      1  0.7224874884047  0.5438608364733  0.5189926364554 1.0
C      1  0.7224961441424  0.4584507213695  0.4748570479057 1.0
C      1  0.2743598769830  0.4592152575973  0.5187617268235 1.0
C      1  0.2748308185115  0.5448496555546  0.4750315558688 1.0
C      1  0.3594408481149  0.6437081059216  0.4085673568867 1.0
C      1  0.3584313445525  0.3596384061053  0.5851624210551 1.0
C      1  0.6382221458412  0.3593514120697  0.4081019377494 1.0
C      1  0.6385762424114  0.6429981849963  0.5859203608761 1.0
C      1  0.6111020911809  0.4921738310376  0.6373746031614 1.0
C      1  0.6113914744270  0.5102221288051  0.3566889318364 1.0
C      1  0.3858071703176  0.5102709369082  0.6372947656740 1.0
C      1  0.3859754111265  0.4927667933804  0.3567043357392 1.0
C      1  0.3284105432784  0.3661998649946  0.4947269934947 1.0
C      1  0.3292557219377  0.6374070435945  0.4989701088155 1.0
C      1  0.6688648543221  0.6367403592973  0.4955215304902 1.0
C      1  0.6682178294774  0.3657837291423  0.4985882318852 1.0
C      1  0.3140371375615  0.4449988502511  0.6079331169665 1.0
C      1  0.3147052290907  0.5585571392006  0.3860032098125 1.0
C      1  0.6828312494644  0.5575492436853  0.6082957567343 1.0
C      1  0.6827454988202  0.4446730439854  0.3857581338589 1.0
C      1  0.4645418529913  0.5329021089824  0.3058969504502 1.0
C      1  0.4640860703132  0.4698619830249  0.6883934375655 1.0
C      1  0.5329351006934  0.4702283152595  0.3055815119321 1.0
C      1  0.5327260255487  0.5323079372621  0.6884878968030 1.0
C      1  0.4168164889719  0.5181728079122  0.5397912892119 1.0
C      1  0.4166533028824  0.4831747534197  0.4542477730848 1.0
C      1  0.5804711600583  0.4838604358201  0.5396848928848 1.0
C      1  0.5802872074637  0.5189483005920  0.4541616522841 1.0
C      1  0.6041667940642  0.3386062130504  0.5646381916491 1.0
C      1  0.6049969126103  0.6639957481146  0.4293287352820 1.0
C      1  0.3930966146682  0.6644162396662  0.5651584680078 1.0
C      1  0.3924705801926  0.3389700407642  0.4285384638093 1.0
C      1  0.5125745389948  0.3022491132662  0.5414023577098 1.0
C      1  0.5135513330121  0.7006791039911  0.4526170292988 1.0
C      1  0.4847708767630  0.7006571324076  0.5421651408768 1.0
C      1  0.4840234417003  0.3022597996553  0.4518281905132 1.0
C      1  0.4983109282519  0.3847847470930  0.6679700450803 1.0
C      1  0.4990828044554  0.6179574047526  0.3260726570140 1.0
C      1  0.4986774189012  0.6175544709304  0.6684917766749 1.0
C      1  0.4985303518890  0.3851041705680  0.3254613944383 1.0
C      1  0.5487281538113  0.3303003656180  0.3856364605454 1.0
C      1  0.5492003566943  0.6722169446071  0.6084084474092 1.0
C      1  0.4489388450563  0.6726495798955  0.3863494665354 1.0
C      1  0.4478758914222  0.3304082696362  0.6075873967079 1.0
C      1  0.4985606019470  0.5010639377223  0.4968098610397 1.0
END
