TITL C-13650-7649-68 -1.814 3375.00 -300.94072639 0 0 37 (C1) n - 1
REM
REM Run started: at 2021.01.04 21:16:40 in /gpfs/home/chem/mssmkc/CARBON/AIRSS/Generating-Clusters/Str-Search/Higher-Symm/C4-100
REM VASP from code version vasp.5.4.4.18Apr17-6-g9f103f2a35 (build Oct 11 2019 16:45:47) gamma-only
REM
REM
REM
REM
REM ./C.cell (6bd13a13d554368a30d355f37ece5b26)
REM AIRSS Version 0.9.1 bugfix July 2018 build 013d7b7c2542+ Fri, 06 Jul 2018 19:26:36 +0100
REM compiler GCC version 6.3.0
REM options -cpp -iprefix /gpfs/warwick/csc/orac/software/Core/GCCcore/6.3.0/bin/../lib/gcc/x86_64-pc-linux-gnu/6.3.0/ -mtune=generic -march=x86-64 -g -O0
REM seed -1694289939 -167250067 -712495752 752366938 -1879463189 -2109348631 461787714 155252951 1740647090 1614512121 -1839111207 -361750544
REM
REM C.POTCAR (d86ddea03c3ceb6dc662c8ad6801f873)
REM 
CELL 1.54180   15.00000   15.00000   15.00000   90.00000   90.00000   90.00000
LATT -1
SFAC C  
C      1  0.3829250270697  0.7250035871762  0.4507829525811 1.0
C      1  0.3845613588696  0.7232334617363  0.5481766794042 1.0
C      1  0.4231547778193  0.4115290906592  0.6289524165357 1.0
C      1  0.4292562249658  0.4078869058078  0.3824761333946 1.0
C      1  0.3429770574581  0.5503536991109  0.5934997158654 1.0
C      1  0.3435969928712  0.5493923658930  0.4068445921827 1.0
C      1  0.6434357302554  0.4711466743399  0.5936191364892 1.0
C      1  0.6503367736009  0.4749150699507  0.4083584508320 1.0
C      1  0.5128971220590  0.5338827084243  0.6493740310599 1.0
C      1  0.5142039696197  0.5308561065041  0.3570815718729 1.0
C      1  0.6318715418785  0.5605005514991  0.4546642333708 1.0
C      1  0.6298124858694  0.5600919411625  0.5489350843223 1.0
C      1  0.4191170373670  0.3453927923930  0.5528180211165 1.0
C      1  0.4217113944182  0.3442789791680  0.4594245045389 1.0
C      1  0.5126162009163  0.3797165440578  0.6505347477998 1.0
C      1  0.5186732296058  0.3758188169046  0.3644971053097 1.0
C      1  0.5132695847125  0.3110461808692  0.4355738395666 1.0
C      1  0.5091030420721  0.3141915337277  0.5813254435812 1.0
C      1  0.5684412726204  0.4572344875286  0.6533786682667 1.0
C      1  0.5733210774042  0.4542502115432  0.3570479535317 1.0
C      1  0.4586142742664  0.7332058116803  0.4026893310867 1.0
C      1  0.4573618940086  0.7369728726245  0.6003267406239 1.0
C      1  0.4223038381101  0.5042494917179  0.3713632891936 1.0
C      1  0.4184960173721  0.5071087981462  0.6349388976755 1.0
C      1  0.3355413900223  0.6369817380184  0.5477806396400 1.0
C      1  0.3362584448870  0.6356466543764  0.4520766272853 1.0
C      1  0.2798529190841  0.4953070042525  0.5476548441257 1.0
C      1  0.2936266710879  0.4951132242936  0.4646486692447 1.0
C      1  0.6624210492107  0.3169645455757  0.5102777189897 1.0
C      1  0.7191062277669  0.3132580242426  0.4305128670427 1.0
C      1  0.5631499817052  0.6066077590407  0.6051502037212 1.0
C      1  0.5641600690501  0.6057655489364  0.3974332131287 1.0
C      1  0.6858275126040  0.4049020673229  0.5478263432410 1.0
C      1  0.7029820117173  0.4069457336906  0.4514725499808 1.0
C      1  0.5299049846151  0.6887921639223  0.3958224868000 1.0
C      1  0.5268876801531  0.6889475246384  0.6029791833393 1.0
C      1  0.5678436328857  0.2926009290643  0.5105949132594 1.0
END
