TITL C-137591-6213-30 -3.041 3375.00 -460.88285970 0 0 60 (C4h) n - 1
REM
REM Run started: at 2020.12.17 11:29:01 in /rds/project/t2_vol4/rds-t2-cs072/BORA/CARBON/AIRSS/Generating-Clusters/Str-Search/Higher-Symm/Only-C60
REM VASP from code version vasp.5.4.4.18Apr17-6-g9f103f2a35 (build Oct 11 2019 16:45:47) gamma-only
REM
REM
REM
REM
REM ./C.cell (5f7b7a0d59291d2373303da1f58b8d66)
REM AIRSS Version 0.9.1 bugfix July 2018 build 013d7b7c2542+ Fri, 06 Jul 2018 19:26:36 +0100
REM compiler GCC version 4.8.5 20150623 (Red Hat 4.8.5-39)
REM options -cpp -mtune=generic -march=x86-64 -g -O0
REM seed 2014769770 2140648520 -1811034085 1610682864 -367126821 -1986606312 1011260534 -995361938 269606996 -1073618445 1262193261 -554087677
REM
REM C.POTCAR (d86ddea03c3ceb6dc662c8ad6801f873)
REM 
CELL 1.54180   15.00000   15.00000   15.00000   90.00000   90.00000   90.00000
LATT -1
SFAC C  
C      1  0.4195755577675  0.3901205941770  0.3502678167504 1.0
C      1  0.4195726104210  0.6497344247497  0.3901201787935 1.0
C      1  0.4195723189275  0.6098821185199  0.6497338214259 1.0
C      1  0.4195763431759  0.3502664684705  0.6098752093940 1.0
C      1  0.5807337672642  0.3898389815713  0.3500547335236 1.0
C      1  0.5807362180495  0.6499431576265  0.3898381131578 1.0
C      1  0.5807308935691  0.6101664227745  0.6499504077836 1.0
C      1  0.5807345421273  0.3500595370877  0.6101625607387 1.0
C      1  0.4066608156163  0.6546743928277  0.7278927679281 1.0
C      1  0.4066586155880  0.2721091146550  0.6546559766550 1.0
C      1  0.4066641697204  0.3453215729353  0.2721160457267 1.0
C      1  0.4066542008377  0.7278934961889  0.3453397457876 1.0
C      1  0.5934330345288  0.6551639400328  0.7281247768434 1.0
C      1  0.5934359279870  0.2718852245230  0.6551615897280 1.0
C      1  0.5934382490506  0.3448362210485  0.2718766642884 1.0
C      1  0.5934245254475  0.7281189466570  0.3448412391199 1.0
C      1  0.4993983283419  0.0541031040140  0.7425187942094 1.0
C      1  0.4994077003955  0.2574669799882  0.0541023930045 1.0
C      1  0.4993933345213  0.9458985485474  0.2574763268068 1.0
C      1  0.4993976964963  0.7425265815441  0.9459006467174 1.0
C      1  0.4997022582293  0.9689577862626  0.7531565004496 1.0
C      1  0.4997050445022  0.2468400049177  0.9689549679963 1.0
C      1  0.4997042639887  0.0310418637775  0.2468426104406 1.0
C      1  0.4997057662784  0.7531567951804  0.0310437332421 1.0
C      1  0.3086410754119  0.3457126149248  0.4179673066904 1.0
C      1  0.3086399549781  0.5820306971772  0.3456971843404 1.0
C      1  0.3086402064813  0.6542914763813  0.5820285645346 1.0
C      1  0.3086395652423  0.4179750127262  0.6542968426167 1.0
C      1  0.6915486702846  0.3446596831419  0.4176313594490 1.0
C      1  0.6915541476570  0.5823768605215  0.3446549156630 1.0
C      1  0.6915422417474  0.6553447930520  0.5823739466203 1.0
C      1  0.6915429908698  0.4176317508649  0.6553462840504 1.0
C      1  0.3947056498224  0.4399821050426  0.6475434528340 1.0
C      1  0.3947071857843  0.3524601838234  0.4399817089203 1.0
C      1  0.3947089382455  0.5600179033229  0.3524550943227 1.0
C      1  0.3947046913148  0.6475418471285  0.5600173035456 1.0
C      1  0.6057313789426  0.4398908582763  0.6479489643267 1.0
C      1  0.6057249368003  0.3520555566531  0.4398935511437 1.0
C      1  0.6057363582897  0.5601058292244  0.3520541055723 1.0
C      1  0.6057278311802  0.6479428480219  0.5601129898400 1.0
C      1  0.5460310750038  0.6508571430747  0.4844314549228 1.0
C      1  0.5460333774761  0.5155723900579  0.6508686498559 1.0
C      1  0.5460345500741  0.3491416328618  0.5155675070345 1.0
C      1  0.5460357111369  0.4844319531753  0.3491305153355 1.0
C      1  0.4546203117450  0.6506408317523  0.4845503779686 1.0
C      1  0.4546237424609  0.5154509738293  0.6506477357489 1.0
C      1  0.4546207138927  0.3493549449569  0.5154456338167 1.0
C      1  0.4546218620635  0.4845521973773  0.3493474679144 1.0
C      1  0.4294994741145  0.3100062106733  0.1995138648927 1.0
C      1  0.4294949428806  0.8004989798856  0.3100243278684 1.0
C      1  0.4294982823955  0.6899825943222  0.8004957129286 1.0
C      1  0.4295001661025  0.1994992789731  0.6899635509799 1.0
C      1  0.5698540664421  0.3099725462848  0.1993137041694 1.0
C      1  0.5698501566253  0.8007036789916  0.3099916548449 1.0
C      1  0.5698504524201  0.6900204971082  0.8007013461415 1.0
C      1  0.5698532742246  0.1992977323093  0.6900014218587 1.0
C      1  0.4995988956581  0.1396643855216  0.7138577866732 1.0
C      1  0.4996005153170  0.2861119610844  0.1396691841196 1.0
C      1  0.4995933201660  0.8603350338477  0.2861314182098 1.0
C      1  0.4995987039167  0.7138787355527  0.8603354897343 1.0
END
