TITL C-13650-7649-62 -0.259 3375.00 -35.57182029 0 0 5 (D(inf)h) n - 1
REM
REM Run started: at 2021.01.04 19:22:22 in /gpfs/home/chem/mssmkc/CARBON/AIRSS/Generating-Clusters/Str-Search/Higher-Symm/C4-100
REM VASP from code version vasp.5.4.4.18Apr17-6-g9f103f2a35 (build Oct 11 2019 16:45:47) gamma-only
REM
REM
REM
REM
REM ./C.cell (6bd13a13d554368a30d355f37ece5b26)
REM AIRSS Version 0.9.1 bugfix July 2018 build 013d7b7c2542+ Fri, 06 Jul 2018 19:26:36 +0100
REM compiler GCC version 6.3.0
REM options -cpp -iprefix /gpfs/warwick/csc/orac/software/Core/GCCcore/6.3.0/bin/../lib/gcc/x86_64-pc-linux-gnu/6.3.0/ -mtune=generic -march=x86-64 -g -O0
REM seed 965337941 33427966 -1638558184 -1450440107 488362493 -1278664910 -1329793355 -510919914 1445609369 900149763 -368349852 -2145809217
REM
REM C.POTCAR (d86ddea03c3ceb6dc662c8ad6801f873)
REM 
CELL 1.54180   15.00000   15.00000   15.00000   90.00000   90.00000   90.00000
LATT -1
SFAC C  
C      1  0.5951318973545  0.5419359617334  0.3618280581415 1.0
C      1  0.4520673435086  0.4805616927478  0.5688189503047 1.0
C      1  0.5475149964618  0.5200056709984  0.4310969593185 1.0
C      1  0.4054838505771  0.4572667058883  0.6382831101396 1.0
C      1  0.4998019120980  0.5002299686322  0.4999729220956 1.0
END
