TITL C-13179-9057-140 -1.354 3375.00 -212.67223823 0 0 27 (C1) n - 1
REM
REM Run started: at 2020.12.30 06:50:14 in /gpfs/home/chem/mssmkc/CARBON/AIRSS/Generating-Clusters/Str-Search/Higher-Symm/C4-100
REM VASP from code version vasp.5.4.4.18Apr17-6-g9f103f2a35 (build Oct 11 2019 16:45:47) gamma-only
REM
REM
REM
REM
REM ./C.cell (6bd13a13d554368a30d355f37ece5b26)
REM AIRSS Version 0.9.1 bugfix July 2018 build 013d7b7c2542+ Fri, 06 Jul 2018 19:26:36 +0100
REM compiler GCC version 6.3.0
REM options -cpp -iprefix /gpfs/warwick/csc/orac/software/Core/GCCcore/6.3.0/bin/../lib/gcc/x86_64-pc-linux-gnu/6.3.0/ -mtune=generic -march=x86-64 -g -O0
REM seed -1436495902 -16104416 -1170539011 -1607988207 1195231604 1140020965 1582488095 368354510 -915129051 -1111318582 1634114623 1106342340
REM
REM C.POTCAR (d86ddea03c3ceb6dc662c8ad6801f873)
REM 
CELL 1.54180   15.00000   15.00000   15.00000   90.00000   90.00000   90.00000
LATT -1
SFAC C  
C      1  0.3924956601351  0.4358258543827  0.3430150458264 1.0
C      1  0.3929923173334  0.5958982199919  0.4163477674466 1.0
C      1  0.3570084653603  0.5993049605858  0.5916212645543 1.0
C      1  0.3955105135361  0.4578565815056  0.6693370484907 1.0
C      1  0.3729204015429  0.3847024247257  0.5114063311561 1.0
C      1  0.5359443617613  0.6005385362091  0.5881363394399 1.0
C      1  0.5520258587341  0.4312188949394  0.6256720518133 1.0
C      1  0.5390111635313  0.3588689447030  0.4569640666385 1.0
C      1  0.5523287400703  0.4740765171082  0.3227793607631 1.0
C      1  0.5667836156993  0.6186932769589  0.4268744418811 1.0
C      1  0.6021074305528  0.6069018027958  0.5147363957223 1.0
C      1  0.5428730300339  0.5235779516204  0.6433999130924 1.0
C      1  0.5428743545635  0.3743597192835  0.5542175104837 1.0
C      1  0.5449216428489  0.3937661350355  0.3713774339150 1.0
C      1  0.5542333880124  0.5628650316171  0.3488229928620 1.0
C      1  0.3829500738038  0.6247156768963  0.5055954277027 1.0
C      1  0.3333746288123  0.5138298214222  0.6285327054501 1.0
C      1  0.3495813852977  0.4276119674447  0.5916766569366 1.0
C      1  0.3513486327408  0.4249090513376  0.4267413409103 1.0
C      1  0.3576353773227  0.5113904508210  0.3887333363662 1.0
C      1  0.4625967496145  0.3493718901298  0.5107745724509 1.0
C      1  0.4763451710456  0.4137611045066  0.3055083468906 1.0
C      1  0.4823816619008  0.6100059856031  0.3871332931229 1.0
C      1  0.4462122269727  0.6276078959464  0.5768070476295 1.0
C      1  0.4868741135777  0.4621074369391  0.6924489544300 1.0
C      1  0.7668671719271  0.5459711987541  0.5358225344549 1.0
C      1  0.6885172632684  0.5790222687366  0.5269026195700 1.0
END
