TITL C-13179-9057-193 -3.288 3375.00 -587.24060990 0 0 74 (C1) n - 1
REM
REM Run started: at 2020.12.30 18:01:56 in /gpfs/home/chem/mssmkc/CARBON/AIRSS/Generating-Clusters/Str-Search/Higher-Symm/C4-100
REM VASP from code version vasp.5.4.4.18Apr17-6-g9f103f2a35 (build Oct 11 2019 16:45:47) gamma-only
REM
REM
REM
REM
REM ./C.cell (6bd13a13d554368a30d355f37ece5b26)
REM AIRSS Version 0.9.1 bugfix July 2018 build 013d7b7c2542+ Fri, 06 Jul 2018 19:26:36 +0100
REM compiler GCC version 6.3.0
REM options -cpp -iprefix /gpfs/warwick/csc/orac/software/Core/GCCcore/6.3.0/bin/../lib/gcc/x86_64-pc-linux-gnu/6.3.0/ -mtune=generic -march=x86-64 -g -O0
REM seed -1773157105 -1896439711 -801678050 1753941715 298826441 -1748780036 989796095 1524261072 -628060034 1285117629 1229165921 -205987776
REM
REM C.POTCAR (d86ddea03c3ceb6dc662c8ad6801f873)
REM 
CELL 1.54180   15.00000   15.00000   15.00000   90.00000   90.00000   90.00000
LATT -1
SFAC C  
C      1  0.6151760875822  0.4188564369781  0.3290101607596 1.0
C      1  0.3721865050558  0.4079259566172  0.3391984792668 1.0
C      1  0.3134095907273  0.4200030578606  0.5781474891685 1.0
C      1  0.5111924713965  0.4186240779018  0.7122776907184 1.0
C      1  0.6987192952275  0.4098582330285  0.5519025028386 1.0
C      1  0.6190027565213  0.5753062398680  0.6751999551454 1.0
C      1  0.3767818444344  0.5978644445292  0.6549274586628 1.0
C      1  0.3084307805279  0.5784277062554  0.4197902622476 1.0
C      1  0.5086381300383  0.5783409004875  0.2948706645238 1.0
C      1  0.6992143880290  0.5935988293045  0.4544687003332 1.0
C      1  0.6389645387398  0.7228739301229  0.6051063147796 1.0
C      1  0.5939283003751  0.7367024279577  0.4336355450574 1.0
C      1  0.4429711073360  0.7225299470313  0.3375944001246 1.0
C      1  0.3614854386077  0.7320264599626  0.4960207352441 1.0
C      1  0.4638205055128  0.7415065664252  0.6351842492087 1.0
C      1  0.6409183877528  0.2752256726598  0.3958020466499 1.0
C      1  0.5962333602280  0.2637302114157  0.5686632524010 1.0
C      1  0.4438793441163  0.2806798053178  0.6610159099798 1.0
C      1  0.3595739773630  0.2657207386946  0.5052417935597 1.0
C      1  0.4626376871125  0.2607386240316  0.3674349483971 1.0
C      1  0.6038534022056  0.7626499765462  0.5260669756359 1.0
C      1  0.5074936172768  0.7607260015577  0.3967981857514 1.0
C      1  0.4180992409183  0.7592257472732  0.4221851221868 1.0
C      1  0.3869683072903  0.7455785486218  0.5842476370081 1.0
C      1  0.5526005669258  0.7645268317736  0.6037956953776 1.0
C      1  0.6042577951716  0.2392651700859  0.4755464593557 1.0
C      1  0.5087347430560  0.2428834770585  0.6032678522666 1.0
C      1  0.4182218843136  0.2415233760412  0.5790489067961 1.0
C      1  0.3868337216313  0.2516562241912  0.4186994035197 1.0
C      1  0.5528992997010  0.2370306139466  0.3975418900776 1.0
C      1  0.5157746870102  0.4123053979120  0.2991844963540 1.0
C      1  0.3082497426908  0.4120265304016  0.4302399678518 1.0
C      1  0.3666492957881  0.4239573199065  0.6668179184164 1.0
C      1  0.6067103940117  0.4099387008918  0.6698238654876 1.0
C      1  0.7048027226569  0.4180462251679  0.4466689926789 1.0
C      1  0.5208397354647  0.5910173950233  0.7083053671380 1.0
C      1  0.3143236913845  0.5872719091283  0.5680104632388 1.0
C      1  0.3697668930627  0.5736379050000  0.3338733690846 1.0
C      1  0.6059431306032  0.5933260050493  0.3288926301895 1.0
C      1  0.7002710762153  0.5775468481949  0.5571021999657 1.0
C      1  0.3761888022462  0.5513923023896  0.4943757654211 1.0
C      1  0.4682369659723  0.5658017434508  0.6223369337464 1.0
C      1  0.6041380450771  0.5493644433520  0.5748559252984 1.0
C      1  0.6240520220783  0.5392610993844  0.4131964264080 1.0
C      1  0.4607526644989  0.5482820987871  0.3789859212440 1.0
C      1  0.3774804469405  0.4455200586946  0.5019216594739 1.0
C      1  0.4586107654150  0.4431019912490  0.3809415505868 1.0
C      1  0.6082590812066  0.4421084987047  0.4276376296734 1.0
C      1  0.5994772809326  0.4443976602723  0.5730198965508 1.0
C      1  0.4538919531617  0.4705894551895  0.6490650365220 1.0
C      1  0.7319776420835  0.4883928184410  0.6085738281554 1.0
C      1  0.6689359124005  0.5134465402194  0.3170111900148 1.0
C      1  0.3794311847655  0.4888707847038  0.2746410200823 1.0
C      1  0.2539774135069  0.5022372578546  0.5497778435536 1.0
C      1  0.4756960345222  0.5074517953545  0.7521582960222 1.0
C      1  0.7304623478140  0.5139767389733  0.3983871260803 1.0
C      1  0.6744000900758  0.4875401004589  0.6873456224117 1.0
C      1  0.3775983046623  0.5118645482392  0.7188661629755 1.0
C      1  0.2516247591165  0.4970020783721  0.4529125536064 1.0
C      1  0.4726217189151  0.4909665399597  0.2472902960935 1.0
C      1  0.6786021291953  0.6459463750733  0.6303744641889 1.0
C      1  0.6459863660360  0.6661595767793  0.3960532420222 1.0
C      1  0.4308664409624  0.6461648965365  0.2919644425981 1.0
C      1  0.3026483285413  0.6553254423135  0.4885889462789 1.0
C      1  0.4515297966363  0.6682587606439  0.6985307071258 1.0
C      1  0.6845059668508  0.3503601600722  0.3683482478512 1.0
C      1  0.6490071640556  0.3358001749343  0.6075598628028 1.0
C      1  0.4297791680581  0.3539147423316  0.7115848264865 1.0
C      1  0.3001397867567  0.3424364791306  0.5103973567911 1.0
C      1  0.4475976600824  0.3365044000110  0.3096089942742 1.0
C      1  0.4636747140144  0.4134424176869  0.4734480879305 1.0
C      1  0.4656242543134  0.5814465321364  0.4702017045724 1.0
C      1  0.5187079642345  0.5845516547429  0.5421420289103 1.0
C      1  0.5473993808086  0.4156698633351  0.4984221467994 1.0
END
