TITL C-13531-8579-8 -5.303 3375.00 -860.86923411 0 0 105 (C1) n - 1
REM
REM Run started: at 2021.01.04 09:32:36 in /gpfs/home/chem/mssmkc/CARBON/AIRSS/Generating-Clusters/Str-Search/Higher-Symm/C100-200
REM VASP from code version vasp.5.4.4.18Apr17-6-g9f103f2a35 (build Oct 11 2019 16:45:47) gamma-only
REM
REM
REM
REM
REM ./C.cell (533062f00bc710175b3da973d35f2034)
REM AIRSS Version 0.9.1 bugfix July 2018 build 013d7b7c2542+ Fri, 06 Jul 2018 19:26:36 +0100
REM compiler GCC version 6.3.0
REM options -cpp -iprefix /gpfs/warwick/csc/orac/software/Core/GCCcore/6.3.0/bin/../lib/gcc/x86_64-pc-linux-gnu/6.3.0/ -mtune=generic -march=x86-64 -g -O0
REM seed -1810681115 -785715219 -1707034776 988037546 -1747455723 1882011468 510131322 1808834742 -1487971086 -855452513 583916326 1964162885
REM
REM C.POTCAR (d86ddea03c3ceb6dc662c8ad6801f873)
REM 
CELL 1.54180   15.00000   15.00000   15.00000   90.00000   90.00000   90.00000
LATT -1
SFAC C  
C      1  0.4815932522988  0.3765040032251  0.4966591905180 1.0
C      1  0.4058663355868  0.4262790627196  0.4966910994213 1.0
C      1  0.3500960965769  0.4964126714333  0.4815900222632 1.0
C      1  0.3625124663527  0.5817651675301  0.4860816391432 1.0
C      1  0.4261792671922  0.6409974710144  0.4961918977251 1.0
C      1  0.5105238857049  0.6559616959822  0.5045668868703 1.0
C      1  0.5841105830673  0.5990719344870  0.5022075713784 1.0
C      1  0.6650669956305  0.5637231178335  0.5346278573099 1.0
C      1  0.6708644545780  0.4719049556126  0.5128135050831 1.0
C      1  0.6325800377717  0.3988311617801  0.4958641457348 1.0
C      1  0.5643532686349  0.3403202654901  0.4852996268826 1.0
C      1  0.2428222535506  0.4579067137859  0.6602734061281 1.0
C      1  0.2600021749306  0.6069627439964  0.6644861542430 1.0
C      1  0.3566260940445  0.7211586956413  0.6611028827066 1.0
C      1  0.4989958573230  0.7672557949155  0.6593832595106 1.0
C      1  0.6426341789564  0.7243443731703  0.6493063016632 1.0
C      1  0.7215247859654  0.6004192361929  0.6123513208981 1.0
C      1  0.7711095613795  0.4651698663691  0.6591346982236 1.0
C      1  0.7128480434816  0.3250548239353  0.6637830591283 1.0
C      1  0.5868841451659  0.2416536940176  0.6607877193131 1.0
C      1  0.4371499323621  0.2452280341831  0.6508897183927 1.0
C      1  0.3103764601396  0.3248383465016  0.6504597708567 1.0
C      1  0.1318965760019  0.5427851437451  0.4804724657859 1.0
C      1  0.2313250932001  0.7053051712855  0.4612421239029 1.0
C      1  0.3895793553654  0.8437036611291  0.4697480572117 1.0
C      1  0.5929344975778  0.8384625537031  0.4572474037369 1.0
C      1  0.7484602538723  0.7465574252957  0.4438274687642 1.0
C      1  0.8448936207142  0.5605031933864  0.4541694145495 1.0
C      1  0.8297290991240  0.3540840715380  0.4685133511788 1.0
C      1  0.7069316982100  0.2034668188756  0.4664889933693 1.0
C      1  0.5046600107044  0.1472199410830  0.4611779924841 1.0
C      1  0.3045211501200  0.2224583686602  0.4510940547239 1.0
C      1  0.1937569425622  0.3616258220379  0.4535585030770 1.0
C      1  0.6559156015742  0.5706722056745  0.6859330443266 1.0
C      1  0.6805692515901  0.4751873035735  0.6976915839061 1.0
C      1  0.6429591602246  0.3829451771281  0.7018310262250 1.0
C      1  0.5597689873709  0.3285124427519  0.7002875481571 1.0
C      1  0.4607268675601  0.3292906995983  0.6966924621677 1.0
C      1  0.3758017134163  0.3826064968285  0.6969632772552 1.0
C      1  0.3319628701012  0.4713939027922  0.7011982524976 1.0
C      1  0.3438349902201  0.5703420815897  0.7024729721695 1.0
C      1  0.4075135025919  0.6464018411992  0.7014405996271 1.0
C      1  0.5017298662933  0.6764845424491  0.7005195310473 1.0
C      1  0.5959932470626  0.6483338118700  0.6950514848907 1.0
C      1  0.5902965951650  0.8380524865754  0.5400206975346 1.0
C      1  0.7515427209998  0.7398387003809  0.5261988457153 1.0
C      1  0.8576024820072  0.5434694944228  0.5383832205296 1.0
C      1  0.8299276205223  0.3536408285243  0.5524643992021 1.0
C      1  0.7049326126401  0.2031856804618  0.5502568348175 1.0
C      1  0.5139414508794  0.1464063727131  0.5457289817040 1.0
C      1  0.3217137205034  0.2137775030211  0.5313010943922 1.0
C      1  0.1955705381676  0.3580888326159  0.5363226175465 1.0
C      1  0.1445257684200  0.5484513177456  0.5627945527347 1.0
C      1  0.2356540194604  0.7170605467601  0.5445465686544 1.0
C      1  0.3890665478518  0.8396627483493  0.5546523482032 1.0
C      1  0.6621455973931  0.5328141045666  0.2862845689157 1.0
C      1  0.6560975558408  0.4374364986092  0.2904719024078 1.0
C      1  0.5917626791770  0.3550176892679  0.2887846966767 1.0
C      1  0.5014039515687  0.3274432672344  0.2831710358491 1.0
C      1  0.4060606742108  0.3583686744521  0.2750878342072 1.0
C      1  0.3509109024211  0.4351924033257  0.2739357618009 1.0
C      1  0.3957866314416  0.5203248703498  0.2686511536366 1.0
C      1  0.3638717323925  0.6114948760141  0.2828156634413 1.0
C      1  0.4322680279985  0.6782181107281  0.2858755689527 1.0
C      1  0.5332663199832  0.6744615671423  0.2781563075659 1.0
C      1  0.6130315538839  0.6232211626568  0.2776164486536 1.0
C      1  0.4667489680977  0.2424950361914  0.3246160105250 1.0
C      1  0.3754909530925  0.2779684393806  0.3171055179089 1.0
C      1  0.2641889132547  0.4331173772621  0.3197719266840 1.0
C      1  0.2281462763928  0.5210701100856  0.3351460480176 1.0
C      1  0.2753944214286  0.6073211960628  0.3199115431670 1.0
C      1  0.4395400864951  0.7660603022361  0.3298089002681 1.0
C      1  0.5379276032772  0.7620445866404  0.3218850650275 1.0
C      1  0.6914736158796  0.6671804534078  0.3145798387270 1.0
C      1  0.7399797311774  0.5825905730006  0.3225684296366 1.0
C      1  0.7255634804255  0.3765313410863  0.3254541607862 1.0
C      1  0.6663725652158  0.3010634950189  0.3244132791519 1.0
C      1  0.2425028955039  0.3550984790642  0.3736398855307 1.0
C      1  0.1710839355707  0.5633036789956  0.4006477908499 1.0
C      1  0.2207027562893  0.6502925795812  0.3887504987686 1.0
C      1  0.3900813915371  0.8147690816578  0.3877650617828 1.0
C      1  0.6079962932715  0.7942880148507  0.3749987197949 1.0
C      1  0.6924900172102  0.7439937869732  0.3682828456505 1.0
C      1  0.8108876096251  0.5632253131885  0.3756829867015 1.0
C      1  0.7816645407782  0.3346508728855  0.3931152420639 1.0
C      1  0.7185971595821  0.2533813808056  0.3907500908422 1.0
C      1  0.4997840793059  0.1818759574092  0.3820916157534 1.0
C      1  0.3004619864124  0.2752969203331  0.3728171069590 1.0
C      1  0.5809215935678  0.7935296149064  0.6224694156935 1.0
C      1  0.7193620809249  0.6995624666597  0.6037786534207 1.0
C      1  0.8025960488920  0.5402296222614  0.6115526559827 1.0
C      1  0.7882626402831  0.3736155501868  0.6328617869766 1.0
C      1  0.6759556974888  0.2431169767029  0.6290274190222 1.0
C      1  0.5127891797564  0.1938284731420  0.6247018982514 1.0
C      1  0.3498328915400  0.2474419870659  0.6141720972351 1.0
C      1  0.2341652443600  0.3728962997845  0.6202873205238 1.0
C      1  0.2004527226199  0.5388837656880  0.6358504923962 1.0
C      1  0.2715582579320  0.6933048575790  0.6271792494089 1.0
C      1  0.4105246185181  0.7921497001881  0.6311254796792 1.0
C      1  0.5072517016101  0.4996276711299  0.7081752305517 1.0
C      1  0.4917946928924  0.4723686582390  0.5351905794844 1.0
C      1  0.5000263592697  0.4906326191159  0.6247516763468 1.0
C      1  0.5200055171887  0.5103022748629  0.3792742728900 1.0
C      1  0.5360899563614  0.5226916184274  0.4672621734150 1.0
C      1  0.4764781278915  0.5107506260141  0.3094028865350 1.0
END
