TITL C-13179-9057-194 -2.211 3375.00 -360.07297103 0 0 45 (C1) n - 1
REM
REM Run started: at 2020.12.30 18:08:29 in /gpfs/home/chem/mssmkc/CARBON/AIRSS/Generating-Clusters/Str-Search/Higher-Symm/C4-100
REM VASP from code version vasp.5.4.4.18Apr17-6-g9f103f2a35 (build Oct 11 2019 16:45:47) gamma-only
REM
REM
REM
REM
REM ./C.cell (6bd13a13d554368a30d355f37ece5b26)
REM AIRSS Version 0.9.1 bugfix July 2018 build 013d7b7c2542+ Fri, 06 Jul 2018 19:26:36 +0100
REM compiler GCC version 6.3.0
REM options -cpp -iprefix /gpfs/warwick/csc/orac/software/Core/GCCcore/6.3.0/bin/../lib/gcc/x86_64-pc-linux-gnu/6.3.0/ -mtune=generic -march=x86-64 -g -O0
REM seed 1845430791 -602778326 -1399684281 765568846 -1542585486 -939993539 -419996552 504469553 1495061240 -855341333 -381878909 1581070667
REM
REM C.POTCAR (d86ddea03c3ceb6dc662c8ad6801f873)
REM 
CELL 1.54180   15.00000   15.00000   15.00000   90.00000   90.00000   90.00000
LATT -1
SFAC C  
C      1  0.5268171106887  0.4625918145535  0.4454559417025 1.0
C      1  0.5600854288949  0.6800232208700  0.5588700879555 1.0
C      1  0.4426989406907  0.6331698356894  0.6529639585215 1.0
C      1  0.2960259345865  0.6005915287733  0.6003308919392 1.0
C      1  0.5765026862756  0.5200094718360  0.3003360208361 1.0
C      1  0.6523893995679  0.4324890942678  0.6121277017015 1.0
C      1  0.6936515312963  0.6171205086532  0.4488548792632 1.0
C      1  0.7109650281188  0.5695457614874  0.5144094531767 1.0
C      1  0.3841183922224  0.6220966701142  0.3990881550389 1.0
C      1  0.4958810312472  0.5497175169097  0.4810103157068 1.0
C      1  0.3626066244051  0.4147652870662  0.6395002366732 1.0
C      1  0.5649731994893  0.5129996373601  0.5208847877181 1.0
C      1  0.2799556219032  0.5887319551684  0.5200492586241 1.0
C      1  0.6207895025834  0.3541123842063  0.3718335144203 1.0
C      1  0.3585412538926  0.4932351888868  0.6928006513408 1.0
C      1  0.4583054795632  0.6441988911260  0.4694169123055 1.0
C      1  0.6433533435626  0.5336762425038  0.5794804264946 1.0
C      1  0.4625198862550  0.3548895083222  0.2801078437319 1.0
C      1  0.5896335797690  0.6104965368968  0.3222878664931 1.0
C      1  0.5561611027222  0.6829135077913  0.4617661582512 1.0
C      1  0.6807506406592  0.3707414768508  0.5436056286103 1.0
C      1  0.5362402410392  0.5222337153735  0.7272461398224 1.0
C      1  0.4689790356929  0.3735049890466  0.4429933572837 1.0
C      1  0.5312456201973  0.6031318199992  0.6886346472566 1.0
C      1  0.3309651922818  0.4744809453116  0.4045552208245 1.0
C      1  0.5757272007577  0.3882545415074  0.6515755048225 1.0
C      1  0.4635618834010  0.6751864626884  0.5708485146789 1.0
C      1  0.6222661450274  0.6552861607759  0.4001290924705 1.0
C      1  0.4655438087024  0.3366365557911  0.5378086930704 1.0
C      1  0.6212908105040  0.2972730017937  0.5374401577894 1.0
C      1  0.3710345886684  0.4081547375770  0.4581548479494 1.0
C      1  0.5047459613320  0.5802297057095  0.2905797538895 1.0
C      1  0.3152355749562  0.5661593252738  0.4388870631580 1.0
C      1  0.3589100061339  0.5850732761867  0.6662632025609 1.0
C      1  0.5184145545427  0.4341639741936  0.7145291735371 1.0
C      1  0.3822749582868  0.3833465161999  0.5525549579415 1.0
C      1  0.4051893922644  0.4149637893540  0.2687191005154 1.0
C      1  0.6515897522715  0.3357504518918  0.4572308876518 1.0
C      1  0.4230066683371  0.4269103723064  0.7119895062328 1.0
C      1  0.4151553153944  0.5753670232027  0.3200714732466 1.0
C      1  0.5221937377093  0.3488555591248  0.3558174268444 1.0
C      1  0.5433257976920  0.3163481736197  0.5892143613846 1.0
C      1  0.3749252446501  0.4875251090868  0.3173051024611 1.0
C      1  0.6019671694119  0.6212777788291  0.6235758010735 1.0
C      1  0.5794854223517  0.4417702758233  0.3586954230297 1.0
END
