TITL C-135484-4204-28 -2.806 3375.00 -441.00800467 0 0 60 (Th) n - 1
REM
REM Run started: at 2020.11.27 14:04:03 in /rds/project/t2_vol4/rds-t2-cs072/BORA/CARBON/AIRSS/Generating-Clusters/Str-Search/Higher-Symm/C10-100
REM VASP from code version vasp.5.4.4.18Apr17-6-g9f103f2a35 (build Oct 11 2019 16:45:47) gamma-only
REM
REM
REM
REM
REM ./C.cell (f39ce9773e2efe3fa5bbdf770a4156b8)
REM AIRSS Version 0.9.1 bugfix July 2018 build 013d7b7c2542+ Fri, 06 Jul 2018 19:26:36 +0100
REM compiler GCC version 4.8.5 20150623 (Red Hat 4.8.5-39)
REM options -cpp -mtune=generic -march=x86-64 -g -O0
REM seed -1095814947 812990215 -834029641 -384735302 812674915 1607166231 1807013204 406105621 -975778130 -1991183967 492634916 892249769
REM
REM C.POTCAR (d86ddea03c3ceb6dc662c8ad6801f873)
REM 
CELL 1.54180   15.00000   15.00000   15.00000   90.00000   90.00000   90.00000
LATT -1
SFAC C  
C      1  0.7163483613450  0.5748352460908  0.4532021764703 1.0
C      1  0.4532227105300  0.7163508492309  0.5748382611159 1.0
C      1  0.5748386021236  0.4532214149780  0.7163600039786 1.0
C      1  0.7163470150646  0.4251622639063  0.5467964687295 1.0
C      1  0.2836431832957  0.4251515566232  0.4532505774562 1.0
C      1  0.2836408244185  0.5748468143178  0.5467508476378 1.0
C      1  0.4532300696882  0.2836468165364  0.4251606995316 1.0
C      1  0.5467687288490  0.2836431546949  0.5748462357275 1.0
C      1  0.5467747185478  0.7163521334416  0.4251537605800 1.0
C      1  0.5748444040318  0.5467736108837  0.2836370775118 1.0
C      1  0.4251551571468  0.5467718961476  0.7163461171759 1.0
C      1  0.4251587873378  0.4532310861482  0.2836559520699 1.0
C      1  0.2836538601928  0.5748355838584  0.4532037555292 1.0
C      1  0.5467709388747  0.7163530520016  0.5748386778600 1.0
C      1  0.4251550105912  0.4532273487145  0.7163618071906 1.0
C      1  0.2836500379307  0.4251622617269  0.5467960698960 1.0
C      1  0.7163597140253  0.4251517034852  0.4532508439251 1.0
C      1  0.7163570065451  0.5748472958695  0.5467491369454 1.0
C      1  0.5467779416256  0.2836490652096  0.4251614893918 1.0
C      1  0.4532244330011  0.2836484925393  0.5748456346436 1.0
C      1  0.4532307835501  0.7163566730315  0.4251534991419 1.0
C      1  0.4251608909686  0.5467786039983  0.2836392469116 1.0
C      1  0.5748411785894  0.5467691339563  0.7163446387347 1.0
C      1  0.5748448926651  0.4532288391838  0.2836552430397 1.0
C      1  0.7075667549110  0.3212398288840  0.4544242305412 1.0
C      1  0.4544272312463  0.7075537297087  0.3212372816486 1.0
C      1  0.3212480271061  0.4544044558063  0.7075957384454 1.0
C      1  0.7075508941051  0.6787637873336  0.5455663095483 1.0
C      1  0.2924874723364  0.6787683540311  0.4544485543379 1.0
C      1  0.2924666461095  0.3212365035365  0.5455638796520 1.0
C      1  0.4544456515506  0.2924772802191  0.6787706430933 1.0
C      1  0.5455604361037  0.2924647601556  0.3212366265259 1.0
C      1  0.5455672187886  0.7075465315200  0.6787603133108 1.0
C      1  0.3212527114775  0.5456005323591  0.2923974230455 1.0
C      1  0.6787784082368  0.5455294824496  0.7074825848212 1.0
C      1  0.6787818830880  0.4544737478721  0.2925242576810 1.0
C      1  0.2924533225313  0.3212346812067  0.4544360875832 1.0
C      1  0.5455554801696  0.7075248116146  0.3212296116080 1.0
C      1  0.6787480471885  0.4544022028838  0.7075980354334 1.0
C      1  0.2924328739867  0.6787595542033  0.5455761457877 1.0
C      1  0.7075290225729  0.6787640292729  0.4544386662345 1.0
C      1  0.7075129227108  0.3212312277751  0.5455519577485 1.0
C      1  0.5455739212025  0.2924441115271  0.6787620116888 1.0
C      1  0.4544332962266  0.2924539892578  0.3212393838795 1.0
C      1  0.4544401027269  0.7075345916595  0.6787634175528 1.0
C      1  0.6787493254147  0.5456014847291  0.2923949236788 1.0
C      1  0.3212204910570  0.5455322248328  0.7074850677803 1.0
C      1  0.3212206501342  0.4544732051314  0.2925219170238 1.0
C      1  0.3950068802471  0.2909200570540  0.5000046576192 1.0
C      1  0.4999956708118  0.6049947781032  0.7090853573354 1.0
C      1  0.5000104519347  0.6049913262866  0.2909275217943 1.0
C      1  0.4999878225990  0.3950086551719  0.7090733324061 1.0
C      1  0.7090786820631  0.4999555902477  0.3950074168926 1.0
C      1  0.7090799969152  0.5000397008302  0.6049934638607 1.0
C      1  0.3950070444142  0.7090788522296  0.4999826017707 1.0
C      1  0.6049931766196  0.7090798407486  0.4999924237727 1.0
C      1  0.6049928785443  0.2909213708947  0.5000169510802 1.0
C      1  0.5000040329569  0.3950052698575  0.2909138438386 1.0
C      1  0.2909197209162  0.4999568149897  0.3950065547905 1.0
C      1  0.2909216000579  0.5000377390421  0.6049925849937 1.0
END
