TITL C-13531-8579-17 -7.908 3375.00 -1339.34252938 0 0 168 (Th) n - 1
REM
REM Run started: at 2021.01.04 17:17:50 in /gpfs/home/chem/mssmkc/CARBON/AIRSS/Generating-Clusters/Str-Search/Higher-Symm/C100-200
REM VASP from code version vasp.5.4.4.18Apr17-6-g9f103f2a35 (build Oct 11 2019 16:45:47) gamma-only
REM
REM
REM
REM
REM ./C.cell (533062f00bc710175b3da973d35f2034)
REM AIRSS Version 0.9.1 bugfix July 2018 build 013d7b7c2542+ Fri, 06 Jul 2018 19:26:36 +0100
REM compiler GCC version 6.3.0
REM options -cpp -iprefix /gpfs/warwick/csc/orac/software/Core/GCCcore/6.3.0/bin/../lib/gcc/x86_64-pc-linux-gnu/6.3.0/ -mtune=generic -march=x86-64 -g -O0
REM seed -916466590 1637996689 -1320025973 1270010015 1694006366 -771126925 -1433049898 -559382599 -577506972 1396274192 319227448 -1187717142
REM
REM C.POTCAR (d86ddea03c3ceb6dc662c8ad6801f873)
REM 
CELL 1.54180   15.00000   15.00000   15.00000   90.00000   90.00000   90.00000
LATT -1
SFAC C  
C      1  0.6054911452848  0.3856831301928  0.1782160642311 1.0
C      1  0.1782135638547  0.6054915898377  0.3856818964658 1.0
C      1  0.3856822693214  0.1782152701201  0.6054914167270 1.0
C      1  0.3945083542250  0.6143171855095  0.1782163265717 1.0
C      1  0.3945088277526  0.3856831109409  0.8217835739516 1.0
C      1  0.6054915458173  0.6143169384129  0.8217835284123 1.0
C      1  0.8217866904355  0.3945083324813  0.3856818316396 1.0
C      1  0.8217872101588  0.6054917189958  0.6143184170364 1.0
C      1  0.1782138164035  0.3945082933529  0.6143180412879 1.0
C      1  0.6143175646319  0.8217842438862  0.6054914089457 1.0
C      1  0.6143173848401  0.1782159368862  0.3945086401217 1.0
C      1  0.3856822135029  0.8217846073913  0.3945086927749 1.0
C      1  0.6054914108620  0.3856831348272  0.8217833299222 1.0
C      1  0.1782138493359  0.6054916120446  0.6143179012973 1.0
C      1  0.3856823820651  0.1782157510168  0.3945085933456 1.0
C      1  0.3945086871248  0.6143169453355  0.8217837735056 1.0
C      1  0.3945082886564  0.3856829880789  0.1782160892378 1.0
C      1  0.6054910376048  0.6143170138639  0.1782162586879 1.0
C      1  0.8217871390627  0.3945081647349  0.6143185105043 1.0
C      1  0.8217866784467  0.6054915416225  0.3856817216035 1.0
C      1  0.1782134333911  0.3945083173996  0.3856819376096 1.0
C      1  0.6143175822825  0.8217843729781  0.3945087914490 1.0
C      1  0.6143176066727  0.1782154048017  0.6054913418225 1.0
C      1  0.3856823921963  0.8217844583668  0.6054914964968 1.0
C      1  0.5516219973871  0.7311691001189  0.7298469861729 1.0
C      1  0.7298481121316  0.5516221764682  0.7311680535327 1.0
C      1  0.7311691801400  0.7298461726676  0.5516223394501 1.0
C      1  0.4483778038051  0.2688307928161  0.7298468562822 1.0
C      1  0.4483776518145  0.7311692520847  0.2701531073522 1.0
C      1  0.5516218327943  0.2688311793034  0.2701529171626 1.0
C      1  0.2701526689063  0.4483779410172  0.7311680438964 1.0
C      1  0.2701519965941  0.5516220578408  0.2688317439805 1.0
C      1  0.7298473604608  0.4483777955388  0.2688321914494 1.0
C      1  0.2688308363117  0.2701533377458  0.5516222741411 1.0
C      1  0.2688308485274  0.7298464439943  0.4483777508599 1.0
C      1  0.7311691349762  0.2701536853108  0.4483779618769 1.0
C      1  0.5516218833562  0.7311691415271  0.2701531295612 1.0
C      1  0.7298473459347  0.5516220437778  0.2688321587265 1.0
C      1  0.7311691770127  0.7298462272311  0.4483778775387 1.0
C      1  0.4483776956908  0.2688310621553  0.2701528545769 1.0
C      1  0.4483778077790  0.7311691636627  0.7298471432478 1.0
C      1  0.5516220296494  0.2688308578810  0.7298467020278 1.0
C      1  0.2701519640812  0.4483777881656  0.2688317379348 1.0
C      1  0.2701526688399  0.5516221515190  0.7311679904532 1.0
C      1  0.7298480776325  0.4483779488850  0.7311680788705 1.0
C      1  0.2688308229142  0.2701535632262  0.4483778539938 1.0
C      1  0.2688310353248  0.7298464325426  0.5516221633438 1.0
C      1  0.7311693085747  0.2701535104413  0.5516224225720 1.0
C      1  0.4471816360726  0.2357537172077  0.4486229143320 1.0
C      1  0.4486224019091  0.4471818320151  0.2357550110213 1.0
C      1  0.2357509264371  0.4486226890532  0.4471817297149 1.0
C      1  0.5528182709880  0.7642463542031  0.4486228278830 1.0
C      1  0.5528182655010  0.2357534687443  0.5513772856161 1.0
C      1  0.4471816604177  0.7642464660939  0.5513772429022 1.0
C      1  0.5513769076805  0.5528183451127  0.2357553145530 1.0
C      1  0.5513774058689  0.4471817502603  0.7642441672194 1.0
C      1  0.4486228793102  0.5528183154835  0.7642445938821 1.0
C      1  0.7642499015231  0.5513771551734  0.4471820251965 1.0
C      1  0.7642501411478  0.4486226872274  0.5528183538051 1.0
C      1  0.2357508871242  0.5513771573030  0.5528179591593 1.0
C      1  0.4471816198741  0.2357533884094  0.5513773441052 1.0
C      1  0.4486229222631  0.4471817883995  0.7642444439213 1.0
C      1  0.2357508325728  0.4486226823640  0.5528180119813 1.0
C      1  0.5528182666574  0.7642463317407  0.5513771855718 1.0
C      1  0.5528182121419  0.2357538742524  0.4486229069170 1.0
C      1  0.4471816052601  0.7642465587871  0.4486228174061 1.0
C      1  0.5513774408399  0.5528183643053  0.7642443160134 1.0
C      1  0.5513769660643  0.4471818419224  0.2357551269170 1.0
C      1  0.4486224083933  0.5528183329924  0.2357551526282 1.0
C      1  0.7642501635671  0.5513772045876  0.5528182970481 1.0
C      1  0.7642499061576  0.4486227319911  0.4471820957506 1.0
C      1  0.2357510096362  0.5513771606766  0.4471816917286 1.0
C      1  0.2031854022463  0.6958328886998  0.3816615087500 1.0
C      1  0.3816617303155  0.2031856480398  0.6958330028766 1.0
C      1  0.6958324767543  0.3816621505110  0.2031869619049 1.0
C      1  0.7968144403997  0.3041670700243  0.3816615094181 1.0
C      1  0.7968146802960  0.6958329274459  0.6183387262991 1.0
C      1  0.2031856125652  0.3041670105117  0.6183385464742 1.0
C      1  0.6183380419397  0.7968141683139  0.6958330271540 1.0
C      1  0.6183378028351  0.2031861264128  0.3041670644125 1.0
C      1  0.3816616094724  0.7968143417111  0.3041671064624 1.0
C      1  0.3041668627077  0.6183379497421  0.2031867309301 1.0
C      1  0.3041673792339  0.3816622274566  0.7968131656509 1.0
C      1  0.6958329763383  0.6183379161941  0.7968130833337 1.0
C      1  0.2031857537333  0.6958328480399  0.6183383915705 1.0
C      1  0.3816618263515  0.2031859286229  0.3041669951198 1.0
C      1  0.6958328599634  0.3816621951062  0.7968130144425 1.0
C      1  0.7968147604492  0.3041669031808  0.6183388175875 1.0
C      1  0.7968145086479  0.6958328077028  0.3816614637474 1.0
C      1  0.2031854111184  0.3041670343231  0.3816615283117 1.0
C      1  0.6183379579774  0.7968141776622  0.3041671902212 1.0
C      1  0.6183380980605  0.2031857045969  0.6958329507856 1.0
C      1  0.3816617879317  0.7968142395741  0.6958330776050 1.0
C      1  0.3041672678381  0.6183378670725  0.7968132012006 1.0
C      1  0.3041668221026  0.3816620138330  0.2031866032495 1.0
C      1  0.6958323947237  0.6183378317323  0.2031870541122 1.0
C      1  0.6283807149620  0.3142342597617  0.5465684785819 1.0
C      1  0.5465675243034  0.6283815183750  0.3142345303257 1.0
C      1  0.3142319599545  0.5465679672933  0.6283792231573 1.0
C      1  0.3716192407544  0.6857658144348  0.5465679710735 1.0
C      1  0.3716191847636  0.3142342437592  0.4534321594957 1.0
C      1  0.6283807126589  0.6857655228068  0.4534319336265 1.0
C      1  0.4534316218972  0.3716186327596  0.3142342208293 1.0
C      1  0.4534319709207  0.6283816502336  0.6857655777517 1.0
C      1  0.5465679722174  0.3716184615836  0.6857650375323 1.0
C      1  0.6857695942886  0.4534320916423  0.6283793884826 1.0
C      1  0.6857689152829  0.5465678830174  0.3716212077122 1.0
C      1  0.3142312864460  0.4534319239035  0.3716202080988 1.0
C      1  0.6283807697936  0.3142345389352  0.4534322813258 1.0
C      1  0.5465679416309  0.6283816990772  0.6857654301152 1.0
C      1  0.3142312580157  0.5465678620136  0.3716201731945 1.0
C      1  0.3716193134191  0.6857658970673  0.4534318103861 1.0
C      1  0.3716191028898  0.3142339966594  0.5465683141165 1.0
C      1  0.6283806181115  0.6857654761559  0.5465681479557 1.0
C      1  0.4534319674210  0.3716184997884  0.6857651994798 1.0
C      1  0.4534315523042  0.6283814836474  0.3142345126003 1.0
C      1  0.5465675603390  0.3716186767548  0.3142341942048 1.0
C      1  0.6857688653142  0.4534319592830  0.3716212632438 1.0
C      1  0.6857695929374  0.5465679579046  0.6283792786247 1.0
C      1  0.3142319200058  0.4534319726526  0.6283793401328 1.0
C      1  0.5470250750192  0.6941868863856  0.8252745651264 1.0
C      1  0.8252768517054  0.5470251876835  0.6941884724782 1.0
C      1  0.6941876765093  0.8252739838093  0.5470251642112 1.0
C      1  0.4529749797605  0.3058130245181  0.8252743923587 1.0
C      1  0.4529746859630  0.6941872110248  0.1747254988570 1.0
C      1  0.5470248369452  0.3058131159708  0.1747252009695 1.0
C      1  0.1747242980283  0.4529748716582  0.6941880131806 1.0
C      1  0.1747234974786  0.5470250824871  0.3058118525359 1.0
C      1  0.8252760513296  0.4529747208871  0.3058116865144 1.0
C      1  0.3058121872959  0.1747254716489  0.5470250506896 1.0
C      1  0.3058121750566  0.8252743525962  0.4529750506252 1.0
C      1  0.6941875291949  0.1747259258917  0.4529749358381 1.0
C      1  0.5470248321493  0.6941871586365  0.1747254878985 1.0
C      1  0.8252760758372  0.5470250761813  0.3058116185036 1.0
C      1  0.6941877278063  0.8252740646584  0.4529750658122 1.0
C      1  0.4529746836189  0.3058130180158  0.1747251396094 1.0
C      1  0.4529749534309  0.6941869843697  0.8252747604209 1.0
C      1  0.5470250781592  0.3058131320001  0.8252741970670 1.0
C      1  0.1747234957642  0.4529747822903  0.3058118820212 1.0
C      1  0.1747243225048  0.5470251462799  0.6941879147138 1.0
C      1  0.8252768292717  0.4529748001640  0.6941885369804 1.0
C      1  0.3058123019122  0.1747257472563  0.4529749389570 1.0
C      1  0.3058122456609  0.8252743097297  0.5470251410073 1.0
C      1  0.6941876555297  0.1747257029034  0.5470250627723 1.0
C      1  0.2650374005996  0.2964481096797  0.7804481033510 1.0
C      1  0.7804479095237  0.2650370295705  0.2964478386501 1.0
C      1  0.2964478601926  0.7804484282727  0.2650369909436 1.0
C      1  0.7349627060638  0.7035521701710  0.7804480664311 1.0
C      1  0.7349624910405  0.2964479800305  0.2195519300873 1.0
C      1  0.2650371637229  0.7035520904371  0.2195520229198 1.0
C      1  0.2195516388343  0.7349631572978  0.2964478290659 1.0
C      1  0.2195519111227  0.2650371553857  0.7035522569142 1.0
C      1  0.7804482119225  0.7349632646654  0.7035522934980 1.0
C      1  0.7035516981855  0.2195519439216  0.2650370775309 1.0
C      1  0.7035518687145  0.7804483073719  0.7349630426932 1.0
C      1  0.2964479818957  0.2195517829987  0.7349630603388 1.0
C      1  0.2650371127482  0.2964478384192  0.2195519342039 1.0
C      1  0.7804481658578  0.2650367402147  0.7035524707899 1.0
C      1  0.2964479541823  0.7804481919439  0.7349629373691 1.0
C      1  0.7349624001410  0.7035519957923  0.2195520345746 1.0
C      1  0.7349625518945  0.2964479229892  0.7804480884092 1.0
C      1  0.2650372474186  0.7035519572453  0.7804480579631 1.0
C      1  0.2195518917414  0.7349628354999  0.7035520411650 1.0
C      1  0.2195516884055  0.2650367982488  0.2964478611833 1.0
C      1  0.7804479294601  0.7349629184375  0.2964478183131 1.0
C      1  0.7035518455321  0.2195516604225  0.7349631529688 1.0
C      1  0.7035517628840  0.7804481966243  0.2650371143173 1.0
C      1  0.2964479853737  0.2195517139871  0.2650370055782 1.0
END
