TITL C-136586-6883-8 -11.096 3375.00 -1893.05200113 0 0 231 (C1) n - 1
REM
REM Run started: at 2020.11.26 13:27:51 in /rds/project/t2_vol4/rds-t2-cs072/BORA/CARBON/AIRSS/Generating-Clusters/Str-Search/Higher-Symm
REM VASP from code version vasp.5.4.4.18Apr17-6-g9f103f2a35 (build Oct 11 2019 16:45:47) gamma-only
REM
REM
REM
REM
REM ./C.cell (e5ae0387ce4d49c7c0135a1433873289)
REM AIRSS Version 0.9.1 bugfix July 2018 build 013d7b7c2542+ Fri, 06 Jul 2018 19:26:36 +0100
REM compiler GCC version 4.8.5 20150623 (Red Hat 4.8.5-39)
REM options -cpp -mtune=generic -march=x86-64 -g -O0
REM seed 2068469891 -2092100052 -2019547611 462305577 2081919275 311598548 1571580951 113726899 -1185844048 406044846 354857081 40152293
REM
REM C.POTCAR (d86ddea03c3ceb6dc662c8ad6801f873)
REM 
CELL 1.54180   15.00000   15.00000   15.00000   90.00000   90.00000   90.00000
LATT -1
SFAC C  
C      1  0.7226834549035  0.5966592146480  0.5699675765046 1.0
C      1  0.4580951889474  0.5916497867933  0.2578519729576 1.0
C      1  0.3188370837281  0.5911197096174  0.6438429787293 1.0
C      1  0.7226538619436  0.4057771208114  0.5681986273862 1.0
C      1  0.4608940924126  0.4126710381894  0.2608097008481 1.0
C      1  0.3130549749982  0.4049708187741  0.6444883698527 1.0
C      1  0.2739843257805  0.5961419822928  0.5658868889354 1.0
C      1  0.5480148559843  0.5931330021709  0.2555198836099 1.0
C      1  0.6768471466138  0.5891013403644  0.6470346355985 1.0
C      1  0.2712404309765  0.4050273943093  0.5645889583323 1.0
C      1  0.5510488295274  0.4126600410977  0.2625176456804 1.0
C      1  0.6789494071483  0.4024233062183  0.6473335134426 1.0
C      1  0.5485157940466  0.3893039549442  0.4070445535399 1.0
C      1  0.3970749314137  0.3826804598323  0.4885998111013 1.0
C      1  0.5458071345450  0.3845123222801  0.5809483384112 1.0
C      1  0.5514551298892  0.6224945569173  0.4001656798415 1.0
C      1  0.3981202281182  0.6189680100606  0.4851008285847 1.0
C      1  0.5469489715728  0.6097341154031  0.5753285349461 1.0
C      1  0.4457683509525  0.3865117973081  0.4029778931093 1.0
C      1  0.5966102444606  0.3852974586983  0.4921645157878 1.0
C      1  0.4471666548688  0.3853428452534  0.5792540185032 1.0
C      1  0.4479097476337  0.6210410957447  0.3991208342664 1.0
C      1  0.5990891446407  0.6200310068404  0.4873999782145 1.0
C      1  0.4492981019011  0.6104388720820  0.5740249712391 1.0
C      1  0.0982510481091  0.6438057434412  0.6418522454651 1.0
C      1  0.7656932362894  0.6176112484741  0.7852354763536 1.0
C      1  0.6092405735784  0.6450252975783  0.0651622797606 1.0
C      1  0.0937757394835  0.3548553703509  0.6399792567525 1.0
C      1  0.7692013768203  0.3682200597823  0.7802107626260 1.0
C      1  0.6301136366287  0.3922991283749  0.1178593873787 1.0
C      1  0.8975023229111  0.6441840729007  0.6466843908570 1.0
C      1  0.2278538279510  0.6210141083536  0.7809389250588 1.0
C      1  0.4224856277477  0.6184370089039  0.0551878606217 1.0
C      1  0.8990497374907  0.3521037469455  0.6399004643121 1.0
C      1  0.2201005303274  0.3707535170885  0.7824098917135 1.0
C      1  0.4476785966096  0.3649911617519  0.0567220205980 1.0
C      1  0.4806971999330  0.5501376318993  0.0430967616675 1.0
C      1  0.1673690202334  0.5500164887680  0.7628988700397 1.0
C      1  0.8958821469310  0.5737292694095  0.7083839432848 1.0
C      1  0.4905386809276  0.4536724961053  0.0509818673036 1.0
C      1  0.1648209631230  0.4454662227746  0.7629274806956 1.0
C      1  0.8977739460648  0.4197667834670  0.7055718640903 1.0
C      1  0.5768842423222  0.5582766234448  0.0523943493198 1.0
C      1  0.8252086726017  0.5469047782188  0.7647335893597 1.0
C      1  0.0964210754737  0.5757437951395  0.7060259623031 1.0
C      1  0.5842303730426  0.4622546002443  0.0752778951534 1.0
C      1  0.8266626056781  0.4422018273603  0.7630137245368 1.0
C      1  0.0945270029856  0.4226960904328  0.7047166050968 1.0
C      1  0.9517754531237  0.6092941925493  0.5645765234726 1.0
C      1  0.3493342875818  0.6111913898980  0.1169932136465 1.0
C      1  0.3042343373799  0.5969340287837  0.8401741695300 1.0
C      1  0.9509128314698  0.3905125934992  0.5599650976427 1.0
C      1  0.3632168495911  0.3680521892895  0.1130777004051 1.0
C      1  0.2983824475040  0.3905495752017  0.8383399646874 1.0
C      1  0.0441102636029  0.6093838587008  0.5605471870439 1.0
C      1  0.6844144172414  0.6687686052849  0.1186275001668 1.0
C      1  0.6907760880890  0.5902826092247  0.8452836393304 1.0
C      1  0.0429183114346  0.3910703988025  0.5583380339983 1.0
C      1  0.7129464998898  0.4272434640811  0.1580721504665 1.0
C      1  0.6895290604849  0.3883519729021  0.8370614754571 1.0
C      1  0.5468530435456  0.8627004154302  0.7852343668061 1.0
C      1  0.7417697502234  0.8905521912205  0.3650964778103 1.0
C      1  0.1699184528388  0.8458332516180  0.4195833539216 1.0
C      1  0.5427227487514  0.1574120542919  0.7969310090614 1.0
C      1  0.7276468265490  0.1264843543179  0.3348409658852 1.0
C      1  0.1748095432589  0.1571026075287  0.4160280584146 1.0
C      1  0.4515450528276  0.8483492903608  0.7936289244232 1.0
C      1  0.2468783490912  0.8835343632116  0.3638503792291 1.0
C      1  0.8158532880375  0.8573695864942  0.4265584386944 1.0
C      1  0.4463491469648  0.1468431346047  0.7928411984115 1.0
C      1  0.2514121479703  0.1192188517706  0.3613947974820 1.0
C      1  0.7926433989371  0.1625779010603  0.4008888462855 1.0
C      1  0.3897155113653  0.3962093065084  0.8179381021608 1.0
C      1  0.8403377835094  0.4146265999534  0.4266601437405 1.0
C      1  0.2600014939154  0.4045824649736  0.2337306519948 1.0
C      1  0.3958849142829  0.5896131813049  0.8197176681269 1.0
C      1  0.8437720662659  0.5884692753888  0.4294845870015 1.0
C      1  0.2615125773238  0.5758413339870  0.2372257888088 1.0
C      1  0.5945728736387  0.3913958616126  0.8208181712924 1.0
C      1  0.1535926112065  0.4097497868898  0.4217847969705 1.0
C      1  0.7466790865841  0.4110367768683  0.2452403288217 1.0
C      1  0.6004672614149  0.5820632067430  0.8226833930057 1.0
C      1  0.1526114211958  0.5879010415689  0.4197595298988 1.0
C      1  0.7549356875144  0.6003464592934  0.2480714371767 1.0
C      1  0.6346432651207  0.2848904859952  0.5156874907015 1.0
C      1  0.4466275337436  0.2905736027403  0.3465523502115 1.0
C      1  0.4071008392674  0.2932551338922  0.6066370306580 1.0
C      1  0.6363154754580  0.7163550324520  0.5208037818466 1.0
C      1  0.4433832930978  0.7157836020176  0.3406817448348 1.0
C      1  0.4101388309997  0.7038091601915  0.6045640484484 1.0
C      1  0.3605203592793  0.2834929003716  0.5161540782513 1.0
C      1  0.5515768644149  0.2969215601468  0.3552372609350 1.0
C      1  0.5851330183674  0.2912380291804  0.6058691956934 1.0
C      1  0.3605093770567  0.7164095087759  0.5172508326553 1.0
C      1  0.5542694780204  0.7160970343257  0.3434876974075 1.0
C      1  0.5859817919041  0.7020679865146  0.6075938112019 1.0
C      1  0.7364682528895  0.6847847922074  0.5212583076301 1.0
C      1  0.3974047727185  0.6738368069851  0.2595587664532 1.0
C      1  0.3614187103391  0.6706326468238  0.6841771072500 1.0
C      1  0.7341537024473  0.3192270407017  0.5152952576854 1.0
C      1  0.4061321507054  0.3274415068549  0.2638542376557 1.0
C      1  0.3346904610664  0.3142765948644  0.6670445800173 1.0
C      1  0.2602504577409  0.6837988590941  0.5164466192462 1.0
C      1  0.6045997588144  0.6789112095802  0.2632952530638 1.0
C      1  0.6336372799569  0.6678329415747  0.6880355390040 1.0
C      1  0.2592132986361  0.3158169238423  0.5161586167766 1.0
C      1  0.6082941692368  0.3317796293886  0.2796194080925 1.0
C      1  0.6565224162866  0.3114044111132  0.6674646819184 1.0
C      1  0.5848163985227  0.3000713872318  0.1399709969893 1.0
C      1  0.1601509851532  0.2869973427382  0.6483897783182 1.0
C      1  0.7783653986446  0.2850345571957  0.7274766349851 1.0
C      1  0.5482543308540  0.7118975097108  0.1044273958084 1.0
C      1  0.1671609979972  0.7107222983150  0.6504381114670 1.0
C      1  0.7709225052840  0.7041860714637  0.7348380221666 1.0
C      1  0.4912844273162  0.2988026418702  0.1170768802746 1.0
C      1  0.8321490735148  0.2835065142997  0.6447460872889 1.0
C      1  0.2131344244591  0.2881598656372  0.7303741962865 1.0
C      1  0.4568906756012  0.6994062419098  0.1006525451555 1.0
C      1  0.8285176299318  0.7113874259890  0.6556834411667 1.0
C      1  0.2235343597244  0.7061214524325  0.7297738116010 1.0
C      1  0.6852485830071  0.4494754152225  0.4878171928673 1.0
C      1  0.4019930103954  0.4500739389126  0.3323485269544 1.0
C      1  0.4058418710091  0.4456834641635  0.6533068864365 1.0
C      1  0.6863956284159  0.5565455855195  0.4864094079366 1.0
C      1  0.4023662446438  0.5534147878029  0.3316714652242 1.0
C      1  0.4081744366392  0.5473664918907  0.6494471796050 1.0
C      1  0.3092824129622  0.4460547820458  0.4829657264088 1.0
C      1  0.6003080320006  0.4547044225828  0.3391001934922 1.0
C      1  0.5864028465923  0.4436940320259  0.6559957902171 1.0
C      1  0.3096582483095  0.5546746353459  0.4823683079351 1.0
C      1  0.6004452820724  0.5570014223192  0.3336243946544 1.0
C      1  0.5867951352745  0.5455272845279  0.6508943890625 1.0
C      1  0.8289321619600  0.4548152682931  0.2660343443628 1.0
C      1  0.1320345677132  0.4471517167540  0.3413629507196 1.0
C      1  0.5415424101989  0.4261252266507  0.8958580437464 1.0
C      1  0.8295459973461  0.5492122471592  0.2713627930395 1.0
C      1  0.1310489766197  0.5459906660643  0.3410157856524 1.0
C      1  0.5421486210391  0.5287643258037  0.8769536732201 1.0
C      1  0.1805363582638  0.4450398418537  0.2563114343349 1.0
C      1  0.8761332628867  0.4493638206276  0.3504571708147 1.0
C      1  0.4383899670837  0.4381727278848  0.8911132034373 1.0
C      1  0.1788037911514  0.5436514682930  0.2558222649053 1.0
C      1  0.8772417811262  0.5507006289069  0.3537103374391 1.0
C      1  0.4512233022472  0.5356294497434  0.8755836519901 1.0
C      1  0.5504806613699  0.9512911150300  0.4290309495631 1.0
C      1  0.4100488470428  0.8919998367876  0.4969989877023 1.0
C      1  0.5510391726693  0.9520540035798  0.5667270309225 1.0
C      1  0.5510995832170  0.0479690124362  0.4265461947858 1.0
C      1  0.4103753841494  0.1089826440485  0.4952622012563 1.0
C      1  0.5515262957865  0.0516186114872  0.5645062207944 1.0
C      1  0.4513025801320  0.9516717752354  0.4290809930373 1.0
C      1  0.5914829167592  0.8922329790887  0.4977302978299 1.0
C      1  0.4515872821689  0.9519179387566  0.5662797915756 1.0
C      1  0.4515407357511  0.0484755238070  0.4276956195438 1.0
C      1  0.5932949066455  0.1086864499791  0.4926579283831 1.0
C      1  0.4517045921711  0.0513322099316  0.5655728808156 1.0
C      1  0.7992966426097  0.9624520482639  0.3314491148617 1.0
C      1  0.1135045047947  0.8977307607966  0.3574161888253 1.0
C      1  0.5355203001307  0.9243088787116  0.8605408555414 1.0
C      1  0.7909936732068  0.0543403070401  0.3138934539266 1.0
C      1  0.1195389883288  0.1113455356034  0.3483199402900 1.0
C      1  0.5208006242882  0.1592985068463  0.8934830051127 1.0
C      1  0.1866314350478  0.9551445949517  0.3347874003714 1.0
C      1  0.8716804357864  0.9074952066480  0.3607118877600 1.0
C      1  0.4728141154106  0.8571185653289  0.8886326685157 1.0
C      1  0.1894606876741  0.0486232109361  0.3318591864215 1.0
C      1  0.8512333216199  0.1263250825025  0.3280093685504 1.0
C      1  0.4542222781001  0.0959645199050  0.8781979504196 1.0
C      1  0.3075472038213  0.2486969902450  0.7216748022062 1.0
C      1  0.8004930590096  0.2512277403044  0.5489746442043 1.0
C      1  0.4073987503725  0.3016696094524  0.1692610454894 1.0
C      1  0.3177355075759  0.7457970949949  0.7274879281233 1.0
C      1  0.8015052183241  0.7499530834787  0.5625844729040 1.0
C      1  0.3821342074364  0.6916621467178  0.1634489031791 1.0
C      1  0.6840150520764  0.2452878917749  0.7211699484310 1.0
C      1  0.1907513156947  0.2527655708061  0.5562328877680 1.0
C      1  0.6270428245235  0.2565585806717  0.2217776533252 1.0
C      1  0.6770094020924  0.7437273431431  0.7308334404718 1.0
C      1  0.1932856207979  0.7469210443622  0.5577171921681 1.0
C      1  0.6209359745337  0.7175838209896  0.1734726217279 1.0
C      1  0.6855892203599  0.6223993275174  0.3144545692362 1.0
C      1  0.2488397251028  0.6217316015671  0.4259615329765 1.0
C      1  0.5572956684223  0.6063733031202  0.7340139081898 1.0
C      1  0.6872597580448  0.3893274923562  0.3258046782586 1.0
C      1  0.2490662263490  0.3760228094109  0.4275228115716 1.0
C      1  0.5413595315389  0.4084272031282  0.7407596542337 1.0
C      1  0.3187780272384  0.6154524891893  0.3078601985909 1.0
C      1  0.7484846511631  0.6238544672762  0.4310328023402 1.0
C      1  0.4394130254066  0.6091880069554  0.7319392963734 1.0
C      1  0.3211403916346  0.3789967517246  0.3057470138916 1.0
C      1  0.7428072860045  0.3842586733341  0.4258247121090 1.0
C      1  0.4469528258890  0.4087716145803  0.7392299046806 1.0
C      1  0.2763384993244  0.4506532445704  0.9113072474959 1.0
C      1  0.8929452987647  0.4534684898117  0.5044699718551 1.0
C      1  0.3091308556036  0.4383158046619  0.1536407888017 1.0
C      1  0.2791976610201  0.5334313107476  0.9068424009141 1.0
C      1  0.8942359985887  0.5473270695894  0.5067761478804 1.0
C      1  0.3069816486780  0.5371911880417  0.1579870418746 1.0
C      1  0.7110238389286  0.4520383615692  0.9015273580108 1.0
C      1  0.0987543419394  0.4522371318717  0.4965853579390 1.0
C      1  0.7387017832376  0.5119278402673  0.1226547521356 1.0
C      1  0.7188548699862  0.5333236741587  0.9222459586248 1.0
C      1  0.0986193902549  0.5475728144913  0.4961348681120 1.0
C      1  0.7364369953064  0.5979556289767  0.1541043436549 1.0
C      1  0.3922834827845  0.1926931509920  0.7304496398155 1.0
C      1  0.8099313182047  0.1877821971896  0.4859506102999 1.0
C      1  0.3231866473431  0.1691623950001  0.3314424506362 1.0
C      1  0.3926040750618  0.8080698590424  0.7290484015834 1.0
C      1  0.8236095924619  0.8149530800662  0.5047662527366 1.0
C      1  0.3184755442407  0.8347847290583  0.3347073765939 1.0
C      1  0.5995444161206  0.1882420615906  0.7292455249465 1.0
C      1  0.1640270138057  0.1904845082978  0.4982079808239 1.0
C      1  0.6525183891831  0.1871519317747  0.2981810327087 1.0
C      1  0.6024699909693  0.8053546096386  0.7305765914473 1.0
C      1  0.1633231096920  0.8085606934656  0.5004489131204 1.0
C      1  0.6738857667730  0.8366810868528  0.3305187744045 1.0
C      1  0.6136160870710  0.1962365992229  0.4681336291144 1.0
C      1  0.3883706071514  0.2130036028355  0.3756173280848 1.0
C      1  0.4502245218116  0.2221463642527  0.6589542709572 1.0
C      1  0.6100740827114  0.8044229034031  0.4750872343168 1.0
C      1  0.3851733946561  0.7904897926860  0.3753862276648 1.0
C      1  0.4527566770569  0.7770022426666  0.6562548513787 1.0
C      1  0.3896103953321  0.1960619668660  0.4718887769215 1.0
C      1  0.6072647550123  0.2175290728375  0.3741395250511 1.0
C      1  0.5417407306946  0.2188957111906  0.6569063675194 1.0
C      1  0.3891862161811  0.8048672272765  0.4729111755068 1.0
C      1  0.6119112440921  0.7911092730067  0.3776710181727 1.0
C      1  0.5426407215999  0.7741395079474  0.6587824896204 1.0
C      1  0.4787802234860  0.3987107659193  0.9683209381731 1.0
C      1  0.0402084109423  0.4996567498387  0.6947416495370 1.0
C      1  0.9516151172500  0.4978101276195  0.6957138236648 1.0
END
