TITL C-13179-9057-1 -2.087 3375.00 -300.12143387 0 0 38 (C1) n - 1
REM
REM Run started: at 2020.12.29 03:56:52 in /gpfs/home/chem/mssmkc/CARBON/AIRSS/Generating-Clusters/Str-Search/Higher-Symm/C4-100
REM VASP from code version vasp.5.4.4.18Apr17-6-g9f103f2a35 (build Oct 11 2019 16:45:47) gamma-only
REM
REM
REM
REM
REM ./C.cell (6bd13a13d554368a30d355f37ece5b26)
REM AIRSS Version 0.9.1 bugfix July 2018 build 013d7b7c2542+ Fri, 06 Jul 2018 19:26:36 +0100
REM compiler GCC version 6.3.0
REM options -cpp -iprefix /gpfs/warwick/csc/orac/software/Core/GCCcore/6.3.0/bin/../lib/gcc/x86_64-pc-linux-gnu/6.3.0/ -mtune=generic -march=x86-64 -g -O0
REM seed 947302987 -1763134313 1612930040 108682974 2047717784 -1230787197 1891833972 -1544572674 -959836032 -2017116602 -750823056 -1994199346
REM
REM C.POTCAR (d86ddea03c3ceb6dc662c8ad6801f873)
REM 
CELL 1.54180   15.00000   15.00000   15.00000   90.00000   90.00000   90.00000
LATT -1
SFAC C  
C      1  0.5799759587507  0.4520706803491  0.6836729927002 1.0
C      1  0.5300765910397  0.5451025748142  0.2724504261691 1.0
C      1  0.5607860615405  0.5437955094624  0.6838412096295 1.0
C      1  0.5556312924102  0.4578118641057  0.2866359489510 1.0
C      1  0.4870740153761  0.7060348546289  0.5533884683222 1.0
C      1  0.5865964727425  0.2865760841101  0.4535361658422 1.0
C      1  0.5793025189271  0.2733371716541  0.5443642346769 1.0
C      1  0.4931175164122  0.6907152641152  0.4627008943639 1.0
C      1  0.4138555517190  0.5168467193437  0.4036305146622 1.0
C      1  0.4524001289505  0.4228643472847  0.5698652526565 1.0
C      1  0.4359019367005  0.4233972684175  0.4042660251446 1.0
C      1  0.4323966074636  0.5171745380071  0.5701349456668 1.0
C      1  0.5983865309453  0.6314113345772  0.6843878896221 1.0
C      1  0.5950469795604  0.3877478665926  0.3378581263009 1.0
C      1  0.6356151542832  0.3751076760538  0.6845227334462 1.0
C      1  0.5374910174899  0.6112382190986  0.3420995398664 1.0
C      1  0.4983488621614  0.5657020629467  0.6156984727253 1.0
C      1  0.5015910316835  0.4007587545475  0.3361899812926 1.0
C      1  0.5321966210134  0.4027730684558  0.6199234812862 1.0
C      1  0.4549021565036  0.5687599900422  0.3345722842435 1.0
C      1  0.6321580910689  0.3673260140379  0.4247565063010 1.0
C      1  0.5561187657099  0.6428407110477  0.5890448698821 1.0
C      1  0.5667351601894  0.6372994892287  0.4289984852913 1.0
C      1  0.6154193491334  0.3575604729959  0.5840302239305 1.0
C      1  0.4985107555833  0.2935428601464  0.4873722712133 1.0
C      1  0.4115641774729  0.6629598495985  0.4964891380455 1.0
C      1  0.6498133736189  0.4180392334308  0.5029611460323 1.0
C      1  0.6099509622450  0.6003758131538  0.5041004696363 1.0
C      1  0.4457260077256  0.3722022946143  0.4868488108385 1.0
C      1  0.3798714041321  0.5621832053401  0.4920230628548 1.0
C      1  0.8511200718204  0.5369821700783  0.5007191728406 1.0
C      1  0.0249298671085  0.5446386072982  0.5008261059008 1.0
C      1  0.6754817774654  0.5182650204896  0.5046230596750 1.0
C      1  0.2822390337435  0.5517020357472  0.4990695411340 1.0
C      1  0.9367874624008  0.5418240805473  0.5007801268774 1.0
C      1  0.1992333938138  0.5488157433087  0.5002190232127 1.0
C      1  0.7643865581878  0.5328092261136  0.5018709950659 1.0
C      1  0.1094605829070  0.5464206242159  0.5008944036994 1.0
END
