TITL C-13179-9057-104 -2.862 3375.00 -461.72390015 0 0 57 (C1) n - 1
REM
REM Run started: at 2020.12.29 23:34:42 in /gpfs/home/chem/mssmkc/CARBON/AIRSS/Generating-Clusters/Str-Search/Higher-Symm/C4-100
REM VASP from code version vasp.5.4.4.18Apr17-6-g9f103f2a35 (build Oct 11 2019 16:45:47) gamma-only
REM
REM
REM
REM
REM ./C.cell (6bd13a13d554368a30d355f37ece5b26)
REM AIRSS Version 0.9.1 bugfix July 2018 build 013d7b7c2542+ Fri, 06 Jul 2018 19:26:36 +0100
REM compiler GCC version 6.3.0
REM options -cpp -iprefix /gpfs/warwick/csc/orac/software/Core/GCCcore/6.3.0/bin/../lib/gcc/x86_64-pc-linux-gnu/6.3.0/ -mtune=generic -march=x86-64 -g -O0
REM seed 1152740931 -61812996 1854281140 1179218740 1983660982 -1459375977 -1728702115 -805590954 -1942353966 -2133944602 552883775 946105776
REM
REM C.POTCAR (d86ddea03c3ceb6dc662c8ad6801f873)
REM 
CELL 1.54180   15.00000   15.00000   15.00000   90.00000   90.00000   90.00000
LATT -1
SFAC C  
C      1  0.4004393024760  0.7004862331176  0.5020392731119 1.0
C      1  0.2693542853263  0.4541237512011  0.3863444360178 1.0
C      1  0.3632235638873  0.6795445299693  0.4310005094171 1.0
C      1  0.6992907539829  0.3865124305080  0.5040491937559 1.0
C      1  0.5771093241396  0.3105423997962  0.6230012784204 1.0
C      1  0.4618586191100  0.5083205586930  0.7315667276008 1.0
C      1  0.3208587706603  0.4270674480761  0.3087269587304 1.0
C      1  0.4800356881301  0.4666139873732  0.2832240194475 1.0
C      1  0.3868119598069  0.4906649693399  0.2775533374141 1.0
C      1  0.5036390423090  0.3827637755026  0.3308330458090 1.0
C      1  0.3003418835923  0.4210030222693  0.5391453408130 1.0
C      1  0.2671148000657  0.3843300270723  0.4553445009502 1.0
C      1  0.4685455677374  0.6672322108563  0.5619525541883 1.0
C      1  0.6152888018773  0.3535458531684  0.4655582324243 1.0
C      1  0.6244632276593  0.6751779742503  0.3324972586113 1.0
C      1  0.3800913414674  0.5523390479493  0.7523072889428 1.0
C      1  0.4281978799895  0.5236970006436  0.5208226145348 1.0
C      1  0.4367445338647  0.3207560694756  0.3528786915129 1.0
C      1  0.3459675229005  0.3374621979423  0.3290137415338 1.0
C      1  0.6453187781891  0.5249970894205  0.4412396771338 1.0
C      1  0.4984667558257  0.6581826272278  0.2296965993353 1.0
C      1  0.3397628730839  0.5084116647235  0.5108170050715 1.0
C      1  0.5830533146355  0.3960992728315  0.3824630754244 1.0
C      1  0.5954805927011  0.5558821282881  0.5139919263126 1.0
C      1  0.6117833084566  0.7522372145044  0.5614108493737 1.0
C      1  0.6096994102116  0.4651818191993  0.7260910109197 1.0
C      1  0.7224301807779  0.3375314745832  0.5782955234129 1.0
C      1  0.3634711558399  0.5871503499699  0.2891620815246 1.0
C      1  0.4561724725335  0.6008334618483  0.7201008959347 1.0
C      1  0.5690855328610  0.6208103540418  0.2793858001374 1.0
C      1  0.4864586261801  0.6711016769387  0.6628886331595 1.0
C      1  0.4174522339425  0.6439969115459  0.2405547421734 1.0
C      1  0.6436430790455  0.7230024909183  0.3977596127068 1.0
C      1  0.6405740849860  0.7503729198125  0.4828979999260 1.0
C      1  0.4114030834692  0.2915561072755  0.4447092001614 1.0
C      1  0.6684346714609  0.3094765144116  0.6363255699101 1.0
C      1  0.4588491462889  0.3072612603563  0.5214213644773 1.0
C      1  0.5423204955069  0.7169009391722  0.6108984006429 1.0
C      1  0.6113581457353  0.4848006965464  0.3627278681976 1.0
C      1  0.3435117824338  0.3790771301886  0.6055637483948 1.0
C      1  0.5192223252257  0.4321156347179  0.7177584628465 1.0
C      1  0.2983739030418  0.5351797613727  0.4259506004504 1.0
C      1  0.6631441341598  0.5302967383420  0.5770424133616 1.0
C      1  0.3175739654587  0.3134994063481  0.4200584869564 1.0
C      1  0.5014735350984  0.3524768724120  0.6696317955382 1.0
C      1  0.8902040443742  0.5344703528697  0.4658969014073 1.0
C      1  0.4989829713069  0.5764985795736  0.5260753674116 1.0
C      1  0.8110211962870  0.5133453075249  0.4845746628984 1.0
C      1  0.6647667706509  0.5147846722191  0.6670382428637 1.0
C      1  0.5566290786035  0.5276818233701  0.2980924955746 1.0
C      1  0.4236880510053  0.3395530370531  0.6100722839870 1.0
C      1  0.3301137620550  0.6094017652025  0.3759202452108 1.0
C      1  0.5554789655608  0.3124740594326  0.5277506747652 1.0
C      1  0.7209165522483  0.4855187309371  0.4976704914231 1.0
C      1  0.2952647020380  0.5493449522390  0.7803969370991 1.0
C      1  0.2158728795334  0.5461128447986  0.8113630403216 1.0
C      1  0.6891664702054  0.5001980705783  0.7584461103180 1.0
END
