TITL C-13179-9057-42 -1.459 3375.00 -248.59133483 0 0 33 (C3v) n - 1
REM
REM Run started: at 2020.12.29 12:31:49 in /gpfs/home/chem/mssmkc/CARBON/AIRSS/Generating-Clusters/Str-Search/Higher-Symm/C4-100
REM VASP from code version vasp.5.4.4.18Apr17-6-g9f103f2a35 (build Oct 11 2019 16:45:47) gamma-only
REM
REM
REM
REM
REM ./C.cell (6bd13a13d554368a30d355f37ece5b26)
REM AIRSS Version 0.9.1 bugfix July 2018 build 013d7b7c2542+ Fri, 06 Jul 2018 19:26:36 +0100
REM compiler GCC version 6.3.0
REM options -cpp -iprefix /gpfs/warwick/csc/orac/software/Core/GCCcore/6.3.0/bin/../lib/gcc/x86_64-pc-linux-gnu/6.3.0/ -mtune=generic -march=x86-64 -g -O0
REM seed 977175210 -998865996 729477734 -1666078632 -1400067237 -2063031816 330297886 -921015424 -1858071222 -1671484851 1317966077 1517251145
REM
REM C.POTCAR (d86ddea03c3ceb6dc662c8ad6801f873)
REM 
CELL 1.54180   15.00000   15.00000   15.00000   90.00000   90.00000   90.00000
LATT -1
SFAC C  
C      1  0.5923750913104  0.6642753738420  0.4871831838230 1.0
C      1  0.3091762695357  0.5004542563111  0.4885838221549 1.0
C      1  0.5923741199895  0.3370516038342  0.4871245898427 1.0
C      1  0.4002541813922  0.6696824522248  0.4894506863922 1.0
C      1  0.6924764239575  0.5005959391511  0.4914362947496 1.0
C      1  0.4002798776689  0.3312545942987  0.4892539495533 1.0
C      1  0.4602847686166  0.5638142299428  0.2817765885425 1.0
C      1  0.4602781880654  0.4372321638654  0.2818322468756 1.0
C      1  0.5697376006510  0.5004972232757  0.2812702438745 1.0
C      1  0.5341087028870  0.5658824418621  0.6952471179569 1.0
C      1  0.5342042725787  0.4351380024543  0.6951772601260 1.0
C      1  0.4201853620474  0.5004228424501  0.6936933773361 1.0
C      1  0.5451212966539  0.5836283381833  0.3271671986371 1.0
C      1  0.4009754740543  0.5005564220091  0.3277526754736 1.0
C      1  0.5451642982417  0.4174887603251  0.3272272720981 1.0
C      1  0.4498451198723  0.5818245366757  0.6481429236265 1.0
C      1  0.5911137496002  0.5005640448148  0.6497407631922 1.0
C      1  0.4499358785779  0.4190969615627  0.6481066007688 1.0
C      1  0.4360418294804  0.3929360666948  0.5596261288908 1.0
C      1  0.6204283043912  0.5006359543645  0.5609464238572 1.0
C      1  0.4360033790870  0.6080975751528  0.5597221972710 1.0
C      1  0.5448346285519  0.4192352585210  0.4256505376305 1.0
C      1  0.4039363734119  0.5005264809626  0.4259141505784 1.0
C      1  0.5447024744357  0.5819950353652  0.4256063750734 1.0
C      1  0.3666294959878  0.5767115138847  0.4886049536733 1.0
C      1  0.6291302568107  0.5762039648566  0.4897368846651 1.0
C      1  0.4976095616989  0.3486098361736  0.4886936757620 1.0
C      1  0.6291491213257  0.4250457059416  0.4897602645222 1.0
C      1  0.4975903582071  0.6525575883347  0.4886339902959 1.0
C      1  0.3666847608596  0.4241936281503  0.4886182205358 1.0
C      1  0.4963441114906  0.5004845034080  0.2128290027175 1.0
C      1  0.4953795185649  0.5004639359205  0.7601552995892 1.0
C      1  0.4980761499958  0.5005635651861  0.4600016999142 1.0
END
