TITL C-13527-1983-49 -8.665 3375.00 -1465.12277226 0 0 181 (C1) n - 1
REM
REM Run started: at 2021.01.01 22:19:52 in /gpfs/home/chem/mssmkc/CARBON/AIRSS/Generating-Clusters/Str-Search/Higher-Symm/C100-200
REM VASP from code version vasp.5.4.4.18Apr17-6-g9f103f2a35 (build Oct 11 2019 16:45:47) gamma-only
REM
REM
REM
REM
REM ./C.cell (533062f00bc710175b3da973d35f2034)
REM AIRSS Version 0.9.1 bugfix July 2018 build 013d7b7c2542+ Fri, 06 Jul 2018 19:26:36 +0100
REM compiler GCC version 6.3.0
REM options -cpp -iprefix /gpfs/warwick/csc/orac/software/Core/GCCcore/6.3.0/bin/../lib/gcc/x86_64-pc-linux-gnu/6.3.0/ -mtune=generic -march=x86-64 -g -O0
REM seed -295877653 -847034307 -2131124537 316341980 -1666931474 -1093718906 532371029 -945650374 179508197 426576166 -202853088 511076682
REM
REM C.POTCAR (d86ddea03c3ceb6dc662c8ad6801f873)
REM 
CELL 1.54180   15.00000   15.00000   15.00000   90.00000   90.00000   90.00000
LATT -1
SFAC C  
C      1  0.3896449949911  0.1476390448080  0.3899517567138 1.0
C      1  0.3892155606204  0.4958630943641  0.1301986273692 1.0
C      1  0.3891809732346  0.8493199290353  0.3811341156663 1.0
C      1  0.3889567245946  0.7204716109210  0.7957542447720 1.0
C      1  0.3898834872692  0.2861594032759  0.8011335469055 1.0
C      1  0.6913932092075  0.8087476661075  0.6521380307276 1.0
C      1  0.6917163157679  0.4510849397592  0.8403836758674 1.0
C      1  0.6920834935909  0.1617609629221  0.5570623963654 1.0
C      1  0.6917186674462  0.3401308265161  0.1957326998888 1.0
C      1  0.6916849912897  0.7397084424366  0.2529018385989 1.0
C      1  0.1552815235275  0.2189565132118  0.4609377537868 1.0
C      1  0.1545250900557  0.4516053982295  0.2206159422398 1.0
C      1  0.1547274503628  0.7498164197430  0.3675822774974 1.0
C      1  0.1553778475091  0.7034041487556  0.6976348353674 1.0
C      1  0.1547769749207  0.3748692708033  0.7533559554952 1.0
C      1  0.4756234195580  0.6827753839933  0.5179986765624 1.0
C      1  0.4758134427559  0.5390643091714  0.6792232019868 1.0
C      1  0.4758380227871  0.3413853169618  0.5922983515284 1.0
C      1  0.4755872364363  0.3629429094358  0.3773534496700 1.0
C      1  0.4756921958485  0.5737073235961  0.3314108245881 1.0
C      1  0.1493170861268  0.3610948550241  0.6644300973728 1.0
C      1  0.1502399541935  0.2992339222250  0.4201635912032 1.0
C      1  0.1495445146930  0.5149570319598  0.2846311646355 1.0
C      1  0.1494652182517  0.7089059253100  0.4477699405631 1.0
C      1  0.1504935572232  0.6144464501121  0.6835256592636 1.0
C      1  0.7191759275784  0.3221889370299  0.2822494734838 1.0
C      1  0.7192852674506  0.6520010507546  0.2627933088317 1.0
C      1  0.7189695294850  0.7725148761140  0.5715909449241 1.0
C      1  0.7192939768372  0.5167379088756  0.7813212739751 1.0
C      1  0.7194411971511  0.2381948864587  0.6014509176558 1.0
C      1  0.3714964634424  0.3045731682123  0.4919246067948 1.0
C      1  0.3712770565309  0.4470794213175  0.3112402461656 1.0
C      1  0.3715251162299  0.6624276314606  0.3912025624583 1.0
C      1  0.3714364314624  0.6535191744735  0.6209987713814 1.0
C      1  0.3715639929113  0.4320014352485  0.6832504034145 1.0
C      1  0.7830697962491  0.3637382936897  0.3465004894034 1.0
C      1  0.7827951043639  0.6043038411241  0.3229673331887 1.0
C      1  0.7829149495653  0.7012107509221  0.5442715245189 1.0
C      1  0.7829822829883  0.5206109232496  0.7049049777623 1.0
C      1  0.7830440430118  0.3122133660710  0.5821311689848 1.0
C      1  0.5733098374396  0.1360555732802  0.3347791447210 1.0
C      1  0.5733052014354  0.5437538150760  0.1024577645290 1.0
C      1  0.5731121472692  0.8911602454814  0.4182550630503 1.0
C      1  0.5727458301903  0.6988781191572  0.8474028269746 1.0
C      1  0.5738707665732  0.2311275875441  0.7958397299787 1.0
C      1  0.9019522909812  0.5006219905516  0.5857461466335 1.0
C      1  0.9020149043360  0.4195777262268  0.5268731836599 1.0
C      1  0.9016994218330  0.4503754622642  0.4314912251770 1.0
C      1  0.9017167843998  0.5504294438962  0.4313334379299 1.0
C      1  0.9018883339786  0.5815476972035  0.5266448808130 1.0
C      1  0.6754768028290  0.5352433571806  0.5727804635607 1.0
C      1  0.6753201581242  0.4421395674371  0.5560473467726 1.0
C      1  0.6758366571664  0.4293723445882  0.4622375991412 1.0
C      1  0.6751937627855  0.5145611108924  0.4210688844259 1.0
C      1  0.6757596544468  0.5799283825245  0.4893401082301 1.0
C      1  0.4258031383532  0.5848655820832  0.1312692546385 1.0
C      1  0.4256633140707  0.8758290313465  0.4663707838425 1.0
C      1  0.4255048884990  0.6478698466692  0.8474264566058 1.0
C      1  0.4265250859875  0.2148898817965  0.7478316028730 1.0
C      1  0.4257213417336  0.1760431311061  0.3052199057964 1.0
C      1  0.2674070970323  0.8241979251399  0.6632763020608 1.0
C      1  0.2676899020950  0.4431678934948  0.8577907198618 1.0
C      1  0.2681254221032  0.1414991165507  0.5588048627723 1.0
C      1  0.2673198722046  0.3347795017366  0.1761882637160 1.0
C      1  0.2675165477119  0.7545422199591  0.2427828516712 1.0
C      1  0.5218857478562  0.5196388760934  0.8735013685046 1.0
C      1  0.5229402816055  0.1505252490847  0.6337027727515 1.0
C      1  0.5218374093161  0.2644452729219  0.2081924910842 1.0
C      1  0.5220836163514  0.7037702348106  0.1855711507853 1.0
C      1  0.5218283360907  0.8613725872795  0.5965203972989 1.0
C      1  0.7069084269478  0.5408172336041  0.3361705428468 1.0
C      1  0.7072676319111  0.6688625799668  0.4876256438824 1.0
C      1  0.7071069124406  0.5641737189905  0.6568403253549 1.0
C      1  0.7072200058328  0.3712403782746  0.6094588293373 1.0
C      1  0.7071946450374  0.3566073456206  0.4110169809555 1.0
C      1  0.3243305219527  0.6527316550005  0.5441472006722 1.0
C      1  0.3245853575482  0.5049201351115  0.6586600279728 1.0
C      1  0.3243563125296  0.3501643124971  0.5538114854132 1.0
C      1  0.3243906884694  0.4025305187937  0.3740837384483 1.0
C      1  0.3241950750825  0.5893202874091  0.3680362105933 1.0
C      1  0.3452993792904  0.7385509262279  0.2196258431891 1.0
C      1  0.3452040691362  0.8406031883378  0.6405404505394 1.0
C      1  0.3452831184507  0.4703547112501  0.8668892631741 1.0
C      1  0.3461954085470  0.1413593488179  0.5860180966873 1.0
C      1  0.3450086129815  0.3078104181556  0.1851857077156 1.0
C      1  0.5377506649460  0.7173530040563  0.3786999572580 1.0
C      1  0.5373672793457  0.6824578802993  0.6696969581195 1.0
C      1  0.5377111661616  0.3948787315812  0.7254504335051 1.0
C      1  0.5375459469705  0.2527535855127  0.4693330657170 1.0
C      1  0.5375263909721  0.4520902059253  0.2550986513808 1.0
C      1  0.5550525940068  0.5376360312815  0.2796492939017 1.0
C      1  0.5550507154232  0.7208126374523  0.4677566478555 1.0
C      1  0.5549028311991  0.5988714973628  0.7004062320582 1.0
C      1  0.5551681822928  0.3399641127487  0.6553981403002 1.0
C      1  0.5549468732023  0.3025388367350  0.3954831096371 1.0
C      1  0.6682251601794  0.5193893459607  0.1137676004522 1.0
C      1  0.6678442234315  0.8727099214789  0.3986417890837 1.0
C      1  0.6674367049803  0.7121741551334  0.8240480587286 1.0
C      1  0.6685820869734  0.2577205101854  0.8005824307897 1.0
C      1  0.6679883628946  0.1408255609885  0.3612333644823 1.0
C      1  0.3748968511576  0.3455387823883  0.6395673870966 1.0
C      1  0.3750299682401  0.3195677641980  0.3961458867297 1.0
C      1  0.3746041123811  0.5426940416619  0.2958207725314 1.0
C      1  0.3748755078539  0.7066634086764  0.4773548667645 1.0
C      1  0.3749817169355  0.5851010581836  0.6895951668210 1.0
C      1  0.4419343949943  0.8336587793084  0.3032586262161 1.0
C      1  0.4415161924696  0.7897905184357  0.7567639412989 1.0
C      1  0.4424105550640  0.3447823466657  0.8549850635613 1.0
C      1  0.4423692250999  0.1144228178208  0.4618450708455 1.0
C      1  0.4419100682779  0.4169377826664  0.1212748095832 1.0
C      1  0.5957618175590  0.1437459494611  0.5791979535960 1.0
C      1  0.5951180190244  0.3137777054401  0.1854513981065 1.0
C      1  0.5951277952756  0.7409662710909  0.2253511132492 1.0
C      1  0.5948431597562  0.8354114672387  0.6445831316008 1.0
C      1  0.5950734647889  0.4662061552068  0.8630873323835 1.0
C      1  0.8606251784154  0.5978550059512  0.3655454647728 1.0
C      1  0.8605591447483  0.6585273704464  0.5514835754894 1.0
C      1  0.8607335835422  0.5005083368419  0.6667560135955 1.0
C      1  0.8607950447561  0.3424508864354  0.5514783309907 1.0
C      1  0.8605503857448  0.4029545133205  0.3657196808033 1.0
C      1  0.1948237083792  0.7605734370412  0.2955936919309 1.0
C      1  0.1949633199339  0.7754643754771  0.6854637962112 1.0
C      1  0.1948272857535  0.4078546084788  0.8182676156222 1.0
C      1  0.1952075018556  0.1681111247819  0.5131409963379 1.0
C      1  0.1944553081962  0.3865717111522  0.1876928731539 1.0
C      1  0.5817912816839  0.7816106348315  0.3132358788761 1.0
C      1  0.5813225404733  0.7646332306248  0.7106143341284 1.0
C      1  0.5819396653406  0.3815278887769  0.8160395226064 1.0
C      1  0.5819246958342  0.1622591844862  0.4842620050459 1.0
C      1  0.5816276588340  0.4098169580560  0.1736469529357 1.0
C      1  0.6497357339892  0.3080739983030  0.3590731714557 1.0
C      1  0.6497289010544  0.5743951074627  0.2733940451611 1.0
C      1  0.6496400777541  0.7384491302832  0.5008418076357 1.0
C      1  0.6496981814375  0.5733443080814  0.7272946800511 1.0
C      1  0.6498946842147  0.3066945246458  0.6393145279729 1.0
C      1  0.5131436016283  0.6206002003185  0.1272412185496 1.0
C      1  0.5129092335808  0.8904372848067  0.4992271275802 1.0
C      1  0.5127416940971  0.6214953971738  0.8719322525149 1.0
C      1  0.5138184705465  0.1836701246483  0.7300007964951 1.0
C      1  0.5128556327279  0.1833643617508  0.2695081651313 1.0
C      1  0.1726026794137  0.3777114260710  0.4048444792144 1.0
C      1  0.1721909273765  0.5529651499887  0.3548348580477 1.0
C      1  0.1723086537605  0.6543256234154  0.5059438672179 1.0
C      1  0.1728095922009  0.5423539344814  0.6489832795662 1.0
C      1  0.1721841985473  0.3717862927757  0.5854007527778 1.0
C      1  0.4562721295708  0.2629011729390  0.5281638829284 1.0
C      1  0.4559853061533  0.3996806771729  0.2828313676046 1.0
C      1  0.4562007240382  0.6747768665530  0.3373130480122 1.0
C      1  0.4560316224979  0.7085600720658  0.6160476614115 1.0
C      1  0.4562270951591  0.4537068560274  0.7339315618586 1.0
C      1  0.2479761977522  0.4162900721906  0.5388848742538 1.0
C      1  0.2479770718974  0.4367945739070  0.4322747075502 1.0
C      1  0.2477982671192  0.5447534356508  0.4189795041084 1.0
C      1  0.2478948621019  0.5906492989709  0.5174740848589 1.0
C      1  0.2480035755642  0.5112358035740  0.5916655222046 1.0
C      1  0.4393098656725  0.1602563637868  0.5632648331671 1.0
C      1  0.4384722833123  0.3347134357808  0.1959344810311 1.0
C      1  0.4386946041141  0.7369663743243  0.2486592301662 1.0
C      1  0.4384570827586  0.8121537522467  0.6478455129452 1.0
C      1  0.4387444648596  0.4552640337212  0.8423365630585 1.0
C      1  0.3649401424194  0.8045054478707  0.4592464634593 1.0
C      1  0.3649675619040  0.6322246413479  0.7773124887161 1.0
C      1  0.3656265453684  0.2766477384459  0.7115574259305 1.0
C      1  0.3653273248111  0.2298037542966  0.3530454183994 1.0
C      1  0.3650395127447  0.5562638766362  0.1970865207723 1.0
C      1  0.4833393639893  0.5806990662328  0.5096795656564 1.0
C      1  0.4834087820414  0.5154706699446  0.5795315757362 1.0
C      1  0.4834278198066  0.4287913794535  0.5390370310615 1.0
C      1  0.4833261293748  0.4405358479329  0.4440858896995 1.0
C      1  0.4833488572501  0.5343570456176  0.4259105316691 1.0
C      1  0.5255885467592  0.1127354505936  0.4213855132262 1.0
C      1  0.5252509273491  0.4545233708007  0.1073064201380 1.0
C      1  0.5251957528269  0.8586169620200  0.3348691641924 1.0
C      1  0.5247559152011  0.7678891729639  0.7905845732850 1.0
C      1  0.5257590949137  0.3062892324401  0.8440930039440 1.0
C      1  0.6734466298256  0.7564417450929  0.7426845920102 1.0
C      1  0.6740727610761  0.3487983446493  0.8181872514606 1.0
C      1  0.6741109917141  0.1514299169650  0.4533086011139 1.0
C      1  0.6738518055325  0.4354674206112  0.1531873585846 1.0
C      1  0.6739236859284  0.8095874736597  0.3307669905421 1.0
C      1  0.7552109904378  0.5003251623462  0.5004587754971 1.0
END
