TITL C-135484-4204-17 -3.94 3375.00 -634.84034596 0 0 79 (C1) n - 1
REM
REM Run started: at 2020.11.27 10:45:38 in /rds/project/t2_vol4/rds-t2-cs072/BORA/CARBON/AIRSS/Generating-Clusters/Str-Search/Higher-Symm/C10-100
REM VASP from code version vasp.5.4.4.18Apr17-6-g9f103f2a35 (build Oct 11 2019 16:45:47) gamma-only
REM
REM
REM
REM
REM ./C.cell (f39ce9773e2efe3fa5bbdf770a4156b8)
REM AIRSS Version 0.9.1 bugfix July 2018 build 013d7b7c2542+ Fri, 06 Jul 2018 19:26:36 +0100
REM compiler GCC version 4.8.5 20150623 (Red Hat 4.8.5-39)
REM options -cpp -mtune=generic -march=x86-64 -g -O0
REM seed 73426824 -1732939742 -1960682047 152944433 -739433178 346976367 942843353 310938462 -1924703028 -1712190050 -2103229921 -1523927353
REM
REM C.POTCAR (d86ddea03c3ceb6dc662c8ad6801f873)
REM 
CELL 1.54180   15.00000   15.00000   15.00000   90.00000   90.00000   90.00000
LATT -1
SFAC C  
C      1  0.2514813692099  0.6582192722128  0.4250715688645 1.0
C      1  0.2681564579937  0.3733123307465  0.4218102933078 1.0
C      1  0.5797065296739  0.2910290127376  0.7149372299064 1.0
C      1  0.5709092406843  0.7065843304677  0.7388183093496 1.0
C      1  0.6762713331219  0.7024891819208  0.3485068237524 1.0
C      1  0.6920221818144  0.2940718605657  0.3677278221651 1.0
C      1  0.7295273940571  0.3017313240227  0.5349199687051 1.0
C      1  0.6989311283694  0.7147382092959  0.5161327099792 1.0
C      1  0.4653545101446  0.3983419814412  0.6768677050589 1.0
C      1  0.4862152066547  0.5804070486384  0.7155900932031 1.0
C      1  0.5681350934158  0.3377996017170  0.2617381698394 1.0
C      1  0.5513570129677  0.6276226599199  0.2679627662022 1.0
C      1  0.3636449244945  0.3832354549615  0.6553771739920 1.0
C      1  0.2872224634638  0.6845962474284  0.6708914998667 1.0
C      1  0.4559748264768  0.7046519398865  0.3956222535668 1.0
C      1  0.4545004573196  0.2542885776668  0.3790107133549 1.0
C      1  0.7225052405382  0.2918151990282  0.4518791051440 1.0
C      1  0.6991736172166  0.7186319601543  0.4327539292980 1.0
C      1  0.5035725728648  0.6155997421947  0.6226475421716 1.0
C      1  0.5255887826736  0.3656350034454  0.6021789237531 1.0
C      1  0.6312163209282  0.6693607495282  0.2863703192511 1.0
C      1  0.6494529609056  0.3152605820897  0.2978730931521 1.0
C      1  0.4219569004502  0.7269572770328  0.4671214701495 1.0
C      1  0.4046957725342  0.2539240075537  0.4453880404643 1.0
C      1  0.5135100837821  0.3851387784870  0.8421675052279 1.0
C      1  0.5199946057551  0.6040109142330  0.8753803147742 1.0
C      1  0.5223449054783  0.6295016775351  0.7856359779441 1.0
C      1  0.5159206073752  0.3543734679965  0.7586611181894 1.0
C      1  0.2264840459485  0.4678126214209  0.5442480569522 1.0
C      1  0.2170875210223  0.5637754016642  0.5465807791693 1.0
C      1  0.3430881069169  0.4649737103167  0.6973310141263 1.0
C      1  0.2809347080315  0.6149228806647  0.7153558217009 1.0
C      1  0.5008367001800  0.4145310543170  0.3835367539754 1.0
C      1  0.5017618593633  0.5523307747062  0.4151574344317 1.0
C      1  0.4839180204732  0.6268529254745  0.3451287485056 1.0
C      1  0.4881855195634  0.3275815352958  0.3262281196025 1.0
C      1  0.5316227402745  0.2573104686966  0.6409674276624 1.0
C      1  0.5148062544693  0.7542095093907  0.6851462145077 1.0
C      1  0.6879211261088  0.3299010108217  0.6150943000063 1.0
C      1  0.6706624618577  0.6813826869998  0.5956249330104 1.0
C      1  0.2914600903637  0.3729744460889  0.3413914399815 1.0
C      1  0.2757123204769  0.6359116992007  0.3479668733192 1.0
C      1  0.3307204397372  0.3389447835637  0.5741811358864 1.0
C      1  0.3055710824570  0.7035786922337  0.5799777634387 1.0
C      1  0.3518526443735  0.4121818356055  0.2825294355693 1.0
C      1  0.3257328400336  0.5853495060124  0.2938159280740 1.0
C      1  0.6094090534776  0.6028864595726  0.6205077070724 1.0
C      1  0.6179629726976  0.4051879597586  0.5895685044555 1.0
C      1  0.2662513907965  0.3872468841994  0.5133805294660 1.0
C      1  0.2478177323830  0.6504352686155  0.5157541898541 1.0
C      1  0.4212737308116  0.5764752698520  0.2748788637577 1.0
C      1  0.4328274419520  0.3725756739008  0.2527643064498 1.0
C      1  0.4796999543898  0.2807704089003  0.5757886670505 1.0
C      1  0.4674210284208  0.7142820763765  0.6203945539975 1.0
C      1  0.6437178480210  0.6754115848684  0.6814468551495 1.0
C      1  0.6710111631272  0.2911278677994  0.6959923533700 1.0
C      1  0.5133950052717  0.3987058844820  0.2078287568598 1.0
C      1  0.5024337781225  0.5658140286805  0.2161599632460 1.0
C      1  0.3928714307101  0.7311904429713  0.5558270523890 1.0
C      1  0.3916160982126  0.2779588348040  0.5346401636384 1.0
C      1  0.5395692769138  0.4862272907226  0.1707387523019 1.0
C      1  0.4442553596124  0.5281924952840  0.4933269826370 1.0
C      1  0.4510709730413  0.5406107554494  0.5824341122222 1.0
C      1  0.5087337573964  0.4394178210214  0.9074691578524 1.0
C      1  0.2196579524865  0.5137671041476  0.6250064604277 1.0
C      1  0.6356938688841  0.5088022661245  0.5990494123245 1.0
C      1  0.3705623574164  0.5016828280335  0.3215501086942 1.0
C      1  0.6225301189483  0.4940956247230  0.1327056356360 1.0
C      1  0.6547542449796  0.4703171113357  0.5222887696240 1.0
C      1  0.7674454669487  0.5000376391183  0.2974191197992 1.0
C      1  0.7041787973189  0.5006475040060  0.1534922116617 1.0
C      1  0.4368581025570  0.4989105019094  0.6797964041726 1.0
C      1  0.5138042107947  0.5276501970692  0.9098355931311 1.0
C      1  0.4263691981238  0.4806023199449  0.4070757396182 1.0
C      1  0.5676193972187  0.4763610122762  0.3974361145194 1.0
C      1  0.7699910317166  0.5017341728922  0.2110519131594 1.0
C      1  0.6620119403661  0.4793686137877  0.4271981587690 1.0
C      1  0.7338163613309  0.4925507959781  0.3755209379024 1.0
C      1  0.2678276735364  0.5227099660131  0.7056993282377 1.0
END
