TITL C-13179-9057-50 -0.939 3375.00 -138.02804352 0 0 18 (Ci) n - 1
REM
REM Run started: at 2020.12.29 13:26:25 in /gpfs/home/chem/mssmkc/CARBON/AIRSS/Generating-Clusters/Str-Search/Higher-Symm/C4-100
REM VASP from code version vasp.5.4.4.18Apr17-6-g9f103f2a35 (build Oct 11 2019 16:45:47) gamma-only
REM
REM
REM
REM
REM ./C.cell (6bd13a13d554368a30d355f37ece5b26)
REM AIRSS Version 0.9.1 bugfix July 2018 build 013d7b7c2542+ Fri, 06 Jul 2018 19:26:36 +0100
REM compiler GCC version 6.3.0
REM options -cpp -iprefix /gpfs/warwick/csc/orac/software/Core/GCCcore/6.3.0/bin/../lib/gcc/x86_64-pc-linux-gnu/6.3.0/ -mtune=generic -march=x86-64 -g -O0
REM seed -1573054219 757045248 2055736487 -538322522 -1847672150 -152043937 -1949287430 1059844169 -2088424642 186076932 -803829741 1336876297
REM
REM C.POTCAR (d86ddea03c3ceb6dc662c8ad6801f873)
REM 
CELL 1.54180   15.00000   15.00000   15.00000   90.00000   90.00000   90.00000
LATT -1
SFAC C  
C      1  0.4816356315777  0.5623172034298  0.3071089843073 1.0
C      1  0.5183643683778  0.4376827930836  0.6928910176404 1.0
C      1  0.4697707868012  0.3874775957298  0.4744016661747 1.0
C      1  0.5302292122846  0.6125224050210  0.5255983373276 1.0
C      1  0.5190564684735  0.3475523047030  0.5448392758767 1.0
C      1  0.4809435302276  0.6524476960357  0.4551607311317 1.0
C      1  0.3969633006671  0.4414059533544  0.5036546747440 1.0
C      1  0.6030367021937  0.5585940455109  0.4963453249134 1.0
C      1  0.4036458445690  0.5474378166616  0.6200845981085 1.0
C      1  0.5963541520791  0.4525621836936  0.3799153990202 1.0
C      1  0.4848852580092  0.5925759228348  0.6077446482383 1.0
C      1  0.5151147429130  0.4074240785947  0.3922553525725 1.0
C      1  0.3575619998165  0.4893868090577  0.5595062580116 1.0
C      1  0.6424379988870  0.5106131904630  0.4404937407895 1.0
C      1  0.5218730156675  0.4821805264260  0.3313367191279 1.0
C      1  0.4781269863222  0.5178194763577  0.6686632804805 1.0
C      1  0.4806231433130  0.6149552727346  0.3762456266418 1.0
C      1  0.5193768578206  0.3850447263080  0.6237543648934 1.0
END
