TITL C-13179-9057-173 -1.591 3375.00 -262.36638054 0 0 32 (D3h) n - 1
REM
REM Run started: at 2020.12.30 13:24:28 in /gpfs/home/chem/mssmkc/CARBON/AIRSS/Generating-Clusters/Str-Search/Higher-Symm/C4-100
REM VASP from code version vasp.5.4.4.18Apr17-6-g9f103f2a35 (build Oct 11 2019 16:45:47) gamma-only
REM
REM
REM
REM
REM ./C.cell (6bd13a13d554368a30d355f37ece5b26)
REM AIRSS Version 0.9.1 bugfix July 2018 build 013d7b7c2542+ Fri, 06 Jul 2018 19:26:36 +0100
REM compiler GCC version 6.3.0
REM options -cpp -iprefix /gpfs/warwick/csc/orac/software/Core/GCCcore/6.3.0/bin/../lib/gcc/x86_64-pc-linux-gnu/6.3.0/ -mtune=generic -march=x86-64 -g -O0
REM seed -1602342647 -69375300 507000013 2116791432 -234326940 967918569 -1251555806 -1817239979 647964272 -1823713809 -341078620 1730500072
REM
REM C.POTCAR (d86ddea03c3ceb6dc662c8ad6801f873)
REM 
CELL 1.54180   15.00000   15.00000   15.00000   90.00000   90.00000   90.00000
LATT -1
SFAC C  
C      1  0.3947168112905  0.3622492325414  0.4469053317254 1.0
C      1  0.6738193065878  0.4782910845844  0.4468962324171 1.0
C      1  0.4347085863924  0.6615351909884  0.4469915807551 1.0
C      1  0.3946777756729  0.3621761885509  0.5429714800766 1.0
C      1  0.6739179177178  0.4782789838691  0.5429275630092 1.0
C      1  0.4346794397876  0.6616405508229  0.5429941931884 1.0
C      1  0.4878131083228  0.3267362321489  0.5428983545500 1.0
C      1  0.6584468456561  0.5766822879843  0.5429380327215 1.0
C      1  0.3572484659840  0.5989401672054  0.5430032222537 1.0
C      1  0.4878161888013  0.3268206370625  0.4469358744491 1.0
C      1  0.6583140677618  0.5766577665680  0.4468579294925 1.0
C      1  0.3573083726366  0.5988646351742  0.4469945713248 1.0
C      1  0.5076002255866  0.6510135796416  0.6001806800620 1.0
C      1  0.3677081371513  0.4310387604025  0.5999488364440 1.0
C      1  0.6280328606237  0.4202173158981  0.5998244186399 1.0
C      1  0.5075145781174  0.6509824227792  0.3895370479308 1.0
C      1  0.3678054719749  0.4310704103889  0.3897489217694 1.0
C      1  0.6279818627003  0.4202899501449  0.3898020279903 1.0
C      1  0.4104172112702  0.4860891948863  0.3259124026653 1.0
C      1  0.5590172231622  0.4293171835639  0.3260017644397 1.0
C      1  0.5338247623823  0.5862680656172  0.3259546905398 1.0
C      1  0.4103864602861  0.4860310512402  0.6637167475818 1.0
C      1  0.5590138474351  0.4292843909975  0.6635239278992 1.0
C      1  0.5338733810825  0.5862401831545  0.6636376253931 1.0
C      1  0.5965644707909  0.6169477160352  0.3895148527860 1.0
C      1  0.3528066867223  0.5252599482762  0.3896860402547 1.0
C      1  0.5540144614147  0.3599090222698  0.3897946589107 1.0
C      1  0.5966371684593  0.6169698290821  0.6001214135819 1.0
C      1  0.3527259728672  0.5252289985244  0.6000529625402 1.0
C      1  0.5540863917172  0.3598395961244  0.5997976777821 1.0
C      1  0.5011048211038  0.5005415900676  0.3012158276488 1.0
C      1  0.5011061185404  0.5005086334051  0.6880828091768 1.0
END
