TITL C-13650-7649-26 -3.781 3375.00 -653.65665513 0 0 79 (C1) n - 1
REM
REM Run started: at 2021.01.04 13:31:09 in /gpfs/home/chem/mssmkc/CARBON/AIRSS/Generating-Clusters/Str-Search/Higher-Symm/C4-100
REM VASP from code version vasp.5.4.4.18Apr17-6-g9f103f2a35 (build Oct 11 2019 16:45:47) gamma-only
REM
REM
REM
REM
REM ./C.cell (6bd13a13d554368a30d355f37ece5b26)
REM AIRSS Version 0.9.1 bugfix July 2018 build 013d7b7c2542+ Fri, 06 Jul 2018 19:26:36 +0100
REM compiler GCC version 6.3.0
REM options -cpp -iprefix /gpfs/warwick/csc/orac/software/Core/GCCcore/6.3.0/bin/../lib/gcc/x86_64-pc-linux-gnu/6.3.0/ -mtune=generic -march=x86-64 -g -O0
REM seed -1929578095 -207964018 -1298186546 -1690675733 -1034206240 -1898029649 2121857396 -2091027332 -1858208603 -1001224687 1210673092 -1566689717
REM
REM C.POTCAR (d86ddea03c3ceb6dc662c8ad6801f873)
REM 
CELL 1.54180   15.00000   15.00000   15.00000   90.00000   90.00000   90.00000
LATT -1
SFAC C  
C      1  0.5175502477421  0.5410743683739  0.3727662122995 1.0
C      1  0.5200104311772  0.4412022816353  0.3723442247756 1.0
C      1  0.5099956799857  0.4245491540719  0.5255612459439 1.0
C      1  0.4982245655509  0.5809057202090  0.5289739138193 1.0
C      1  0.6222086255988  0.2821206821094  0.5904600457575 1.0
C      1  0.6054540465420  0.7125539314001  0.5860295203563 1.0
C      1  0.3138015487063  0.4485758855286  0.3321109660772 1.0
C      1  0.3208570341181  0.5493698749936  0.3332106574414 1.0
C      1  0.3764480040651  0.4058244051269  0.2730068777376 1.0
C      1  0.3771422441052  0.5900807349798  0.2636487011073 1.0
C      1  0.2083990430518  0.6271531699890  0.4490795561693 1.0
C      1  0.2337368057112  0.4127267894639  0.4688182680914 1.0
C      1  0.1731373748333  0.4683132264772  0.4878802752242 1.0
C      1  0.1755986058641  0.5575093016281  0.4815874829132 1.0
C      1  0.5724519231307  0.6728523115609  0.6655309058488 1.0
C      1  0.5850829210288  0.3238709298495  0.6674053565853 1.0
C      1  0.7372767823367  0.4030759119217  0.5712964550171 1.0
C      1  0.7372447908802  0.5936864978961  0.5726575041246 1.0
C      1  0.4944210735181  0.6843368781115  0.2966345457574 1.0
C      1  0.4965259063316  0.3060620874736  0.3051597874511 1.0
C      1  0.6095778747363  0.5487568546832  0.3271970143503 1.0
C      1  0.6124466997789  0.4376424986058  0.3275653240469 1.0
C      1  0.5290421204806  0.5903746216124  0.2788718623711 1.0
C      1  0.5318828079243  0.3964873156168  0.2777152137457 1.0
C      1  0.6358132197507  0.4020442155498  0.7038739730312 1.0
C      1  0.6305606215520  0.5965405083272  0.7012934150473 1.0
C      1  0.4950852922807  0.5453758875667  0.7774373486814 1.0
C      1  0.4987099598781  0.4530386740086  0.7763906905146 1.0
C      1  0.4405080564812  0.2544353237621  0.4482313723563 1.0
C      1  0.4257069091411  0.7493848836506  0.4269361388278 1.0
C      1  0.5838166856399  0.7326744145202  0.4326479800347 1.0
C      1  0.5965423113208  0.2536972311453  0.4394831218696 1.0
C      1  0.6816204246581  0.5989229073654  0.3766187217142 1.0
C      1  0.6855038764010  0.3915723918860  0.3831285176353 1.0
C      1  0.4046336152079  0.3253970875922  0.3131113894897 1.0
C      1  0.3996642970688  0.6772287931376  0.2911988157379 1.0
C      1  0.3478367000636  0.4465335050335  0.7044559307272 1.0
C      1  0.3436656731905  0.5409655403078  0.7042623079858 1.0
C      1  0.5502598460772  0.7522912710601  0.5222948841046 1.0
C      1  0.5668565765069  0.2350343282316  0.5298011833872 1.0
C      1  0.4492976852504  0.4087843295219  0.7042909508062 1.0
C      1  0.4412864889814  0.5849583067627  0.7046876796691 1.0
C      1  0.3293278512397  0.6793001600061  0.6194345308976 1.0
C      1  0.3417885282723  0.3042948243849  0.6249574783275 1.0
C      1  0.4553179276101  0.5416750908612  0.2324558717147 1.0
C      1  0.4548542273825  0.4485975771264  0.2360528609335 1.0
C      1  0.4718524796891  0.3964300927656  0.4449857274431 1.0
C      1  0.4577063789399  0.5749697723916  0.4435434516983 1.0
C      1  0.4759336418750  0.6766581438251  0.6740194690660 1.0
C      1  0.4883162881933  0.3174585484053  0.6791405880996 1.0
C      1  0.3093832608136  0.3709572829109  0.6637746565059 1.0
C      1  0.3002187690205  0.6129560534360  0.6614792289058 1.0
C      1  0.3852859017976  0.3314615586376  0.4117592641564 1.0
C      1  0.3559572392597  0.7084430036624  0.3741334831726 1.0
C      1  0.4158736142147  0.7180266388945  0.6053514118726 1.0
C      1  0.4310734543203  0.2706946694456  0.6161483660305 1.0
C      1  0.6645877384808  0.6500844700286  0.5340311961089 1.0
C      1  0.6927509176043  0.3252637468897  0.5389688548659 1.0
C      1  0.4711845009710  0.2349631253233  0.5370299889064 1.0
C      1  0.4534430207793  0.7536899482905  0.5233559124627 1.0
C      1  0.7806927655204  0.5476554352956  0.5045995468260 1.0
C      1  0.7825114526065  0.4517970123084  0.5041309602620 1.0
C      1  0.7501372642097  0.5476073931210  0.4099053125545 1.0
C      1  0.7532377725618  0.4485843029334  0.4112334244900 1.0
C      1  0.5089924451676  0.7350130486285  0.3749861758130 1.0
C      1  0.5190376412276  0.2585400708111  0.3857646772942 1.0
C      1  0.7031372261918  0.5481473997751  0.6511205656312 1.0
C      1  0.7031734882520  0.4501207554079  0.6501178048573 1.0
C      1  0.4710342945781  0.4534455409537  0.6129555728197 1.0
C      1  0.4639017212937  0.5413644416522  0.6134404087826 1.0
C      1  0.6558120526531  0.6732187980768  0.4358229919960 1.0
C      1  0.6695281725967  0.3162121603735  0.4437771308353 1.0
C      1  0.5944134883136  0.5722489543148  0.5251206247710 1.0
C      1  0.5842089102503  0.4851714602023  0.5145603383648 1.0
C      1  0.3015559480688  0.3911021904476  0.4109214540447 1.0
C      1  0.2939413326692  0.6323496670204  0.4034349105572 1.0
C      1  0.5939200472005  0.5478013654995  0.7693139062849 1.0
C      1  0.5971706331787  0.4509645203181  0.7717701059506 1.0
C      1  0.3690352063478  0.5707758428271  0.4217393080648 1.0
END
