TITL C-137498-3741-3 -8.174 3375.00 -1450.65109149 0 0 180 (C6h) n - 1
REM
REM Run started: at 2020.12.23 06:56:00 in /rds/project/t2_vol4/rds-t2-cs072/BORA/CARBON/AIRSS/Generating-Clusters/Str-Search/Higher-Symm/Only-C180
REM VASP from code version vasp.5.4.4.18Apr17-6-g9f103f2a35 (build Oct 11 2019 16:45:47) gamma-only
REM
REM
REM
REM
REM ./C.cell (f712cfaf3acf65fd2d5dcba0fd1fd40b)
REM AIRSS Version 0.9.1 bugfix July 2018 build 013d7b7c2542+ Fri, 06 Jul 2018 19:26:36 +0100
REM compiler GCC version 4.8.5 20150623 (Red Hat 4.8.5-39)
REM options -cpp -mtune=generic -march=x86-64 -g -O0
REM seed -2004097787 -1329416154 1105669740 226023653 2071654661 -1457947037 855169971 -1073887203 899503669 -1234131509 583733795 -789977142
REM
REM C.POTCAR (d86ddea03c3ceb6dc662c8ad6801f873)
REM 
CELL 1.54180   15.00000   15.00000   15.00000   90.00000   90.00000   90.00000
LATT -1
SFAC C  
C      1  0.8926337575548  0.5959057615228  0.4786492942510 1.0
C      1  0.8926146010231  0.5665091829431  0.5725356359206 1.0
C      1  0.8926723079481  0.4705295560625  0.5938469511823 1.0
C      1  0.8926336885185  0.4040944922894  0.5213503140244 1.0
C      1  0.8926142323373  0.4334912186985  0.4274642058893 1.0
C      1  0.8926721497219  0.5294708106011  0.4061528562445 1.0
C      1  0.1073663073590  0.5959055077510  0.4786496799522 1.0
C      1  0.1073857632664  0.5665087842256  0.5725357886538 1.0
C      1  0.1073278492707  0.4705291951038  0.5938471432972 1.0
C      1  0.1073662382249  0.4040942385284  0.5213507089679 1.0
C      1  0.1073853958805  0.4334908145337  0.4274643652669 1.0
C      1  0.1073276861414  0.5294704401381  0.4061530464605 1.0
C      1  0.2230723319245  0.3434990767560  0.3329421312603 1.0
C      1  0.2231145054212  0.5661965711711  0.2810664597543 1.0
C      1  0.2231613191079  0.7226116113928  0.4481496513260 1.0
C      1  0.2230723794840  0.6565008358760  0.6670578217567 1.0
C      1  0.2231146287035  0.4338031916968  0.7189337274498 1.0
C      1  0.2231613232104  0.2773881031973  0.5518503367458 1.0
C      1  0.7769276194766  0.3434991588157  0.3329421763368 1.0
C      1  0.7768853686416  0.5661968026827  0.2810662733095 1.0
C      1  0.7768386774981  0.7226118990099  0.4481496645634 1.0
C      1  0.7769276693260  0.6565009284667  0.6670578717414 1.0
C      1  0.7768854897800  0.4338034314748  0.7189335392670 1.0
C      1  0.7768386807820  0.2773883863997  0.5518503494204 1.0
C      1  0.4450123438771  0.4588974838506  0.7881555185793 1.0
C      1  0.4450349295988  0.2299254535858  0.6083558174167 1.0
C      1  0.4450307640479  0.2710718404312  0.3200914550683 1.0
C      1  0.4450120708690  0.5411025189215  0.2118445202812 1.0
C      1  0.4450347305466  0.7700744607756  0.3916444502707 1.0
C      1  0.4450307993681  0.7289279337103  0.6799087230302 1.0
C      1  0.5549879297276  0.4588974713762  0.7881554736763 1.0
C      1  0.5549652694429  0.2299255410538  0.6083555525624 1.0
C      1  0.5549692021457  0.2710720813295  0.3200912689895 1.0
C      1  0.5549876564399  0.5411025185534  0.2118444849931 1.0
C      1  0.5549650727502  0.7700745454253  0.3916441773706 1.0
C      1  0.5549692364720  0.7289281573785  0.6799085512928 1.0
C      1  0.3935109923714  0.7603370947239  0.7610923961832 1.0
C      1  0.3934078685757  0.4046716758080  0.8561766436613 1.0
C      1  0.3934744012809  0.1439768050480  0.5950062942143 1.0
C      1  0.3935109573992  0.2396631255360  0.2389075819450 1.0
C      1  0.3934073915669  0.5953292434664  0.1438242828036 1.0
C      1  0.3934741715653  0.8560229284353  0.4049938284214 1.0
C      1  0.6064890448907  0.7603368833809  0.7610924165882 1.0
C      1  0.6065926052544  0.4046707547542  0.8561757226131 1.0
C      1  0.6065258286262  0.1439770735263  0.5950061743959 1.0
C      1  0.6064890114686  0.2396628970590  0.2389076079843 1.0
C      1  0.6065921304487  0.5953283266395  0.1438233578470 1.0
C      1  0.6065256002289  0.8560231967150  0.4049937079768 1.0
C      1  0.5415295184753  0.2001100554237  0.7644559949127 1.0
C      1  0.5415345999408  0.1210193855614  0.3722680335565 1.0
C      1  0.5415322913238  0.4210137334764  0.1079967104904 1.0
C      1  0.5415292685523  0.7998900569213  0.2355440312475 1.0
C      1  0.5415346947571  0.8789805051395  0.6277321323465 1.0
C      1  0.5415326217128  0.5789862402752  0.8920034418021 1.0
C      1  0.4584707314817  0.2001099432311  0.7644559704375 1.0
C      1  0.4584653041049  0.1210194967319  0.3722678688094 1.0
C      1  0.4584673711624  0.4210137532149  0.1079965592835 1.0
C      1  0.4584704812842  0.7998899430429  0.2355440077222 1.0
C      1  0.4584653989304  0.8789806136560  0.6277319752881 1.0
C      1  0.4584677019637  0.5789862660066  0.8920032869547 1.0
C      1  0.4560324822939  0.4021286806640  0.2623384934258 1.0
C      1  0.4560229429324  0.6568761890239  0.2962239096992 1.0
C      1  0.4560089642499  0.7549164185560  0.5341169047447 1.0
C      1  0.4560326558028  0.5978714366798  0.7376616384125 1.0
C      1  0.4560229678593  0.3431238516202  0.7037762673928 1.0
C      1  0.4560086735224  0.2450835277065  0.4658832869341 1.0
C      1  0.5439673413965  0.4021285584896  0.2623383567128 1.0
C      1  0.5439770286800  0.6568761494212  0.2962237294316 1.0
C      1  0.5439913241350  0.7549164697988  0.5341167133442 1.0
C      1  0.5439675240095  0.5978713278637  0.7376615141590 1.0
C      1  0.5439770561553  0.3431238083367  0.7037760898537 1.0
C      1  0.5439910309950  0.2450835769970  0.4658830939456 1.0
C      1  0.3110430908978  0.2888451743390  0.6800797522496 1.0
C      1  0.3110726806758  0.2383423689923  0.4069129532661 1.0
C      1  0.3110595666038  0.4495593543324  0.2270317381016 1.0
C      1  0.3110429593626  0.7111546547727  0.3199202681869 1.0
C      1  0.3110726955613  0.7616576722600  0.5930869440870 1.0
C      1  0.3110598470388  0.5504407030888  0.7729682795842 1.0
C      1  0.6889570411404  0.2888453450129  0.6800797371055 1.0
C      1  0.6889273041070  0.2383423227976  0.4069130620133 1.0
C      1  0.6889401528765  0.4495592981000  0.2270317142839 1.0
C      1  0.6889569119731  0.7111548270559  0.3199202450221 1.0
C      1  0.6889273220538  0.7616576360853  0.5930870410493 1.0
C      1  0.6889404312730  0.5504406407235  0.7729682624985 1.0
C      1  0.6883812885517  0.1497810837297  0.6096518261328 1.0
C      1  0.6883352958775  0.2299005380196  0.2513263411023 1.0
C      1  0.6884905778840  0.5798257434456  0.1415594192505 1.0
C      1  0.6883811140345  0.8502190680327  0.3903482528986 1.0
C      1  0.6883353307048  0.7700992055446  0.7486739434475 1.0
C      1  0.6884907105745  0.4201741561180  0.8584404070734 1.0
C      1  0.3116188859610  0.1497809317343  0.6096517496827 1.0
C      1  0.3116646703208  0.2299008102224  0.2513260475497 1.0
C      1  0.3115092878554  0.5798258361734  0.1415595942696 1.0
C      1  0.3116187120189  0.8502189152190  0.3903481776636 1.0
C      1  0.3116647057276  0.7700994427003  0.7486736710481 1.0
C      1  0.3115094214244  0.4201742608054  0.8584405758611 1.0
C      1  0.1496163020135  0.6745999777785  0.4568715709552 1.0
C      1  0.1495482155628  0.6245672354577  0.6300533278239 1.0
C      1  0.1495604311302  0.4497769714549  0.6728591737956 1.0
C      1  0.1496161129293  0.3253995247470  0.5431286918576 1.0
C      1  0.1495480734492  0.3754322543419  0.3699470044721 1.0
C      1  0.1495604472088  0.5502224553859  0.3271410575974 1.0
C      1  0.8503838859149  0.6746004755761  0.4568713094275 1.0
C      1  0.8504519286902  0.6245677458125  0.6300530003868 1.0
C      1  0.8504395503337  0.4497775407487  0.6728589420012 1.0
C      1  0.8503837000357  0.3254000178342  0.5431284242022 1.0
C      1  0.8504517850947  0.3754327651108  0.3699466637139 1.0
C      1  0.8504395726568  0.5502230409987  0.3271408240204 1.0
C      1  0.6939892165265  0.6062330375164  0.3335067492039 1.0
C      1  0.6939880513057  0.6972792790630  0.5089390731814 1.0
C      1  0.6939782581431  0.5911045908551  0.6752292656289 1.0
C      1  0.6939892970508  0.3937670320992  0.6664930971177 1.0
C      1  0.6939880186351  0.3027208332850  0.4910606539257 1.0
C      1  0.6939781323007  0.4088952998641  0.3247706584036 1.0
C      1  0.3060107034857  0.6062329699663  0.3335069066909 1.0
C      1  0.3060119836821  0.6972791640823  0.5089393473094 1.0
C      1  0.3060218737894  0.5911046929740  0.6752293388478 1.0
C      1  0.3060107842299  0.3937669608144  0.6664932468251 1.0
C      1  0.3060119527402  0.3027207234816  0.4910609260111 1.0
C      1  0.3060217466355  0.4088954190978  0.3247707355820 1.0
C      1  0.4065711194127  0.5552608230652  0.8095948242581 1.0
C      1  0.4065498296872  0.2595798524857  0.7025829795756 1.0
C      1  0.4066121095606  0.2043362165655  0.3927909576508 1.0
C      1  0.4065708953533  0.4447394348512  0.1904051100613 1.0
C      1  0.4065497166222  0.7404200586180  0.2974172269978 1.0
C      1  0.4066121704963  0.7956639825876  0.6072091583495 1.0
C      1  0.5934291012003  0.5552605646295  0.8095948860962 1.0
C      1  0.5934502814446  0.2595799411873  0.7025827734000 1.0
C      1  0.5933878281798  0.2043360160443  0.3927908499891 1.0
C      1  0.5934288756057  0.4447391707610  0.1904051776120 1.0
C      1  0.5934501688088  0.7404201470014  0.2974170247182 1.0
C      1  0.5933878910908  0.7956637891369  0.6072090294331 1.0
C      1  0.4484786639095  0.3949465966216  0.5234750892193 1.0
C      1  0.4484895120934  0.4271708476656  0.4209205164511 1.0
C      1  0.4484934818808  0.5321694708038  0.3974267624318 1.0
C      1  0.4484786484080  0.6050532470776  0.4765252533296 1.0
C      1  0.4484896963391  0.5728290906199  0.5790796155008 1.0
C      1  0.4484935476467  0.4678305413592  0.6025734237206 1.0
C      1  0.5515213527593  0.3949467543159  0.5234747451047 1.0
C      1  0.5515103065564  0.4271709100666  0.4209203825814 1.0
C      1  0.5515064521884  0.5321694553444  0.3974265708761 1.0
C      1  0.5515213377658  0.6050533995518  0.4765249077938 1.0
C      1  0.5515104902304  0.5728291553543  0.5790794849369 1.0
C      1  0.5515065178062  0.4678305327892  0.6025732393836 1.0
C      1  0.2920316341798  0.4063083194881  0.4888589453877 1.0
C      1  0.2919651462618  0.4627573402510  0.4132142320924 1.0
C      1  0.2920029717807  0.5565126605398  0.4243151274744 1.0
C      1  0.2920316120864  0.5936915412375  0.5111412096853 1.0
C      1  0.2919652363865  0.5372426167822  0.5867859011762 1.0
C      1  0.2920030134754  0.4434872360314  0.5756849899788 1.0
C      1  0.7079683884749  0.4063084601095  0.4888587893234 1.0
C      1  0.7080347687490  0.4627573838275  0.4132140957977 1.0
C      1  0.7079969869767  0.5565127653573  0.4243150091549 1.0
C      1  0.7079683670697  0.5936916819905  0.5111410558441 1.0
C      1  0.7080348586026  0.5372426631942  0.5867857699969 1.0
C      1  0.7079970318275  0.4434873412004  0.5756848730118 1.0
C      1  0.7378774860613  0.4756773543062  0.7992357690215 1.0
C      1  0.7378173444849  0.2287240709432  0.6282662097621 1.0
C      1  0.7379102024771  0.2529547058698  0.3289905455246 1.0
C      1  0.7378773988725  0.5243226923001  0.2007641437847 1.0
C      1  0.7378171552173  0.7712761592727  0.3717337877862 1.0
C      1  0.7379101280533  0.7470452801457  0.6710095948042 1.0
C      1  0.2621225988606  0.4756773046755  0.7992358509215 1.0
C      1  0.2621828454808  0.2287238417656  0.6282662128825 1.0
C      1  0.2620898742286  0.2529547291648  0.3289904004943 1.0
C      1  0.2621225166300  0.5243226414282  0.2007642388602 1.0
C      1  0.2621826537410  0.7712759308573  0.3717337929452 1.0
C      1  0.2620897991384  0.7470452825277  0.6710094614505 1.0
C      1  0.5927965845910  0.2982819391826  0.5309779118018 1.0
C      1  0.5927752448655  0.3723291656479  0.3409484135391 1.0
C      1  0.5927531919570  0.5739339883984  0.3098714089657 1.0
C      1  0.5927966021330  0.7017182760348  0.4690220716334 1.0
C      1  0.5927752873216  0.6276707326653  0.6590516912784 1.0
C      1  0.5927533069083  0.4260659529074  0.6901284042250 1.0
C      1  0.4072033955687  0.2982817196124  0.5309779247214 1.0
C      1  0.4072247140435  0.3723292758850  0.3409483079995 1.0
C      1  0.4072466921339  0.5739340452372  0.3098715925416 1.0
C      1  0.4072034120307  0.7017180614638  0.4690220895531 1.0
C      1  0.4072247622372  0.6276708338375  0.6590515927614 1.0
C      1  0.4072468087164  0.4260660110467  0.6901285898235 1.0
END
