TITL C-13179-9057-191 -2.094 3375.00 -344.38260504 0 0 43 (C1) n - 1
REM
REM Run started: at 2020.12.30 17:52:44 in /gpfs/home/chem/mssmkc/CARBON/AIRSS/Generating-Clusters/Str-Search/Higher-Symm/C4-100
REM VASP from code version vasp.5.4.4.18Apr17-6-g9f103f2a35 (build Oct 11 2019 16:45:47) gamma-only
REM
REM
REM
REM
REM ./C.cell (6bd13a13d554368a30d355f37ece5b26)
REM AIRSS Version 0.9.1 bugfix July 2018 build 013d7b7c2542+ Fri, 06 Jul 2018 19:26:36 +0100
REM compiler GCC version 6.3.0
REM options -cpp -iprefix /gpfs/warwick/csc/orac/software/Core/GCCcore/6.3.0/bin/../lib/gcc/x86_64-pc-linux-gnu/6.3.0/ -mtune=generic -march=x86-64 -g -O0
REM seed -750767280 -1774634880 1658463929 -1935615141 -952263437 -1466420983 -267047859 1138230424 -275456606 -1707564980 -10208208 -1507282895
REM
REM C.POTCAR (d86ddea03c3ceb6dc662c8ad6801f873)
REM 
CELL 1.54180   15.00000   15.00000   15.00000   90.00000   90.00000   90.00000
LATT -1
SFAC C  
C      1  0.4551892371159  0.6573097819894  0.6549028126808 1.0
C      1  0.7628912439430  0.4151062913099  0.5555782167815 1.0
C      1  0.3870888597863  0.6686353082895  0.4372518632006 1.0
C      1  0.5100423605067  0.4546997905955  0.6803357532594 1.0
C      1  0.5739449218413  0.5356834621467  0.3807971053216 1.0
C      1  0.4738497659786  0.4172136280995  0.3182137625650 1.0
C      1  0.3562183697347  0.4700116903882  0.5855151076617 1.0
C      1  0.3468722889310  0.5004922418505  0.3984620196383 1.0
C      1  0.7725684515712  0.4645435839122  0.4036491070285 1.0
C      1  0.3981050599332  0.3401264290835  0.4346906935176 1.0
C      1  0.3121429980883  0.7385424239589  0.6241415852470 1.0
C      1  0.5475526859795  0.3009171540172  0.5281739616264 1.0
C      1  0.4868225161438  0.5713262132093  0.3442553008284 1.0
C      1  0.6935178623853  0.4236293639941  0.3799777213099 1.0
C      1  0.4241758885515  0.7287840658097  0.5099374786752 1.0
C      1  0.5579949327314  0.4215057239612  0.2801798861064 1.0
C      1  0.5036861081118  0.6129726518924  0.7190894358563 1.0
C      1  0.5329076466278  0.3672622594117  0.6436664012570 1.0
C      1  0.3288697282461  0.5875896892514  0.4533995599699 1.0
C      1  0.3280590866991  0.3968759140780  0.5348015555067 1.0
C      1  0.8117119002561  0.4585425592028  0.4999896671222 1.0
C      1  0.3912676422499  0.3241899632591  0.5319311908990 1.0
C      1  0.2642581142144  0.6887652357932  0.5736263941630 1.0
C      1  0.5618390010079  0.3274089872653  0.4397106598261 1.0
C      1  0.2653271387500  0.6081242630958  0.5315375413894 1.0
C      1  0.4694811283329  0.3141756835250  0.5810845438286 1.0
C      1  0.6208624792014  0.4668035004361  0.3273361306444 1.0
C      1  0.6512737284326  0.3675764979416  0.4445566395238 1.0
C      1  0.8473663940203  0.5078814201928  0.4287223106873 1.0
C      1  0.3323458780763  0.4148700968455  0.4385267505909 1.0
C      1  0.4058458531880  0.7277698556404  0.6037277888613 1.0
C      1  0.4784455350491  0.3504260098956  0.3899319086404 1.0
C      1  0.4640688328796  0.6541054525511  0.3821269501410 1.0
C      1  0.4217616966880  0.4991834741002  0.3371885792150 1.0
C      1  0.4377344619349  0.4877870061516  0.6260507286735 1.0
C      1  0.5342264627029  0.5318514235568  0.7292250881906 1.0
C      1  0.6108331477173  0.3363681310063  0.5930822057533 1.0
C      1  0.5720693244278  0.5408536600314  0.4719865190978 1.0
C      1  0.3467892307005  0.5601348839677  0.5527705653228 1.0
C      1  0.4967307809532  0.6775908153276  0.4717637408632 1.0
C      1  0.4445137515267  0.5793908792087  0.5885232418478 1.0
C      1  0.6822574825835  0.3722289156984  0.5411122114849 1.0
C      1  0.5172544222002  0.5958787180582  0.5194280151953 1.0
END
