TITL C-13527-1983-28 -8.2 3375.00 -1485.84759532 0 0 180 (C1) n - 1
REM
REM Run started: at 2021.01.01 02:57:42 in /gpfs/home/chem/mssmkc/CARBON/AIRSS/Generating-Clusters/Str-Search/Higher-Symm/C100-200
REM VASP from code version vasp.5.4.4.18Apr17-6-g9f103f2a35 (build Oct 11 2019 16:45:47) gamma-only
REM
REM
REM
REM
REM ./C.cell (533062f00bc710175b3da973d35f2034)
REM AIRSS Version 0.9.1 bugfix July 2018 build 013d7b7c2542+ Fri, 06 Jul 2018 19:26:36 +0100
REM compiler GCC version 6.3.0
REM options -cpp -iprefix /gpfs/warwick/csc/orac/software/Core/GCCcore/6.3.0/bin/../lib/gcc/x86_64-pc-linux-gnu/6.3.0/ -mtune=generic -march=x86-64 -g -O0
REM seed 1536483752 285949936 -1963269264 -798475994 282315614 1536943116 -1068730965 1917144676 1974845899 796388347 771502411 1145492560
REM
REM C.POTCAR (d86ddea03c3ceb6dc662c8ad6801f873)
REM 
CELL 1.54180   15.00000   15.00000   15.00000   90.00000   90.00000   90.00000
LATT -1
SFAC C  
C      1  0.8234461564658  0.4478907376898  0.2529542849469 1.0
C      1  0.6464924819424  0.4243354337394  0.1396790047161 1.0
C      1  0.4448647390837  0.4076235369083  0.1208718682739 1.0
C      1  0.2315708967725  0.3810797996960  0.2380306688855 1.0
C      1  0.1420797506253  0.3859792829130  0.4047480842193 1.0
C      1  0.1714624507418  0.3690784373139  0.6599446031980 1.0
C      1  0.2647550075023  0.3971925153118  0.8119848172213 1.0
C      1  0.4510506562956  0.4123014252102  0.8606529162555 1.0
C      1  0.7041744756232  0.4836609674966  0.8309273353903 1.0
C      1  0.8333356358517  0.5190551887357  0.7028906245508 1.0
C      1  0.8937158478508  0.4900613689202  0.4950805909056 1.0
C      1  0.7982117461152  0.4779087695289  0.7969889106154 1.0
C      1  0.9748902188091  0.4492356329300  0.5248866609648 1.0
C      1  0.9135452195624  0.4227066305033  0.2927623979646 1.0
C      1  0.7766776732335  0.4145260550518  0.1693365940630 1.0
C      1  0.5138776175147  0.3776787378113  0.0645646623642 1.0
C      1  0.2580656633434  0.3461905074559  0.1471623025890 1.0
C      1  0.1573181166375  0.3470096651996  0.2966466102393 1.0
C      1  0.0983562352540  0.3619344809163  0.5938636801365 1.0
C      1  0.1838985621524  0.3489856974565  0.7558929934323 1.0
C      1  0.3961599318745  0.3636429203628  0.9290237857831 1.0
C      1  0.6826129153468  0.4388692695357  0.9147575981915 1.0
C      1  0.6784566609896  0.4372886021535  0.0095475943089 1.0
C      1  0.8626341501517  0.5496955604777  0.7906565708376 1.0
C      1  0.1083823729562  0.5348552558326  0.5773661936446 1.0
C      1  0.0008482070604  0.4261368841065  0.3049820114647 1.0
C      1  0.7325419425771  0.4556410995799  0.0905077560803 1.0
C      1  0.6022460433636  0.4071964055841  0.0537214887219 1.0
C      1  0.2831091240504  0.3614931948358  0.0595027433840 1.0
C      1  0.0775673885573  0.3945223283797  0.3300882805827 1.0
C      1  0.0601812306912  0.4475709815646  0.5590364457082 1.0
C      1  0.1696559432381  0.4094147599807  0.8303317154278 1.0
C      1  0.3269510210684  0.3624588669142  0.9892364459139 1.0
C      1  0.2332415174686  0.6834548926866  0.6296011135464 1.0
C      1  0.3888919468829  0.7083982871866  0.7526120910371 1.0
C      1  0.4700250073272  0.7474565784125  0.7810582168019 1.0
C      1  0.6107105613789  0.7877088993412  0.6419768041115 1.0
C      1  0.5696592460418  0.8741070856246  0.5922676972750 1.0
C      1  0.5793927647792  0.9514064878907  0.3451683234989 1.0
C      1  0.4911392671413  0.9096885141715  0.3388025951467 1.0
C      1  0.3328012749324  0.7989847712200  0.1889415830593 1.0
C      1  0.3199300481114  0.7185062375272  0.2384720240973 1.0
C      1  0.2353972756239  0.7361510133108  0.4821905591568 1.0
C      1  0.1912314352222  0.6766186358982  0.5421463274671 1.0
C      1  0.3568232046558  0.6258463932088  0.2508451955893 1.0
C      1  0.2299685451513  0.6130796085246  0.3661418819236 1.0
C      1  0.1419205872472  0.5985380913814  0.5115142268463 1.0
C      1  0.2352874406368  0.6013780284461  0.6758396902501 1.0
C      1  0.4044923911910  0.6140109774275  0.7316847506471 1.0
C      1  0.5370143928684  0.6836479158328  0.8004907889962 1.0
C      1  0.6693468976854  0.7166791548825  0.6907071947398 1.0
C      1  0.7293426539785  0.6893214831344  0.5354513381973 1.0
C      1  0.7349175018871  0.6633069389269  0.3829979503485 1.0
C      1  0.6561952155365  0.6458786756403  0.2525255709914 1.0
C      1  0.5109306954357  0.6301522227096  0.1993506269613 1.0
C      1  0.6475675922356  0.7050064314932  0.3991302551991 1.0
C      1  0.5985836095422  0.6984543368356  0.3147930851564 1.0
C      1  0.5111835063537  0.6864531996068  0.2802313240067 1.0
C      1  0.4306961017160  0.6545158737549  0.3246602113752 1.0
C      1  0.4382741947829  0.6131178287441  0.4000654753840 1.0
C      1  0.4558272384937  0.5752659769221  0.4776528882508 1.0
C      1  0.4427863847429  0.6265099233143  0.5560553565064 1.0
C      1  0.4696742759840  0.6087351643531  0.6467811055991 1.0
C      1  0.4984671975560  0.6883215473309  0.5875517632271 1.0
C      1  0.5772642527357  0.7323313083630  0.5633238982978 1.0
C      1  0.6426987705040  0.7177698175235  0.4948508241862 1.0
C      1  0.8140450142995  0.5489119772480  0.4763862888046 1.0
C      1  0.7609689676598  0.5165027337815  0.3034988830821 1.0
C      1  0.6136598693931  0.4976570343664  0.2010361290981 1.0
C      1  0.4356362173522  0.4811116117392  0.1920684278337 1.0
C      1  0.2842081118609  0.4650463878651  0.2835309027810 1.0
C      1  0.2021743305486  0.4617527324533  0.4395004970840 1.0
C      1  0.2245074819852  0.4495010063000  0.6299014567357 1.0
C      1  0.3243272550255  0.4650420139290  0.7667610905711 1.0
C      1  0.4866973809941  0.5001344394032  0.8311077095469 1.0
C      1  0.6465323889048  0.5626694791811  0.7715076926447 1.0
C      1  0.7642068606409  0.5712360891446  0.6455632364652 1.0
C      1  0.6628974320620  0.3872992810486  0.8451274251423 1.0
C      1  0.8086974785730  0.4229076334958  0.7179199548170 1.0
C      1  0.8949725234140  0.4002172504921  0.5106667391574 1.0
C      1  0.8418885513604  0.3677438801246  0.3126986967432 1.0
C      1  0.6996777053247  0.3583996604537  0.1897368714253 1.0
C      1  0.4757294778965  0.3200037827012  0.1328111624920 1.0
C      1  0.2905956738233  0.2996518783398  0.2165777364259 1.0
C      1  0.1787169651958  0.2989730759871  0.3796332523265 1.0
C      1  0.1616552285272  0.2948802599288  0.5968369819808 1.0
C      1  0.2695523303407  0.3057211542455  0.7759008146197 1.0
C      1  0.4608261048357  0.3180638798418  0.8850396069530 1.0
C      1  0.7592706165604  0.5044111030322  0.4045782250882 1.0
C      1  0.6671873647320  0.4900612140866  0.2853538663528 1.0
C      1  0.5246942467244  0.4781799517282  0.2379205231134 1.0
C      1  0.3806633556166  0.4511074635484  0.2688164796569 1.0
C      1  0.2814324733080  0.4528206713371  0.3810319615438 1.0
C      1  0.2496121773237  0.4507878300718  0.5307687513353 1.0
C      1  0.3126860958352  0.4631280375714  0.6697602217891 1.0
C      1  0.4215087493046  0.4482039559164  0.7721996101815 1.0
C      1  0.5514508040545  0.5327560355741  0.7643775681356 1.0
C      1  0.6797127705454  0.5391709713312  0.6825005432603 1.0
C      1  0.7546806337116  0.5331431092516  0.5548267615566 1.0
C      1  0.4304537864383  0.2068201245201  0.2508346872769 1.0
C      1  0.3121287048095  0.2055776158051  0.3501338193186 1.0
C      1  0.2648756868350  0.2081366292642  0.4989990399971 1.0
C      1  0.3032074507592  0.2012013733047  0.6494479028347 1.0
C      1  0.4196464033696  0.2260460834269  0.7542802140550 1.0
C      1  0.5717498758299  0.2467195137720  0.7840347279598 1.0
C      1  0.7053868540736  0.2857603529167  0.7242574458056 1.0
C      1  0.7835655119133  0.3087314767468  0.5942451056910 1.0
C      1  0.7972053004289  0.2710056481305  0.4473829555277 1.0
C      1  0.7186744090573  0.2588984433170  0.3166820019939 1.0
C      1  0.5774174444739  0.2547649142446  0.2505946674973 1.0
C      1  0.5225984035527  0.4744016636267  0.3288159374080 1.0
C      1  0.4321087594614  0.4367555601446  0.3532696112067 1.0
C      1  0.3602187202296  0.4512405969157  0.4234850386237 1.0
C      1  0.3400515096312  0.4545025340434  0.5191533168378 1.0
C      1  0.3846713463578  0.4296277855669  0.6080811014856 1.0
C      1  0.4638573426297  0.4461168068140  0.6754474750734 1.0
C      1  0.5255067837061  0.5249632351183  0.6665604592325 1.0
C      1  0.6178778578626  0.4923975135269  0.6216552966702 1.0
C      1  0.6714790142971  0.5038585145929  0.5334342494031 1.0
C      1  0.6730375051167  0.4885526516623  0.4368650248639 1.0
C      1  0.6147604722662  0.4787621011056  0.3598927870541 1.0
C      1  0.5635154778412  0.1961573816709  0.3323223711468 1.0
C      1  0.4686318121073  0.1661160269364  0.3310239825424 1.0
C      1  0.3961947314183  0.1840733958663  0.4023944397731 1.0
C      1  0.3628315026425  0.1829485128704  0.5082540055883 1.0
C      1  0.3814170769864  0.1638782026066  0.6081744904004 1.0
C      1  0.4678193027705  0.2007867657147  0.6662551482355 1.0
C      1  0.5745962922473  0.2018508329167  0.6969384778646 1.0
C      1  0.6617674801355  0.2230430173061  0.6611554632819 1.0
C      1  0.7020152400009  0.2521649173378  0.5702610503787 1.0
C      1  0.7215765196382  0.2202086327669  0.4736934311030 1.0
C      1  0.6593812286050  0.2239035896020  0.3906882216548 1.0
C      1  0.4550350427049  0.3395720124951  0.3612022740455 1.0
C      1  0.4119760880156  0.2847656913769  0.4214720955627 1.0
C      1  0.3842460580762  0.2835952373511  0.5083596508657 1.0
C      1  0.3977474712033  0.3321149444456  0.5887011764792 1.0
C      1  0.4650308450498  0.2958961452874  0.6404842653174 1.0
C      1  0.5225665057690  0.3687173238595  0.6642255398824 1.0
C      1  0.6050871537230  0.3893125716829  0.6327208494845 1.0
C      1  0.6376665158133  0.3292598688505  0.5629794299252 1.0
C      1  0.5884047487418  0.3456207470757  0.4878526762054 1.0
C      1  0.6029369371013  0.3045511489157  0.4061488891935 1.0
C      1  0.5425395494593  0.3061566485359  0.3362963418478 1.0
C      1  0.5477616048111  0.9234822103907  0.4236232137260 1.0
C      1  0.4146881720388  0.8801641007103  0.3157228545768 1.0
C      1  0.3444492123284  0.8295228085864  0.2851549855620 1.0
C      1  0.2903213538970  0.7572276795091  0.3224341193256 1.0
C      1  0.2462548475056  0.7099867523983  0.3895704489364 1.0
C      1  0.2908797804035  0.7953666623743  0.5368045436770 1.0
C      1  0.2950344376124  0.7606369167082  0.6272255527277 1.0
C      1  0.3608255691494  0.7782313424072  0.6927166353758 1.0
C      1  0.4539890761184  0.8165622669081  0.7131081419649 1.0
C      1  0.5307888346300  0.8427353521479  0.6698284650079 1.0
C      1  0.5216758701508  0.9033476033711  0.5131445482254 1.0
C      1  0.7364815992515  0.6185534269809  0.2976589997187 1.0
C      1  0.6028583414954  0.5992206652939  0.1882121308341 1.0
C      1  0.4268095109039  0.5846734947383  0.1867928294579 1.0
C      1  0.2787186811874  0.5712351900367  0.2914497862227 1.0
C      1  0.1772723441741  0.5617013993234  0.4295807690270 1.0
C      1  0.1744965641928  0.5345484266753  0.6451360983669 1.0
C      1  0.3177866975941  0.5573677647276  0.7174734107124 1.0
C      1  0.4823741142093  0.5961084603070  0.8032712928113 1.0
C      1  0.6276766996890  0.6696545730308  0.7661755258353 1.0
C      1  0.7334138895066  0.6712252197676  0.6311205050062 1.0
C      1  0.7828638362969  0.6485655852280  0.4645984972777 1.0
C      1  0.8357513657962  0.3232734292221  0.5198080446242 1.0
C      1  0.7969499310085  0.2966070991921  0.3533383289428 1.0
C      1  0.6727402924611  0.2839643794633  0.2389306846230 1.0
C      1  0.4943814915833  0.2505383313014  0.1944415391601 1.0
C      1  0.3366177746309  0.2306381864496  0.2630223174146 1.0
C      1  0.2402182732004  0.2343028748711  0.4076685064197 1.0
C      1  0.2302823127101  0.2266524002771  0.5836396694789 1.0
C      1  0.3240544686882  0.2410984330906  0.7379875491920 1.0
C      1  0.4831828886225  0.2524389669693  0.8187287614941 1.0
C      1  0.6498147451319  0.3032164096176  0.7988562712353 1.0
C      1  0.7750981998879  0.3422538299080  0.6845641559366 1.0
C      1  0.4979686931463  0.4925554359049  0.4923004079449 1.0
C      1  0.3546467916597  0.8583808489037  0.5162458628536 1.0
C      1  0.4293459972780  0.8935109292855  0.5205385573885 1.0
C      1  0.5266613970317  0.4162137026434  0.4940474047180 1.0
END
