TITL C-13179-9057-14 -2.563 3375.00 -433.78788891 0 0 55 (C1) n - 1
REM
REM Run started: at 2020.12.29 07:12:54 in /gpfs/home/chem/mssmkc/CARBON/AIRSS/Generating-Clusters/Str-Search/Higher-Symm/C4-100
REM VASP from code version vasp.5.4.4.18Apr17-6-g9f103f2a35 (build Oct 11 2019 16:45:47) gamma-only
REM
REM
REM
REM
REM ./C.cell (6bd13a13d554368a30d355f37ece5b26)
REM AIRSS Version 0.9.1 bugfix July 2018 build 013d7b7c2542+ Fri, 06 Jul 2018 19:26:36 +0100
REM compiler GCC version 6.3.0
REM options -cpp -iprefix /gpfs/warwick/csc/orac/software/Core/GCCcore/6.3.0/bin/../lib/gcc/x86_64-pc-linux-gnu/6.3.0/ -mtune=generic -march=x86-64 -g -O0
REM seed -1684743246 1128237491 511918393 113547781 665229466 -1534452968 1018481873 1139069494 759950211 -663642965 1388434504 -836076722
REM
REM C.POTCAR (d86ddea03c3ceb6dc662c8ad6801f873)
REM 
CELL 1.54180   15.00000   15.00000   15.00000   90.00000   90.00000   90.00000
LATT -1
SFAC C  
C      1  0.4243155279148  0.2558396795731  0.5395216302247 1.0
C      1  0.2384734974880  0.4982850338248  0.5400247549558 1.0
C      1  0.4221125912970  0.7468756093328  0.5460703425522 1.0
C      1  0.7064503578767  0.6444002864572  0.5255940433730 1.0
C      1  0.7184950188333  0.3369723856554  0.5686933658783 1.0
C      1  0.4501103027012  0.3593531347917  0.3793599516386 1.0
C      1  0.3500642334458  0.5051561065647  0.3928469232470 1.0
C      1  0.4527238350425  0.6467835887472  0.3938919149178 1.0
C      1  0.6494244227057  0.5742041978382  0.3709890582367 1.0
C      1  0.6122078265188  0.4129452008716  0.3594387065237 1.0
C      1  0.4787567821483  0.5866868897769  0.3181046905330 1.0
C      1  0.5695117460413  0.5553133972925  0.3122005191836 1.0
C      1  0.5595408481179  0.4570104216708  0.2984990486830 1.0
C      1  0.4650349492026  0.4278455311206  0.3024717231606 1.0
C      1  0.4158520795163  0.5076338587658  0.3138097015115 1.0
C      1  0.3408569063969  0.6937460125599  0.5697495778105 1.0
C      1  0.6373643535041  0.7110353900204  0.5554741088026 1.0
C      1  0.7170873687294  0.4378516407858  0.5703384527624 1.0
C      1  0.5212844121390  0.2689198122634  0.5611614281944 1.0
C      1  0.2660606420380  0.4051763570692  0.5632825571301 1.0
C      1  0.3350146240738  0.6717464053598  0.4776910290741 1.0
C      1  0.6042522268599  0.7113879889117  0.4632196136411 1.0
C      1  0.7308683910846  0.4343302563162  0.4760694783253 1.0
C      1  0.5391970165482  0.2714050087997  0.4646343645984 1.0
C      1  0.2878632647073  0.3922777873889  0.4684917244813 1.0
C      1  0.3699941285477  0.2989513300339  0.5934324970695 1.0
C      1  0.2676227628398  0.5612752828671  0.5947521189672 1.0
C      1  0.4942550116595  0.7411054753753  0.5981653275147 1.0
C      1  0.7059901851384  0.5809501092101  0.5863881829645 1.0
C      1  0.6518160479547  0.3151653699999  0.6212587289317 1.0
C      1  0.7544784736678  0.3401253971363  0.4733068304588 1.0
C      1  0.4485356301690  0.2606390304397  0.4379362044558 1.0
C      1  0.2584151096740  0.4782845584508  0.4396308176357 1.0
C      1  0.4032323490622  0.7321902367724  0.4417578116008 1.0
C      1  0.6712380485653  0.6470700003593  0.4288136008249 1.0
C      1  0.3371784015221  0.6116730450342  0.6227378583945 1.0
C      1  0.5644695553544  0.6893309212549  0.6217822202678 1.0
C      1  0.6725163293508  0.5031971166729  0.6220357423383 1.0
C      1  0.5592277405525  0.3333393771454  0.6230133422694 1.0
C      1  0.3412437717133  0.3820096944515  0.6193919106131 1.0
C      1  0.4263427717603  0.4466119121883  0.6198295715500 1.0
C      1  0.4245330467474  0.5559510409516  0.6179624724613 1.0
C      1  0.5305167391418  0.5859246423833  0.6214745843038 1.0
C      1  0.5782962260256  0.4996579553359  0.6527959377188 1.0
C      1  0.5221479639393  0.4210394909706  0.6513293604153 1.0
C      1  0.3823019138730  0.4132019873351  0.4387556189556 1.0
C      1  0.3812697259479  0.5882291705139  0.4443781638476 1.0
C      1  0.5254368731966  0.6588259428900  0.4576789438002 1.0
C      1  0.6639554070532  0.4815268783112  0.4154173927048 1.0
C      1  0.5487126388632  0.3589168796919  0.4176685147527 1.0
C      1  0.5833134224544  0.5006106490526  0.4779722405822 1.0
C      1  0.5313403594639  0.4290732403731  0.4834339305067 1.0
C      1  0.4406558299895  0.4477588714598  0.5140006840509 1.0
C      1  0.4368052252519  0.5466471247253  0.5169632683736 1.0
C      1  0.5312349855892  0.5775349868556  0.5143084122300 1.0
END
