TITL C-13179-9057-157 -0.591 3375.00 -90.01891753 0 0 12 (D2d) n - 1
REM
REM Run started: at 2020.12.30 10:05:20 in /gpfs/home/chem/mssmkc/CARBON/AIRSS/Generating-Clusters/Str-Search/Higher-Symm/C4-100
REM VASP from code version vasp.5.4.4.18Apr17-6-g9f103f2a35 (build Oct 11 2019 16:45:47) gamma-only
REM
REM
REM
REM
REM ./C.cell (6bd13a13d554368a30d355f37ece5b26)
REM AIRSS Version 0.9.1 bugfix July 2018 build 013d7b7c2542+ Fri, 06 Jul 2018 19:26:36 +0100
REM compiler GCC version 6.3.0
REM options -cpp -iprefix /gpfs/warwick/csc/orac/software/Core/GCCcore/6.3.0/bin/../lib/gcc/x86_64-pc-linux-gnu/6.3.0/ -mtune=generic -march=x86-64 -g -O0
REM seed 589251979 -1771662786 1333715958 -2116454770 477069387 1351343088 1935431462 566991241 1717333981 -772693484 1930838675 -1228539954
REM
REM C.POTCAR (d86ddea03c3ceb6dc662c8ad6801f873)
REM 
CELL 1.54180   15.00000   15.00000   15.00000   90.00000   90.00000   90.00000
LATT -1
SFAC C  
C      1  0.4377505530114  0.4796520185904  0.5968225499303 1.0
C      1  0.5968115292038  0.5203396529631  0.5622631934280 1.0
C      1  0.5622704307773  0.4796640228971  0.4031938138016 1.0
C      1  0.4031795805298  0.5203464728250  0.4377500160802 1.0
C      1  0.4743360747365  0.4119258303732  0.6536873724429 1.0
C      1  0.6536947907801  0.5880846825983  0.5256650352520 1.0
C      1  0.5256655207603  0.4119137392913  0.3463043455598 1.0
C      1  0.3463145716838  0.5880718210550  0.4743356794949 1.0
C      1  0.6113952373648  0.5214195707343  0.4712663519708 1.0
C      1  0.4712683973544  0.4785772759683  0.3886024830969 1.0
C      1  0.3885959790776  0.5214335483478  0.5287074346581 1.0
C      1  0.5287173347202  0.4785713643562  0.6114017242846 1.0
END
