TITL C-13531-8579-5 -8.565 3375.00 -1569.96591866 0 0 189 (C1) n - 1
REM
REM Run started: at 2021.01.04 07:49:32 in /gpfs/home/chem/mssmkc/CARBON/AIRSS/Generating-Clusters/Str-Search/Higher-Symm/C100-200
REM VASP from code version vasp.5.4.4.18Apr17-6-g9f103f2a35 (build Oct 11 2019 16:45:47) gamma-only
REM
REM
REM
REM
REM ./C.cell (533062f00bc710175b3da973d35f2034)
REM AIRSS Version 0.9.1 bugfix July 2018 build 013d7b7c2542+ Fri, 06 Jul 2018 19:26:36 +0100
REM compiler GCC version 6.3.0
REM options -cpp -iprefix /gpfs/warwick/csc/orac/software/Core/GCCcore/6.3.0/bin/../lib/gcc/x86_64-pc-linux-gnu/6.3.0/ -mtune=generic -march=x86-64 -g -O0
REM seed 589853069 506695927 56939591 -148796851 -924736322 465089446 -971871131 857392076 843583641 -1807465742 1122069271 1530240532
REM
REM C.POTCAR (d86ddea03c3ceb6dc662c8ad6801f873)
REM 
CELL 1.54180   15.00000   15.00000   15.00000   90.00000   90.00000   90.00000
LATT -1
SFAC C  
C      1  0.1767997811290  0.6761046173890  0.6244984263247 1.0
C      1  0.1747631821229  0.4328229046160  0.7008862095294 1.0
C      1  0.1772348323648  0.2898203586108  0.4978978237485 1.0
C      1  0.1786048176859  0.4336872675688  0.2898831159047 1.0
C      1  0.1791486228344  0.6781011169843  0.3729180335657 1.0
C      1  0.7948324892444  0.6580938139830  0.6203353984487 1.0
C      1  0.8273709107049  0.4406422082832  0.7155287807139 1.0
C      1  0.8191778127202  0.2841903682693  0.5068340720851 1.0
C      1  0.8161282473446  0.4276970389333  0.2961099079492 1.0
C      1  0.8093987895019  0.6688806583578  0.3710706184158 1.0
C      1  0.8094567207810  0.7044693994771  0.5319906592422 1.0
C      1  0.8311122596641  0.5364255634970  0.7198895263615 1.0
C      1  0.8119969027559  0.3273243348635  0.5966998553015 1.0
C      1  0.8217254300748  0.3488309555841  0.3547141756169 1.0
C      1  0.8134488828266  0.5939440467171  0.3072111949218 1.0
C      1  0.1700347981909  0.7164277830037  0.5344271476991 1.0
C      1  0.1731836527263  0.5306989584740  0.7075906772203 1.0
C      1  0.1743591018697  0.3068473906570  0.5928469444940 1.0
C      1  0.1810998016267  0.3530882814147  0.3421846507117 1.0
C      1  0.1988364555079  0.5901191308955  0.3287943298139 1.0
C      1  0.7058481088633  0.6693519606940  0.7591273407244 1.0
C      1  0.7004060177274  0.3199811741856  0.7240939142617 1.0
C      1  0.7099831359591  0.2138535583156  0.4041152872974 1.0
C      1  0.6812151642256  0.5225105915660  0.2147987454002 1.0
C      1  0.6970228168739  0.7845069944369  0.4227801438893 1.0
C      1  0.2902828255845  0.6561254058479  0.7460532653894 1.0
C      1  0.2855948833196  0.3078895267515  0.7211369299098 1.0
C      1  0.2941877108449  0.2210930832721  0.3865242492538 1.0
C      1  0.2904047929805  0.5288522613910  0.1951402011761 1.0
C      1  0.2810586025958  0.7910658692903  0.4319081763449 1.0
C      1  0.8676218073792  0.3984198368106  0.6386381682745 1.0
C      1  0.8587943666281  0.3420531808019  0.4402310044866 1.0
C      1  0.8564640353164  0.5100122060155  0.3250926332621 1.0
C      1  0.8450078064546  0.6611086674706  0.4600905145319 1.0
C      1  0.8636182171390  0.5889983591584  0.6488368436491 1.0
C      1  0.1351130730279  0.3888444209117  0.6241491504073 1.0
C      1  0.1399065850888  0.3458435095301  0.4302602149046 1.0
C      1  0.1386846489615  0.5107350230158  0.3295854630143 1.0
C      1  0.1341884161114  0.6722117356931  0.4562290388269 1.0
C      1  0.1359773891779  0.5890325515499  0.6459850737115 1.0
C      1  0.1055116440484  0.5794998284257  0.4739115512540 1.0
C      1  0.1090389688541  0.5407106642514  0.5656287801584 1.0
C      1  0.0945208465207  0.4426114528035  0.5581461274518 1.0
C      1  0.0935999990656  0.4225618705604  0.4639826465823 1.0
C      1  0.0946369604649  0.5035303630366  0.4112766902146 1.0
C      1  0.8824883885337  0.5747948990435  0.4828429612889 1.0
C      1  0.9059890871351  0.5466344386169  0.5763155845011 1.0
C      1  0.9098011676409  0.4510758366277  0.5727897671557 1.0
C      1  0.8877664902173  0.4282623936980  0.4766762347899 1.0
C      1  0.9001751935950  0.5050916074141  0.4133649435667 1.0
C      1  0.4106316449892  0.3054097532235  0.2735813224747 1.0
C      1  0.4380629383723  0.5615540489980  0.3364710002321 1.0
C      1  0.4856378566552  0.6775136793874  0.5480803324731 1.0
C      1  0.3812695076237  0.4750074713593  0.7310546707336 1.0
C      1  0.3958306582853  0.2704789563563  0.5668975417557 1.0
C      1  0.5833352510499  0.3664596210756  0.3723762687425 1.0
C      1  0.5253234008337  0.5887243535861  0.3008871909635 1.0
C      1  0.5708291385719  0.7354705774380  0.5470051664807 1.0
C      1  0.6049201342053  0.4947823725386  0.6779099366500 1.0
C      1  0.5788687016930  0.3213764246967  0.5857148144288 1.0
C      1  0.3724456130411  0.6642905155828  0.7885250166441 1.0
C      1  0.3705920078043  0.2738242755846  0.7503501111537 1.0
C      1  0.3776755641482  0.1808721620400  0.3745018833640 1.0
C      1  0.3746939478142  0.5492977859690  0.1529084374093 1.0
C      1  0.3662335169777  0.8288541102784  0.4355348723415 1.0
C      1  0.6252133614942  0.6696827243517  0.8119844383168 1.0
C      1  0.6248641391017  0.2606889636402  0.7585951988962 1.0
C      1  0.6326988603142  0.1746500254998  0.3635851352381 1.0
C      1  0.6198547497677  0.5598674228626  0.1394745465393 1.0
C      1  0.6188435489415  0.8379758988763  0.4328288737015 1.0
C      1  0.2881036424544  0.3574328893329  0.2060301539951 1.0
C      1  0.2973314901739  0.7043168117354  0.2684656039104 1.0
C      1  0.2952179023803  0.7772447866008  0.6077544431378 1.0
C      1  0.2992084366081  0.4702390526391  0.7936336163387 1.0
C      1  0.3075583007205  0.2195109130455  0.5725347398169 1.0
C      1  0.7028108619605  0.3312608312213  0.2520714946134 1.0
C      1  0.6957124647357  0.6864191795066  0.2697183971810 1.0
C      1  0.7091941728138  0.7965841230654  0.6196497186156 1.0
C      1  0.7109852955172  0.4839786244975  0.8125392439307 1.0
C      1  0.7176993621769  0.1946634669469  0.5915801048845 1.0
C      1  0.3354942493400  0.5367510881328  0.6760772805628 1.0
C      1  0.3670565214998  0.3636131828682  0.5644871685429 1.0
C      1  0.3445856570104  0.3423417436928  0.3364110226740 1.0
C      1  0.3453666762444  0.5721070995041  0.3279466841514 1.0
C      1  0.4113208835615  0.6760299668516  0.4845086856319 1.0
C      1  0.6841976342956  0.5436570113034  0.6764610022990 1.0
C      1  0.6661353730539  0.3414605295903  0.6256100530187 1.0
C      1  0.6669956563457  0.3459071322805  0.4025581247263 1.0
C      1  0.6038208059838  0.5160603351185  0.2901439753479 1.0
C      1  0.6527342292096  0.6965810662340  0.5150907275207 1.0
C      1  0.3810989315222  0.8176367488909  0.6083585404366 1.0
C      1  0.3852359219052  0.4954243019783  0.8383700343027 1.0
C      1  0.3914664734832  0.1746733471736  0.6126508667704 1.0
C      1  0.3741389412854  0.3350022967473  0.1818278699509 1.0
C      1  0.3826223390851  0.7185703306543  0.2244197144699 1.0
C      1  0.6323583153234  0.8519649773549  0.6197910500095 1.0
C      1  0.6298249827140  0.5029500802525  0.8624287134416 1.0
C      1  0.6375900016234  0.1510781455404  0.6277632053230 1.0
C      1  0.6215151812245  0.2869338190851  0.2255532178408 1.0
C      1  0.6177472932067  0.7109679621861  0.2192338425739 1.0
C      1  0.7174746905157  0.5918791711566  0.6023764765468 1.0
C      1  0.7254432650663  0.3797386474811  0.5648901239266 1.0
C      1  0.6990310130607  0.4021606517177  0.4755844909521 1.0
C      1  0.6489867523725  0.5199854793711  0.3792778378212 1.0
C      1  0.6630027356055  0.6062296380263  0.5299044911761 1.0
C      1  0.3757985249708  0.5729847708607  0.6056007796419 1.0
C      1  0.3154392611594  0.3506072040438  0.4866349195682 1.0
C      1  0.3580918981943  0.3910078282008  0.4119135423160 1.0
C      1  0.2781246213034  0.5649659917766  0.3904900791085 1.0
C      1  0.3469206127931  0.6195210875781  0.5249518608988 1.0
C      1  0.2520265380974  0.7375760894767  0.3516248967886 1.0
C      1  0.2530402220724  0.7097684423928  0.6701116715591 1.0
C      1  0.2449761846297  0.3928320586864  0.7521687427804 1.0
C      1  0.2692048362027  0.2551305475406  0.4792792329291 1.0
C      1  0.2458366485809  0.4426798125307  0.2180877129325 1.0
C      1  0.7344891853118  0.7248545540340  0.3515847897943 1.0
C      1  0.7380562973929  0.7202513414371  0.6815165719448 1.0
C      1  0.7477486576245  0.4072052558963  0.7654299812197 1.0
C      1  0.7496992549411  0.2168500600028  0.4977024358577 1.0
C      1  0.7358825735895  0.4216965784764  0.2390110603025 1.0
C      1  0.5283922692749  0.2700273952843  0.7815342557095 1.0
C      1  0.5390182926169  0.1438671800790  0.3823012503071 1.0
C      1  0.5245154028715  0.5395673094353  0.1137063857095 1.0
C      1  0.5234850344567  0.8526507521708  0.4081009211308 1.0
C      1  0.5292462417436  0.6940211224870  0.8084331503803 1.0
C      1  0.4474345100905  0.3296746522759  0.7895787488113 1.0
C      1  0.4548429401979  0.1572721767023  0.4422018670207 1.0
C      1  0.4488159476994  0.4876666865003  0.1295770945665 1.0
C      1  0.4416128143644  0.8047316637446  0.3671691775994 1.0
C      1  0.4480203901212  0.7176155796020  0.7488973250392 1.0
C      1  0.5605421139479  0.7390089229870  0.6464216967394 1.0
C      1  0.5528722286538  0.4499369948321  0.7427095793295 1.0
C      1  0.5535728199287  0.2449140588058  0.5427115315252 1.0
C      1  0.5611878475694  0.4162249310654  0.2861201168689 1.0
C      1  0.5257780150678  0.6760551972314  0.3434927326925 1.0
C      1  0.4781600919224  0.6916277357191  0.6527995204446 1.0
C      1  0.4595096089278  0.4160437598672  0.7364290019478 1.0
C      1  0.4646620916295  0.2372414422316  0.5033496023489 1.0
C      1  0.4778968516268  0.3761397433043  0.2579560395966 1.0
C      1  0.4560194464814  0.7081905422370  0.3999649501117 1.0
C      1  0.5547461647790  0.4475245956474  0.8340384221285 1.0
C      1  0.5613870781200  0.1548291965451  0.5677117580443 1.0
C      1  0.5550306621046  0.3587549259335  0.1989142763029 1.0
C      1  0.5407259410256  0.7389723908496  0.2695009046649 1.0
C      1  0.5642428002461  0.8229376111425  0.6871341752945 1.0
C      1  0.4577616628853  0.4184500447414  0.8451589554330 1.0
C      1  0.4631762481647  0.1358997528977  0.5452077789296 1.0
C      1  0.4535246518615  0.3956575339355  0.1632690920280 1.0
C      1  0.4485814330388  0.7758011635886  0.2644426750256 1.0
C      1  0.4543491288153  0.7948690343985  0.6791334252419 1.0
C      1  0.7308897510455  0.7611414279080  0.5214142421642 1.0
C      1  0.7426736309706  0.5662453297977  0.7582337709714 1.0
C      1  0.7494586987896  0.2685788766722  0.6495530391385 1.0
C      1  0.7378518891014  0.2975807959844  0.3430219395928 1.0
C      1  0.7383426727951  0.6021916092699  0.2497752534820 1.0
C      1  0.2434407296958  0.7751613486252  0.5221392916571 1.0
C      1  0.2609453014288  0.5571420502286  0.7424729035647 1.0
C      1  0.2487751840604  0.2693560860995  0.6391842116626 1.0
C      1  0.2593228305865  0.2981827440194  0.3170450620177 1.0
C      1  0.2724417774688  0.6050806849214  0.2596035086037 1.0
C      1  0.5946335998385  0.6541187473231  0.1478708098738 1.0
C      1  0.5872209293600  0.8435655889947  0.5294697777287 1.0
C      1  0.5981251729678  0.5907716369392  0.8672013107752 1.0
C      1  0.6033722392971  0.1784611940274  0.7117908759594 1.0
C      1  0.6000858324804  0.2097640262029  0.2736933219163 1.0
C      1  0.4137309024988  0.6427261246631  0.1633924835957 1.0
C      1  0.4098194473024  0.8504172566774  0.5205329272595 1.0
C      1  0.4145699406267  0.5907675093285  0.8426938586133 1.0
C      1  0.4157281752124  0.1980349083428  0.7054543299620 1.0
C      1  0.4273793703116  0.2104976587997  0.2968439064413 1.0
C      1  0.5725229197588  0.5041469815497  0.4352295061626 1.0
C      1  0.5880537686444  0.5476053357125  0.5217381737901 1.0
C      1  0.5592800226258  0.4890363472832  0.5944450606185 1.0
C      1  0.5354530587876  0.4000030747678  0.5500775692961 1.0
C      1  0.5356785415941  0.4091520629717  0.4460282005700 1.0
C      1  0.4724705033738  0.5310117993891  0.4207806923504 1.0
C      1  0.4970219052092  0.5830183686456  0.5137064572387 1.0
C      1  0.4558374232732  0.5215967555250  0.5812381527463 1.0
C      1  0.4361391094930  0.4290443270128  0.5449661111960 1.0
C      1  0.4376783504522  0.4387652321547  0.4440304146218 1.0
C      1  0.4985874256063  0.8725076799296  0.4970326749872 1.0
C      1  0.5126640999565  0.1768977044573  0.2964925078258 1.0
C      1  0.5009830696666  0.6324120652796  0.1285749914104 1.0
C      1  0.5045099720831  0.1893430153855  0.7391772033571 1.0
C      1  0.5031320349623  0.6189273187941  0.8613730568744 1.0
C      1  0.2759569638481  0.5720800383110  0.4825900570656 1.0
C      1  0.7233869035790  0.4823795360017  0.4316623860795 1.0
C      1  0.8113261066311  0.5001267186530  0.4652930405394 1.0
C      1  0.1945547597434  0.5465244702806  0.5144440609469 1.0
END
