TITL C-13179-9057-22 -4.288 3375.00 -727.13914200 0 0 91 (C1) n - 1
REM
REM Run started: at 2020.12.29 08:50:05 in /gpfs/home/chem/mssmkc/CARBON/AIRSS/Generating-Clusters/Str-Search/Higher-Symm/C4-100
REM VASP from code version vasp.5.4.4.18Apr17-6-g9f103f2a35 (build Oct 11 2019 16:45:47) gamma-only
REM
REM
REM
REM
REM ./C.cell (6bd13a13d554368a30d355f37ece5b26)
REM AIRSS Version 0.9.1 bugfix July 2018 build 013d7b7c2542+ Fri, 06 Jul 2018 19:26:36 +0100
REM compiler GCC version 6.3.0
REM options -cpp -iprefix /gpfs/warwick/csc/orac/software/Core/GCCcore/6.3.0/bin/../lib/gcc/x86_64-pc-linux-gnu/6.3.0/ -mtune=generic -march=x86-64 -g -O0
REM seed -1880091596 1845540513 2074668626 596617892 1725690943 1020395307 1914922305 522768442 719642574 1733295552 1775846964 -1199571864
REM
REM C.POTCAR (d86ddea03c3ceb6dc662c8ad6801f873)
REM 
CELL 1.54180   15.00000   15.00000   15.00000   90.00000   90.00000   90.00000
LATT -1
SFAC C  
C      1  0.4826365793421  0.4303956344010  0.3786918332677 1.0
C      1  0.4977882773223  0.4379129986825  0.6581058936615 1.0
C      1  0.5152983377639  0.5899567402941  0.3744186660353 1.0
C      1  0.4842030449890  0.5507076881897  0.6449581930214 1.0
C      1  0.3636836289853  0.4267734648071  0.4968854441523 1.0
C      1  0.6587704606569  0.4301699071463  0.5070324435075 1.0
C      1  0.3192054292827  0.5904823114315  0.5332992512823 1.0
C      1  0.6572684438782  0.5990828753898  0.4719047040230 1.0
C      1  0.4634237060457  0.2997200829163  0.2540332154975 1.0
C      1  0.4953562447688  0.2727310893329  0.7817013937885 1.0
C      1  0.4815434445791  0.6954174724486  0.2173613441550 1.0
C      1  0.4681409088335  0.7269056908642  0.7320120353251 1.0
C      1  0.2849754201723  0.2958580571989  0.4603811580854 1.0
C      1  0.7746550386570  0.2861973469973  0.4916523219363 1.0
C      1  0.2430773855017  0.7243422460192  0.5102188885702 1.0
C      1  0.7847338524420  0.7121393528482  0.5100953800587 1.0
C      1  0.2786997342866  0.5577944982271  0.4469595886056 1.0
C      1  0.7036578599091  0.5796039023305  0.5524526552593 1.0
C      1  0.6704499996241  0.4440300983134  0.4105821505337 1.0
C      1  0.3294640094116  0.4332464056632  0.5955713330210 1.0
C      1  0.4397297851901  0.5668888382438  0.3093174740500 1.0
C      1  0.5559868480195  0.5584376405051  0.7173229718885 1.0
C      1  0.3976244940278  0.4328665582591  0.6789047957697 1.0
C      1  0.5831306979443  0.4423666248688  0.3475662555770 1.0
C      1  0.5608507828705  0.4654774572696  0.7359154164517 1.0
C      1  0.4225664934354  0.4774570095466  0.3113281845622 1.0
C      1  0.3853248848364  0.5366061658407  0.6867499711110 1.0
C      1  0.5994628056482  0.5427799521747  0.3288823922516 1.0
C      1  0.7184451284099  0.4865530756006  0.5632207392581 1.0
C      1  0.2979072143169  0.4688656659291  0.4300494430230 1.0
C      1  0.6833533128425  0.5460090812769  0.3911784707084 1.0
C      1  0.3105412410419  0.5316319003306  0.6142018845397 1.0
C      1  0.6966014998671  0.3628961146525  0.2602801839249 1.0
C      1  0.2829834604955  0.3635695605312  0.7915761005778 1.0
C      1  0.3077477302362  0.6321813963205  0.2299584805219 1.0
C      1  0.6943610454800  0.6429350481879  0.7372291563853 1.0
C      1  0.2589814903742  0.3410028325887  0.7091949931469 1.0
C      1  0.7804319968684  0.3835159175137  0.2823460586901 1.0
C      1  0.2569651659761  0.6232179066806  0.2960363494803 1.0
C      1  0.7606415665843  0.6580103303537  0.6888247355934 1.0
C      1  0.5445017512286  0.2773688859243  0.3928888461615 1.0
C      1  0.4529107323315  0.2818611870772  0.6215951105155 1.0
C      1  0.4554826428169  0.7343025164274  0.3842498972596 1.0
C      1  0.5526401791098  0.7005748789635  0.5936607139550 1.0
C      1  0.3860785176544  0.2748055915740  0.5595519151562 1.0
C      1  0.6172948069215  0.2828563617098  0.4521227490041 1.0
C      1  0.3891306161898  0.7092740727739  0.4433807771883 1.0
C      1  0.6155701376653  0.7354560847713  0.5363646163388 1.0
C      1  0.7122770306147  0.7443097306374  0.5534895679073 1.0
C      1  0.2891537590347  0.7159350279066  0.4322133102449 1.0
C      1  0.2864509572821  0.2755656124993  0.5554146271277 1.0
C      1  0.7120417866178  0.2854842237756  0.4252531028667 1.0
C      1  0.5467550888008  0.7116358193646  0.6927301326554 1.0
C      1  0.4370572887713  0.7315298079020  0.2872850800552 1.0
C      1  0.5449764469477  0.2862578854980  0.2942300322963 1.0
C      1  0.4314163115212  0.2815356115840  0.7185962194052 1.0
C      1  0.4721056439421  0.3367265424412  0.4263335907119 1.0
C      1  0.5205714823816  0.3564050219423  0.5977359629284 1.0
C      1  0.5391002703134  0.6837189246756  0.3972298054316 1.0
C      1  0.4917472837798  0.6182427688884  0.5662702157887 1.0
C      1  0.3837532559859  0.3252494993785  0.4735869033146 1.0
C      1  0.6024647479262  0.3541559746760  0.5285590734791 1.0
C      1  0.4082161026966  0.6331543198431  0.5095603431423 1.0
C      1  0.6099469634022  0.6828970718816  0.4542030936500 1.0
C      1  0.4032721911974  0.6407482037332  0.2513435215051 1.0
C      1  0.6013691205524  0.6375101256046  0.7347537917116 1.0
C      1  0.6075523122540  0.3631080270914  0.2808098880982 1.0
C      1  0.3628016480985  0.3537550781434  0.7371967451302 1.0
C      1  0.2552641547611  0.6312013344385  0.3879644939823 1.0
C      1  0.7521741641149  0.6572659052280  0.5913504679732 1.0
C      1  0.2642578556339  0.3489945849093  0.6179885456868 1.0
C      1  0.7270228662757  0.3623719036642  0.3608764329676 1.0
C      1  0.7636492702587  0.6054282085250  0.3866651801497 1.0
C      1  0.2252334870413  0.5855600165737  0.6177809364106 1.0
C      1  0.2840780293053  0.4086888717596  0.3517389065687 1.0
C      1  0.7835429487443  0.4256069175340  0.5797590663514 1.0
C      1  0.3772781351388  0.5980343897798  0.7607836378636 1.0
C      1  0.6004239710511  0.5883323655071  0.2423468784471 1.0
C      1  0.3517039906685  0.4130696991436  0.2838827284470 1.0
C      1  0.5874125288660  0.4060010386570  0.7985877916982 1.0
C      1  0.7994893254558  0.6713344297335  0.4247004581521 1.0
C      1  0.2510709967438  0.6636691913939  0.5753722865758 1.0
C      1  0.2500594026630  0.3287904051429  0.3851555169471 1.0
C      1  0.7987782595027  0.3451115607650  0.5487023315263 1.0
C      1  0.4033604150359  0.6786600953387  0.7676871805374 1.0
C      1  0.5665067659863  0.6556616506807  0.2078515638898 1.0
C      1  0.3895732278128  0.3384294451991  0.2412123467281 1.0
C      1  0.5574435416389  0.3256890721829  0.8090024376250 1.0
C      1  0.4793170500741  0.5660750156527  0.4735468748277 1.0
C      1  0.5100658314256  0.3875222014824  0.5063211869418 1.0
C      1  0.4607072548466  0.4681109998444  0.4736839653745 1.0
END
