TITL C-136586-6883-5 -2.014 3375.00 -354.47806645 0 0 43 (Cs) n - 1
REM
REM Run started: at 2020.11.26 07:38:34 in /rds/project/t2_vol4/rds-t2-cs072/BORA/CARBON/AIRSS/Generating-Clusters/Str-Search/Higher-Symm
REM VASP from code version vasp.5.4.4.18Apr17-6-g9f103f2a35 (build Oct 11 2019 16:45:47) gamma-only
REM
REM
REM
REM
REM ./C.cell (e5ae0387ce4d49c7c0135a1433873289)
REM AIRSS Version 0.9.1 bugfix July 2018 build 013d7b7c2542+ Fri, 06 Jul 2018 19:26:36 +0100
REM compiler GCC version 4.8.5 20150623 (Red Hat 4.8.5-39)
REM options -cpp -mtune=generic -march=x86-64 -g -O0
REM seed -260591615 -634420733 1967410394 -25988334 -804175173 1202597027 -840628249 -17204143 1565110079 1159625256 -1753384111 -1407664251
REM
REM C.POTCAR (d86ddea03c3ceb6dc662c8ad6801f873)
REM 
CELL 1.54180   15.00000   15.00000   15.00000   90.00000   90.00000   90.00000
LATT -1
SFAC C  
C      1  0.4517686492632  0.2667054677842  0.5782650259615 1.0
C      1  0.4059033315806  0.2664438816109  0.4945720658639 1.0
C      1  0.4556133254802  0.2666095821645  0.4130598763447 1.0
C      1  0.5511375648298  0.2672028647456  0.4157753831046 1.0
C      1  0.5970288252860  0.2669012765729  0.4995450178234 1.0
C      1  0.5472159248543  0.2665388731810  0.5808671770726 1.0
C      1  0.4022074868997  0.4934703869593  0.4408312773424 1.0
C      1  0.4986587180925  0.4934504237851  0.3884296607397 1.0
C      1  0.5956062427314  0.4936671641131  0.4437321246600 1.0
C      1  0.5995999207094  0.4938814417231  0.5534256130026 1.0
C      1  0.5035934907646  0.4922246445824  0.6084146454500 1.0
C      1  0.4037646453080  0.4920426052830  0.5515518386263 1.0
C      1  0.6369723473095  0.4008757924330  0.5755710241386 1.0
C      1  0.5019126608500  0.4006049235626  0.6532244311610 1.0
C      1  0.3656899530755  0.4003789991715  0.5752563752191 1.0
C      1  0.3650811926434  0.4002679573276  0.4196186853736 1.0
C      1  0.5002017093955  0.4015684311077  0.3434613776151 1.0
C      1  0.6348401508519  0.4019505746266  0.4205281747442 1.0
C      1  0.5866914338228  0.6403276068310  0.6316385387006 1.0
C      1  0.4200000250922  0.6417559933239  0.6381560283863 1.0
C      1  0.3416775001899  0.6396959246545  0.4908647648930 1.0
C      1  0.4230886980936  0.6357337164401  0.3611063148867 1.0
C      1  0.5779492350153  0.6350133802208  0.3620535031778 1.0
C      1  0.6568994444040  0.6362649164498  0.4953847786183 1.0
C      1  0.5048571258243  0.5878787382663  0.6451475833640 1.0
C      1  0.3710120821221  0.5875929503778  0.5686098891157 1.0
C      1  0.3631549755522  0.5865439390461  0.4155201498142 1.0
C      1  0.5000714407193  0.5850142486478  0.3435779632247 1.0
C      1  0.6332898976889  0.5853625096755  0.4201011374040 1.0
C      1  0.6405677477474  0.5871811437875  0.5746089123097 1.0
C      1  0.4231206379599  0.3500701415085  0.6267063779913 1.0
C      1  0.3486556785098  0.3492562091652  0.4943509815400 1.0
C      1  0.4270957075262  0.3499686592027  0.3644051132157 1.0
C      1  0.5791215358445  0.3511358964035  0.3680013865460 1.0
C      1  0.6535045129539  0.3504387122164  0.5005262718458 1.0
C      1  0.5750950202349  0.3497181408191  0.6302577950035 1.0
C      1  0.6007680154932  0.7189490994041  0.4936217640921 1.0
C      1  0.5564274026719  0.7201461933155  0.5783033152389 1.0
C      1  0.4561986781753  0.7170405196068  0.5748698287893 1.0
C      1  0.4028269096798  0.7196338630781  0.4898461776419 1.0
C      1  0.4529171325745  0.7186759322026  0.4085530130512 1.0
C      1  0.5494165481455  0.7166820314963  0.4117286900654 1.0
C      1  0.4692824740333  0.6176783431259  0.5518705468404 1.0
END
