TITL C-13650-7649-63 -2.302 3375.00 -361.08297387 0 0 45 (C1) n - 1
REM
REM Run started: at 2021.01.04 19:54:14 in /gpfs/home/chem/mssmkc/CARBON/AIRSS/Generating-Clusters/Str-Search/Higher-Symm/C4-100
REM VASP from code version vasp.5.4.4.18Apr17-6-g9f103f2a35 (build Oct 11 2019 16:45:47) gamma-only
REM
REM
REM
REM
REM ./C.cell (6bd13a13d554368a30d355f37ece5b26)
REM AIRSS Version 0.9.1 bugfix July 2018 build 013d7b7c2542+ Fri, 06 Jul 2018 19:26:36 +0100
REM compiler GCC version 6.3.0
REM options -cpp -iprefix /gpfs/warwick/csc/orac/software/Core/GCCcore/6.3.0/bin/../lib/gcc/x86_64-pc-linux-gnu/6.3.0/ -mtune=generic -march=x86-64 -g -O0
REM seed 1596714928 1897354001 -1140505889 47260420 -815093366 -764381466 914051807 -144198230 1142350961 544215960 1624618262 -460300508
REM
REM C.POTCAR (d86ddea03c3ceb6dc662c8ad6801f873)
REM 
CELL 1.54180   15.00000   15.00000   15.00000   90.00000   90.00000   90.00000
LATT -1
SFAC C  
C      1  0.5278209574981  0.5981480900689  0.2623346838639 1.0
C      1  0.3166073316572  0.6557867733713  0.3201571162056 1.0
C      1  0.2643588666333  0.6542052095320  0.4029988646616 1.0
C      1  0.2719570248279  0.6376425061843  0.6164061568104 1.0
C      1  0.3383210399169  0.6213371377321  0.6834293569729 1.0
C      1  0.5533403759088  0.5663976184675  0.6726764321559 1.0
C      1  0.6231921186163  0.5253280049208  0.6229958995732 1.0
C      1  0.6395385656422  0.5417613942336  0.5301947090311 1.0
C      1  0.6025051493706  0.5650761811420  0.3191761354148 1.0
C      1  0.5363115961470  0.6647588072041  0.5401029816258 1.0
C      1  0.5908810307217  0.6121070440271  0.4865822636508 1.0
C      1  0.5685966216727  0.6133148593257  0.3939485259974 1.0
C      1  0.4875029467758  0.6377134424941  0.3458488974574 1.0
C      1  0.4001911607990  0.6555508519385  0.3729831889616 1.0
C      1  0.3481486896339  0.6598122945136  0.4579350192213 1.0
C      1  0.3488036897792  0.6590288472382  0.5492512490318 1.0
C      1  0.4091496295576  0.6459956048117  0.6223727611980 1.0
C      1  0.5031339120213  0.6329905415381  0.6211405598147 1.0
C      1  0.0949043638256  0.6067542856531  0.5870982638799 1.0
C      1  0.4393454396618  0.5493748796811  0.7868070583985 1.0
C      1  0.5807640773974  0.4533016055193  0.7779578813171 1.0
C      1  0.6398096805006  0.4158782242010  0.7315284430104 1.0
C      1  0.7026152963182  0.4027722573517  0.5658584591734 1.0
C      1  0.6971054547890  0.4644513986925  0.4030583169836 1.0
C      1  0.5025723293654  0.5792493295029  0.0899863671535 1.0
C      1  0.2644194435222  0.6633211181353  0.1528353198285 1.0
C      1  0.1368842384454  0.6263493112631  0.5073308627584 1.0
C      1  0.6290000778296  0.0987789044174  0.5953008307408 1.0
C      1  0.6627641733404  0.1709393135891  0.6361513773419 1.0
C      1  0.6969298588063  0.2419235159320  0.6077585394731 1.0
C      1  0.7158372884617  0.3119056108176  0.5468614856959 1.0
C      1  0.7213158360614  0.2796288263956  0.4573771205808 1.0
C      1  0.6954831037283  0.2095255250672  0.4186256042755 1.0
C      1  0.6630645550942  0.1291607230221  0.3918905831768 1.0
C      1  0.6321716583968  0.0782287743442  0.4523374935184 1.0
C      1  0.6117828559043  0.0431936811653  0.5332072578226 1.0
C      1  0.6901399583321  0.4675127802212  0.4951708138053 1.0
C      1  0.6670958264047  0.5010134415305  0.3338017875390 1.0
C      1  0.5096661917761  0.5906996381908  0.1748351635369 1.0
C      1  0.2933241304460  0.6568082623353  0.2331362385199 1.0
C      1  0.1818053897131  0.6425419596401  0.4352263924951 1.0
C      1  0.1843408215083  0.6230355086810  0.5999003658565 1.0
C      1  0.3668968577984  0.5811155667332  0.7617811378985 1.0
C      1  0.5243880961984  0.5243197565844  0.7576012768667 1.0
C      1  0.6652125891944  0.4412614925893  0.6460408567048 1.0
END
