TITL C-13650-7649-34 -3.851 3375.00 -632.50299620 0 0 79 (C1) n - 1
REM
REM Run started: at 2021.01.04 15:02:07 in /gpfs/home/chem/mssmkc/CARBON/AIRSS/Generating-Clusters/Str-Search/Higher-Symm/C4-100
REM VASP from code version vasp.5.4.4.18Apr17-6-g9f103f2a35 (build Oct 11 2019 16:45:47) gamma-only
REM
REM
REM
REM
REM ./C.cell (6bd13a13d554368a30d355f37ece5b26)
REM AIRSS Version 0.9.1 bugfix July 2018 build 013d7b7c2542+ Fri, 06 Jul 2018 19:26:36 +0100
REM compiler GCC version 6.3.0
REM options -cpp -iprefix /gpfs/warwick/csc/orac/software/Core/GCCcore/6.3.0/bin/../lib/gcc/x86_64-pc-linux-gnu/6.3.0/ -mtune=generic -march=x86-64 -g -O0
REM seed 2144519153 549594887 1364359041 393142429 -1713653180 1674289975 -1453633542 373432472 -484301389 -667894802 -1982226994 -945738776
REM
REM C.POTCAR (d86ddea03c3ceb6dc662c8ad6801f873)
REM 
CELL 1.54180   15.00000   15.00000   15.00000   90.00000   90.00000   90.00000
LATT -1
SFAC C  
C      1  0.2751269474664  0.6485143152475  0.5576655816558 1.0
C      1  0.4049081274474  0.3025389095461  0.3892474026647 1.0
C      1  0.3355953365559  0.3690802236247  0.2496196852787 1.0
C      1  0.5708245808651  0.5960154935106  0.4493166879770 1.0
C      1  0.3248881791428  0.3185605138713  0.3288742876340 1.0
C      1  0.3736255044810  0.3196162375295  0.5527828933540 1.0
C      1  0.2695693083219  0.3281543844309  0.4128302260016 1.0
C      1  0.6608083312262  0.3460507730919  0.3527357465866 1.0
C      1  0.4531648506483  0.7569245657078  0.3576225951002 1.0
C      1  0.3568915049641  0.4603276804381  0.7359495184960 1.0
C      1  0.4385046096739  0.5469007976809  0.3999483541259 1.0
C      1  0.6738738295276  0.5022825139835  0.5921419621952 1.0
C      1  0.2615001860577  0.4291725859225  0.2376140333040 1.0
C      1  0.4765104565229  0.4219863058636  0.1519772540098 1.0
C      1  0.6476497534750  0.4329222506003  0.2118853595862 1.0
C      1  0.2341229557361  0.5020621804547  0.6023451707294 1.0
C      1  0.4666645590382  0.5252064891967  0.8442162571534 1.0
C      1  0.5870171308297  0.6076290721669  0.7284439320284 1.0
C      1  0.4273212288570  0.3781562845567  0.2190371269587 1.0
C      1  0.3760763053472  0.4792614697825  0.4019571468084 1.0
C      1  0.7409238279297  0.5782272404536  0.4664746642026 1.0
C      1  0.5635505310630  0.7759155365435  0.4669202303480 1.0
C      1  0.5017076535982  0.2711575409575  0.4017028436160 1.0
C      1  0.3208021969609  0.3898896436938  0.5882208401959 1.0
C      1  0.6917082339129  0.3065657283781  0.5150880351628 1.0
C      1  0.3240813698410  0.7306797601195  0.5666721309059 1.0
C      1  0.5172566737373  0.4273217885610  0.3663134495376 1.0
C      1  0.5623199840250  0.3335150439185  0.3494512143957 1.0
C      1  0.4255606336050  0.4017646694832  0.3905698612421 1.0
C      1  0.4889577499968  0.6408838703496  0.5042998722520 1.0
C      1  0.3305347606016  0.4778771915466  0.6408996935935 1.0
C      1  0.2161016343413  0.5899673701097  0.5942601320640 1.0
C      1  0.6692634777215  0.2838852774134  0.5924926871925 1.0
C      1  0.6460721270231  0.7349657564058  0.4988338172653 1.0
C      1  0.6217651112214  0.4738670611883  0.6634516255684 1.0
C      1  0.4071284489592  0.3822025735923  0.7436101766257 1.0
C      1  0.5638790414380  0.4195374310311  0.1926336747034 1.0
C      1  0.6672953044538  0.6590943443599  0.7373287222843 1.0
C      1  0.3942473443270  0.7058410571031  0.3854184517487 1.0
C      1  0.5423981675378  0.7810348181850  0.3741653131637 1.0
C      1  0.5518788469847  0.7205597280334  0.6143458077759 1.0
C      1  0.7520917984410  0.6420214393194  0.6946907058974 1.0
C      1  0.5294753421553  0.5264264992464  0.3963698578996 1.0
C      1  0.7801729212646  0.4154325660415  0.4185701599124 1.0
C      1  0.5887361068223  0.5103486580599  0.7434149709965 1.0
C      1  0.3876079021754  0.5453603115271  0.5857331305988 1.0
C      1  0.2944211224888  0.5150558840808  0.4369335282581 1.0
C      1  0.7942073651173  0.5995310824963  0.6290704990890 1.0
C      1  0.5100705644747  0.2550821066694  0.4885126509011 1.0
C      1  0.4657664447014  0.5939175749349  0.5947389219341 1.0
C      1  0.7708302885935  0.5105100208583  0.4130282762438 1.0
C      1  0.5119483094086  0.3798939240779  0.2728292043552 1.0
C      1  0.7444052187447  0.5579431121045  0.5631122654129 1.0
C      1  0.6672289911608  0.6451346858878  0.4422415160125 1.0
C      1  0.2208970374640  0.4042521798143  0.4502174318258 1.0
C      1  0.6967221075735  0.7194829086157  0.6710887467865 1.0
C      1  0.2217377496889  0.4650374545285  0.3025237216997 1.0
C      1  0.3411744401946  0.2973062303757  0.4656722378380 1.0
C      1  0.6144306976168  0.7433631133056  0.3248721512170 1.0
C      1  0.6958273453617  0.4106687152767  0.2885081949156 1.0
C      1  0.3929904568159  0.5136127303564  0.8021623680982 1.0
C      1  0.3334089843521  0.5855992074276  0.5024699069063 1.0
C      1  0.2398764189952  0.4212934054624  0.5462148065535 1.0
C      1  0.4962826582083  0.3780510918468  0.7705086374368 1.0
C      1  0.2106844011028  0.4827068534807  0.3934057479007 1.0
C      1  0.7143838351372  0.3451132153074  0.4333421875399 1.0
C      1  0.4069150190804  0.6276763465499  0.4443694308103 1.0
C      1  0.5309599763428  0.4670372196159  0.8023614049967 1.0
C      1  0.6049907279489  0.2736184372389  0.6579016486732 1.0
C      1  0.6020866179102  0.4428549210656  0.5760101998520 1.0
C      1  0.5123100342569  0.2638727837171  0.6449313077967 1.0
C      1  0.7680303058447  0.4546565470384  0.3340309545615 1.0
C      1  0.5412839213966  0.3113739464594  0.7197807505867 1.0
C      1  0.6683879686638  0.6851931573225  0.3495061811059 1.0
C      1  0.4954846872735  0.7419356911768  0.5345454308991 1.0
C      1  0.4614383323100  0.2741722935215  0.5663467897932 1.0
C      1  0.5276921181150  0.6394169718940  0.6609523806654 1.0
C      1  0.6433641917167  0.7362779199779  0.5961178043992 1.0
C      1  0.3996006856174  0.7626523146864  0.5535492241388 1.0
END
