TITL C-13650-7649-24 -3.475 3375.00 -604.63018676 0 0 74 (C1) n - 1
REM
REM Run started: at 2021.01.04 13:10:25 in /gpfs/home/chem/mssmkc/CARBON/AIRSS/Generating-Clusters/Str-Search/Higher-Symm/C4-100
REM VASP from code version vasp.5.4.4.18Apr17-6-g9f103f2a35 (build Oct 11 2019 16:45:47) gamma-only
REM
REM
REM
REM
REM ./C.cell (6bd13a13d554368a30d355f37ece5b26)
REM AIRSS Version 0.9.1 bugfix July 2018 build 013d7b7c2542+ Fri, 06 Jul 2018 19:26:36 +0100
REM compiler GCC version 6.3.0
REM options -cpp -iprefix /gpfs/warwick/csc/orac/software/Core/GCCcore/6.3.0/bin/../lib/gcc/x86_64-pc-linux-gnu/6.3.0/ -mtune=generic -march=x86-64 -g -O0
REM seed 2116919024 -937261290 -1559648677 -1522970498 1695045794 -2022828800 -166691679 389132373 535558588 -1171290677 -1309784521 574990056
REM
REM C.POTCAR (d86ddea03c3ceb6dc662c8ad6801f873)
REM 
CELL 1.54180   15.00000   15.00000   15.00000   90.00000   90.00000   90.00000
LATT -1
SFAC C  
C      1  0.5023270792917  0.6829638290738  0.3440585547739 1.0
C      1  0.4786171372868  0.6907525550450  0.6668418344844 1.0
C      1  0.4788201686485  0.3177353149653  0.3333221010893 1.0
C      1  0.5020390903377  0.3260532573052  0.6558710271372 1.0
C      1  0.3442000959554  0.6853088329956  0.5024179398732 1.0
C      1  0.6671609359630  0.6887402221626  0.4786026789250 1.0
C      1  0.3439246220987  0.3240399065834  0.4978284842398 1.0
C      1  0.6667042892704  0.3199014413715  0.5209069867486 1.0
C      1  0.4639232344197  0.5394310089586  0.5991373144664 1.0
C      1  0.5348179107669  0.5341013348467  0.4004474606621 1.0
C      1  0.5346529054999  0.4746400467071  0.5994228355255 1.0
C      1  0.4640913457089  0.4692984149618  0.4011670053490 1.0
C      1  0.5992095366369  0.5365122004495  0.4641223365939 1.0
C      1  0.3999074535133  0.5370853462924  0.5350926495686 1.0
C      1  0.5990516664219  0.4722143641261  0.5356823348273 1.0
C      1  0.4000417089909  0.4718444897712  0.4651722250857 1.0
C      1  0.6365446121606  0.4666137605251  0.7083177174914 1.0
C      1  0.3580808110478  0.4621140240395  0.2929766114762 1.0
C      1  0.3577558589449  0.5468379089898  0.7073878915724 1.0
C      1  0.6366583045814  0.5419132728158  0.2914016938704 1.0
C      1  0.7061997901417  0.4670120083405  0.6400392009974 1.0
C      1  0.2909935518314  0.4617407816623  0.3617152398873 1.0
C      1  0.7063573980320  0.5414933084317  0.3595826383572 1.0
C      1  0.2907257470361  0.5474992574735  0.6386997359513 1.0
C      1  0.4334774712352  0.7193921925614  0.5018818650547 1.0
C      1  0.5858801699196  0.7354300610819  0.4812888456956 1.0
C      1  0.5855268157436  0.2730704995293  0.5187451884333 1.0
C      1  0.4331868985196  0.2896558249537  0.4981981859491 1.0
C      1  0.5024773569006  0.7182341976959  0.4330229484699 1.0
C      1  0.4819412723725  0.7368243381861  0.5852003620189 1.0
C      1  0.5021842055112  0.2908153654406  0.5669172207922 1.0
C      1  0.4815524599060  0.2715187329054  0.4149367940436 1.0
C      1  0.2501119452681  0.4639938264309  0.6170730021024 1.0
C      1  0.7437261918173  0.4588598650998  0.3818948449286 1.0
C      1  0.7437135061491  0.5494756432453  0.6177792048312 1.0
C      1  0.2504835908978  0.5452499555557  0.3833030223332 1.0
C      1  0.6148078020810  0.4588636211082  0.2540555554372 1.0
C      1  0.3797411063825  0.4641618479903  0.7486280236698 1.0
C      1  0.6147409814739  0.5495428892891  0.7456781895157 1.0
C      1  0.3800534583177  0.5446708900615  0.2515521925595 1.0
C      1  0.2798543834162  0.6706337712100  0.4347278545588 1.0
C      1  0.7233411145104  0.6737801308947  0.5562917098884 1.0
C      1  0.7231848562910  0.3346456714481  0.4434060429514 1.0
C      1  0.2795919262990  0.3386903970697  0.5654650543354 1.0
C      1  0.4340256562666  0.6691512690712  0.2801521195593 1.0
C      1  0.5552972047486  0.6752807609603  0.7242812087845 1.0
C      1  0.4337179837599  0.3397982803502  0.7196975849347 1.0
C      1  0.5553573795935  0.3331079479495  0.2755724985043 1.0
C      1  0.4452406658332  0.4151229278642  0.3151126011779 1.0
C      1  0.5481538102225  0.4193538041543  0.6839779902617 1.0
C      1  0.5483384043050  0.5893680498881  0.3158440082122 1.0
C      1  0.4449785258944  0.5935097546564  0.6851607445549 1.0
C      1  0.3155608312424  0.4166163067330  0.4506785430972 1.0
C      1  0.6848576505147  0.4177170917958  0.5533893390539 1.0
C      1  0.3155913795035  0.5926082110775  0.5496787078331 1.0
C      1  0.6851240311289  0.5909123121729  0.4461929376077 1.0
C      1  0.2775552744207  0.6322242491628  0.3426274195154 1.0
C      1  0.7140215988537  0.6389716718827  0.6509673249538 1.0
C      1  0.7141514270152  0.3694061982428  0.3486350824474 1.0
C      1  0.2770439968181  0.3767414780712  0.6576042724451 1.0
C      1  0.3411766098805  0.6321095861705  0.2784851792399 1.0
C      1  0.6492109789046  0.6389244561028  0.7155405528401 1.0
C      1  0.3408296749957  0.3766611786987  0.7216860042922 1.0
C      1  0.6493779831774  0.3694706676520  0.2840248370539 1.0
C      1  0.5256577045660  0.4187865784267  0.2502420275461 1.0
C      1  0.4680367733652  0.4237522349454  0.7492168412313 1.0
C      1  0.4682943824753  0.5851265801332  0.2507603381435 1.0
C      1  0.5255442004129  0.5897543545836  0.7498211795496 1.0
C      1  0.2495026937816  0.4218236290357  0.5297367808724 1.0
C      1  0.7487230242041  0.4207144947647  0.4718930762010 1.0
C      1  0.2496394622214  0.5876489517442  0.4705769968952 1.0
C      1  0.7489073332596  0.5877953106033  0.5277728703649 1.0
C      1  0.5671792628066  0.7740664096931  0.5661018270154 1.0
C      1  0.5665213282296  0.2336568437615  0.4343084992894 1.0
END
