TITL C-13527-1983-34 -7.886 3375.00 -1401.67039867 0 0 171 (C1) n - 1
REM
REM Run started: at 2021.01.01 08:51:46 in /gpfs/home/chem/mssmkc/CARBON/AIRSS/Generating-Clusters/Str-Search/Higher-Symm/C100-200
REM VASP from code version vasp.5.4.4.18Apr17-6-g9f103f2a35 (build Oct 11 2019 16:45:47) gamma-only
REM
REM
REM
REM
REM ./C.cell (533062f00bc710175b3da973d35f2034)
REM AIRSS Version 0.9.1 bugfix July 2018 build 013d7b7c2542+ Fri, 06 Jul 2018 19:26:36 +0100
REM compiler GCC version 6.3.0
REM options -cpp -iprefix /gpfs/warwick/csc/orac/software/Core/GCCcore/6.3.0/bin/../lib/gcc/x86_64-pc-linux-gnu/6.3.0/ -mtune=generic -march=x86-64 -g -O0
REM seed -1589272305 -746398116 1776158410 -296941414 -146568455 -713165096 54783610 -1258309158 -93766453 523942524 -1894417001 -1702968775
REM
REM C.POTCAR (d86ddea03c3ceb6dc662c8ad6801f873)
REM 
CELL 1.54180   15.00000   15.00000   15.00000   90.00000   90.00000   90.00000
LATT -1
SFAC C  
C      1  0.1734539186470  0.5338402038927  0.4206837489262 1.0
C      1  0.1977962428383  0.4293102394148  0.4287022382536 1.0
C      1  0.2073054814469  0.4146187816045  0.5299280604131 1.0
C      1  0.2113086582113  0.5000450218940  0.5815556368722 1.0
C      1  0.1958509653937  0.5666036321021  0.5073619256061 1.0
C      1  0.2897214383590  0.6579382370782  0.4142532063347 1.0
C      1  0.3035531308352  0.4295825820745  0.2923622374672 1.0
C      1  0.3136429505773  0.2947727082714  0.5004392745035 1.0
C      1  0.3252466572614  0.4319147032173  0.7462890507548 1.0
C      1  0.3165138574049  0.6475757382482  0.5900579704427 1.0
C      1  0.4178600164144  0.4280614316815  0.7319698656726 1.0
C      1  0.4061581584277  0.6666554709999  0.6183720845094 1.0
C      1  0.3887793904542  0.6744235336190  0.4043295373870 1.0
C      1  0.4029628863991  0.4188206463860  0.2738355061271 1.0
C      1  0.4047969893129  0.2810105992088  0.4974342227923 1.0
C      1  0.5031507656479  0.4096548637392  0.5099731495854 1.0
C      1  0.5289883054220  0.4824281646194  0.5645613443317 1.0
C      1  0.5400387517867  0.5660185239426  0.5307145056594 1.0
C      1  0.4209563058600  0.5189815474556  0.4306426744476 1.0
C      1  0.4783181292828  0.4421464659360  0.4203886492145 1.0
C      1  0.5818581844646  0.7644033112508  0.7214488658392 1.0
C      1  0.5632324431491  0.8002544473176  0.3405336110341 1.0
C      1  0.6338006333662  0.4239390770636  0.1587599306662 1.0
C      1  0.5663108852522  0.1471537960107  0.4562041883984 1.0
C      1  0.5994921268677  0.3838456486918  0.8310466757670 1.0
C      1  0.6499683594966  0.1988866209284  0.6907414561649 1.0
C      1  0.7551941595152  0.5731268451171  0.7987212896879 1.0
C      1  0.7218468083654  0.8167219170595  0.5168747348356 1.0
C      1  0.6396591887953  0.6217869474419  0.1849199929040 1.0
C      1  0.7266461007571  0.2487817059594  0.2998560308980 1.0
C      1  0.3279048526971  0.4956729853761  0.1399152005306 1.0
C      1  0.2916489901053  0.2011084366534  0.3712491912305 1.0
C      1  0.3209341185388  0.2724425861940  0.8033013541002 1.0
C      1  0.2857290081949  0.6685038434913  0.7516638586880 1.0
C      1  0.2826841954773  0.8305962092031  0.3917111162358 1.0
C      1  0.4874725181348  0.7352475216124  0.7539677149355 1.0
C      1  0.4785161632055  0.8307141146835  0.3724852025655 1.0
C      1  0.5605925791269  0.4688947641528  0.1153402589199 1.0
C      1  0.4814748143423  0.1530768186413  0.4062840380985 1.0
C      1  0.5122454807938  0.3563571697508  0.8280259309218 1.0
C      1  0.6678465684629  0.3381432560237  0.1603878656879 1.0
C      1  0.5455748489107  0.1295138501735  0.5462787722696 1.0
C      1  0.6366738657266  0.4551974896395  0.8850990569005 1.0
C      1  0.6073541698472  0.8328212746811  0.6630633763726 1.0
C      1  0.5546678232091  0.7602502951606  0.2546166807110 1.0
C      1  0.6620180503577  0.4753310754615  0.2399920978577 1.0
C      1  0.6426836001916  0.2175648217095  0.4437525579937 1.0
C      1  0.6569650538188  0.3589341803444  0.7443476849293 1.0
C      1  0.6496230123960  0.6867361346865  0.7140111119068 1.0
C      1  0.6306796389094  0.7536156362108  0.3953225103252 1.0
C      1  0.3288242614668  0.6448964568908  0.1994206256396 1.0
C      1  0.2610152960879  0.3367759379504  0.3011475004569 1.0
C      1  0.3057125869682  0.2008166799835  0.6604475270644 1.0
C      1  0.2718711948886  0.5126550809218  0.7519379897951 1.0
C      1  0.2067135108125  0.8621627786804  0.5317925998298 1.0
C      1  0.2588047034796  0.6325331592735  0.6634894320651 1.0
C      1  0.2405295294694  0.7466166417778  0.4249997849664 1.0
C      1  0.2782787078512  0.5002914029551  0.2186607963707 1.0
C      1  0.2553780436845  0.2688373548819  0.4311390461658 1.0
C      1  0.2936236415370  0.3377825661141  0.7353237262291 1.0
C      1  0.7826820910778  0.6753398667758  0.6682065225734 1.0
C      1  0.7586452726475  0.7004842186222  0.3730004609714 1.0
C      1  0.7783866294015  0.5582691682414  0.2928739903464 1.0
C      1  0.8037962371535  0.2605204545122  0.4374574582584 1.0
C      1  0.7990785447578  0.5076009790627  0.7409017028365 1.0
C      1  0.8143395349097  0.4913177991986  0.5784417679372 1.0
C      1  0.8169362854887  0.5828078535079  0.5301701260991 1.0
C      1  0.8459257071492  0.5682560815532  0.4353306015375 1.0
C      1  0.8294986241768  0.4751443976153  0.4171422194374 1.0
C      1  0.8121608958844  0.4167150127222  0.5021060958148 1.0
C      1  0.4236303025939  0.4452156920602  0.9390607573277 1.0
C      1  0.4022419662597  0.8701069336616  0.6891356563097 1.0
C      1  0.4597703132795  0.7694214777318  0.2277103865487 1.0
C      1  0.4807993106488  0.3173391144273  0.1265932009520 1.0
C      1  0.4420995173723  0.1148680621696  0.5521820681969 1.0
C      1  0.4514196858508  0.6212697998544  0.1341554081432 1.0
C      1  0.3939735766283  0.2309644803358  0.2492677795568 1.0
C      1  0.4151677805983  0.1755744145902  0.7110099896130 1.0
C      1  0.3859150112610  0.5927696372427  0.8545938421941 1.0
C      1  0.3750626370913  0.8887867241555  0.5177537771402 1.0
C      1  0.7403289449977  0.6561676052097  0.7531322268374 1.0
C      1  0.7252752831088  0.7731431361109  0.4337603515654 1.0
C      1  0.7078548350684  0.5613481142851  0.2250922094164 1.0
C      1  0.7317935099177  0.2235016502560  0.3866759584933 1.0
C      1  0.6827739017162  0.2626155110351  0.7341770031690 1.0
C      1  0.4666441529542  0.3390806602209  0.7402290983880 1.0
C      1  0.4471472612589  0.6539147940131  0.7065532136030 1.0
C      1  0.4345975454674  0.7503746899697  0.4335518389295 1.0
C      1  0.4417804441994  0.4972095611059  0.2385708159348 1.0
C      1  0.4447766537741  0.2471173479488  0.4175534190946 1.0
C      1  0.6651397850125  0.6818734954154  0.3344463344393 1.0
C      1  0.7093264923183  0.4086182789738  0.3005388216297 1.0
C      1  0.6613662935447  0.2370479788057  0.5434007515514 1.0
C      1  0.7087599245711  0.4564611920443  0.7423309165978 1.0
C      1  0.6997561932799  0.7138209209404  0.6256707911111 1.0
C      1  0.2488779345132  0.5809942014419  0.3554404175624 1.0
C      1  0.2823444008344  0.4851463595200  0.3843830714890 1.0
C      1  0.2770796927844  0.3536304250741  0.5682904529667 1.0
C      1  0.3011758394114  0.4531767232098  0.5518250945330 1.0
C      1  0.2870152682687  0.6065902549318  0.5018097248471 1.0
C      1  0.6249377083948  0.6958714199520  0.2415195279083 1.0
C      1  0.7082286484594  0.3183486917500  0.2460812689406 1.0
C      1  0.6207539389152  0.1759990326357  0.6017485882919 1.0
C      1  0.6903403728523  0.5040877612348  0.8315245822704 1.0
C      1  0.6810074293317  0.8113250885176  0.5977186060301 1.0
C      1  0.6478353062605  0.3368189242359  0.5654967579151 1.0
C      1  0.6524411599143  0.5088076427480  0.6700628442728 1.0
C      1  0.6509514882474  0.6642619989819  0.5492096625353 1.0
C      1  0.6215427753454  0.5885318611201  0.3715305226393 1.0
C      1  0.6376740596170  0.3919524959623  0.3776857506362 1.0
C      1  0.4737687913797  0.3829213641199  0.3360254266258 1.0
C      1  0.4779645047002  0.3205774067221  0.5540275668284 1.0
C      1  0.4904213893096  0.4883257070114  0.7135998725960 1.0
C      1  0.4857523536084  0.6932921880879  0.5784020313474 1.0
C      1  0.4491884771611  0.6047746769646  0.4091900476472 1.0
C      1  0.6007320658445  0.6011662501349  0.6874860508739 1.0
C      1  0.5875248806189  0.7059919569276  0.4707450857680 1.0
C      1  0.5850883327044  0.5194253678534  0.3037073993726 1.0
C      1  0.5944830943275  0.3038942098767  0.4131105442416 1.0
C      1  0.6005018960876  0.3599782467844  0.6553709253444 1.0
C      1  0.4154258352506  0.6979831300631  0.1890852175599 1.0
C      1  0.4343260555875  0.2644000927401  0.1739302769051 1.0
C      1  0.3883111867120  0.1466028677347  0.6232676398810 1.0
C      1  0.4088260299753  0.5217830537472  0.9091402773519 1.0
C      1  0.3876095355043  0.8918080967918  0.6106149533314 1.0
C      1  0.3615351162185  0.5861868737364  0.1263381816513 1.0
C      1  0.3048887217128  0.2497861114622  0.2862309669992 1.0
C      1  0.3268262050449  0.1862570964057  0.7543069389594 1.0
C      1  0.3028812790638  0.5894346444159  0.8038228634004 1.0
C      1  0.2884254924511  0.8828985905743  0.4803034330414 1.0
C      1  0.5083401754564  0.2927227304671  0.3606951301329 1.0
C      1  0.5126466341850  0.3102560626673  0.6534129742418 1.0
C      1  0.5117928971189  0.5804122503800  0.7332541669180 1.0
C      1  0.5037135076981  0.7510966629188  0.5034134469738 1.0
C      1  0.5159577463736  0.5437221906796  0.2412146160771 1.0
C      1  0.4356885778756  0.3621884012656  0.8931300182633 1.0
C      1  0.4024457313338  0.7954274052229  0.7476676442155 1.0
C      1  0.4151376134296  0.8260804867729  0.2943000883334 1.0
C      1  0.4844431517324  0.4102158058713  0.1121244027441 1.0
C      1  0.4054664461579  0.1109743363015  0.4595754977043 1.0
C      1  0.8419337244376  0.6180531157105  0.6242941113291 1.0
C      1  0.8128327231569  0.6222595224432  0.3618968751796 1.0
C      1  0.7872607018830  0.4676123547147  0.3309322174157 1.0
C      1  0.8317701358764  0.3225960586289  0.4851840394891 1.0
C      1  0.8472250757010  0.5289268355973  0.6643384010870 1.0
C      1  0.3697883678785  0.3034966035345  0.8728870471925 1.0
C      1  0.3272370424676  0.7481168857909  0.7637616548807 1.0
C      1  0.3283673907567  0.8357668165023  0.3147037981377 1.0
C      1  0.4084623615669  0.4451260562240  0.1637632697093 1.0
C      1  0.3270794719847  0.1282774357060  0.4169336654876 1.0
C      1  0.2090691375317  0.3401779376081  0.3822884456143 1.0
C      1  0.2804828210176  0.2985795967510  0.6526825061414 1.0
C      1  0.2247198480918  0.5417282449825  0.6720744255073 1.0
C      1  0.2063210876674  0.7788260337666  0.5063559926690 1.0
C      1  0.2718194151754  0.5902129937598  0.2563124815577 1.0
C      1  0.5455733998094  0.6150607466629  0.4379504919276 1.0
C      1  0.5531917410882  0.4410926929274  0.3528447811670 1.0
C      1  0.5656566991688  0.3344274554462  0.5051524318625 1.0
C      1  0.5677797416051  0.4565191022977  0.6530615287161 1.0
C      1  0.5692598347131  0.6314994493580  0.5959005552555 1.0
C      1  0.4579174638439  0.6405914686646  0.8015103597332 1.0
C      1  0.4493125932680  0.8394415048578  0.4689928495793 1.0
C      1  0.5469132852022  0.5705965976595  0.1486487149520 1.0
C      1  0.4579310048285  0.2119314880501  0.3262520596081 1.0
C      1  0.4730841190223  0.2459129101104  0.7136129531724 1.0
C      1  0.6739615776704  0.5400289291439  0.4392545637891 1.0
C      1  0.6666083291710  0.4511813165597  0.4482154588427 1.0
C      1  0.7029716070759  0.4166319381085  0.5291958773392 1.0
C      1  0.7096286923791  0.5009458715382  0.5860758366033 1.0
C      1  0.7070931302937  0.5822513022409  0.5222222408948 1.0
C      1  0.3335564637684  0.5092121487554  0.4720170691761 1.0
END
