TITL C-135484-4204-35 -2.546 3375.00 -433.36995813 0 0 53 (C1) n - 1
REM
REM Run started: at 2020.11.27 15:33:15 in /rds/project/t2_vol4/rds-t2-cs072/BORA/CARBON/AIRSS/Generating-Clusters/Str-Search/Higher-Symm/C10-100
REM VASP from code version vasp.5.4.4.18Apr17-6-g9f103f2a35 (build Oct 11 2019 16:45:47) gamma-only
REM
REM
REM
REM
REM ./C.cell (f39ce9773e2efe3fa5bbdf770a4156b8)
REM AIRSS Version 0.9.1 bugfix July 2018 build 013d7b7c2542+ Fri, 06 Jul 2018 19:26:36 +0100
REM compiler GCC version 4.8.5 20150623 (Red Hat 4.8.5-39)
REM options -cpp -mtune=generic -march=x86-64 -g -O0
REM seed -87344161 -1594191642 -1726858419 1096161638 -1963344928 1682645850 111807228 679637798 -1442778084 948325837 674880775 -206217518
REM
REM C.POTCAR (d86ddea03c3ceb6dc662c8ad6801f873)
REM 
CELL 1.54180   15.00000   15.00000   15.00000   90.00000   90.00000   90.00000
LATT -1
SFAC C  
C      1  0.6167792190247  0.6825708731498  0.5489743406634 1.0
C      1  0.6773311795135  0.5436663252009  0.6071959784180 1.0
C      1  0.5432098729969  0.6106138522820  0.6792325768633 1.0
C      1  0.3901343386435  0.6693974627112  0.4669251887419 1.0
C      1  0.3973036335722  0.3161859906646  0.5632352077155 1.0
C      1  0.6400718465120  0.3140060128637  0.4493836427525 1.0
C      1  0.3251791418715  0.5303523142725  0.4024684555467 1.0
C      1  0.3198549930403  0.4500401666736  0.6250136291010 1.0
C      1  0.6940179685795  0.4600812392992  0.3896320932711 1.0
C      1  0.4682342889742  0.5894986360909  0.3390324066100 1.0
C      1  0.4531607784989  0.3942840232745  0.6983878696973 1.0
C      1  0.5608782331674  0.3851341688552  0.3258791679599 1.0
C      1  0.5484788005842  0.6813694517335  0.6123627240690 1.0
C      1  0.6068330163215  0.5437252211570  0.6764195556936 1.0
C      1  0.6825170112471  0.6112610243567  0.5442503278145 1.0
C      1  0.4664370271509  0.6621088327590  0.4087469404843 1.0
C      1  0.5641073555152  0.3169697232043  0.3958597761975 1.0
C      1  0.4504735553280  0.3139301610208  0.6395280178312 1.0
C      1  0.3945730550246  0.5274844799905  0.3346758902018 1.0
C      1  0.6264710567640  0.4515359194176  0.3196194317373 1.0
C      1  0.3895236077628  0.4593772322690  0.6928130993743 1.0
C      1  0.3234429756806  0.5991087151664  0.4670085977457 1.0
C      1  0.6984893132151  0.3949442864704  0.4533066435922 1.0
C      1  0.3265108638544  0.3831348261113  0.5609200969901 1.0
C      1  0.6154093500199  0.4471311243590  0.6858017541384 1.0
C      1  0.4539014747657  0.6976659953177  0.6178106068323 1.0
C      1  0.6892123757710  0.6244427220713  0.4452492891608 1.0
C      1  0.3949023595760  0.4365262526480  0.2985510871926 1.0
C      1  0.3781891935680  0.5583023454550  0.6887751658314 1.0
C      1  0.6278384974151  0.5459289127741  0.3031198224676 1.0
C      1  0.5549040809687  0.7134535587329  0.3911386867459 1.0
C      1  0.5446782062354  0.2963600090967  0.6545494342238 1.0
C      1  0.4638398757039  0.3141008147827  0.3962944954609 1.0
C      1  0.2821267412637  0.6079555524250  0.5566687031599 1.0
C      1  0.3167416835637  0.3761204016288  0.4668732084428 1.0
C      1  0.7024442512538  0.3831773902214  0.5504706359223 1.0
C      1  0.6862925791233  0.4470794011878  0.6155755831287 1.0
C      1  0.6242040020874  0.6997598582214  0.4547861339570 1.0
C      1  0.4448404017426  0.6229384962584  0.6844336000909 1.0
C      1  0.2908705611680  0.4377391772670  0.3998035056362 1.0
C      1  0.6917227568513  0.5592213680497  0.3786043859345 1.0
C      1  0.3027512101321  0.5443599171125  0.6243308042140 1.0
C      1  0.3843564522971  0.7124429664058  0.5549848133162 1.0
C      1  0.6545422894428  0.2964197193799  0.5435243532173 1.0
C      1  0.3969416625327  0.3136293126887  0.4627802358114 1.0
C      1  0.5561163186017  0.6072454829290  0.2881139212404 1.0
C      1  0.4664589418927  0.3773179637613  0.3171053289568 1.0
C      1  0.5507805524492  0.3829533904050  0.7028168760341 1.0
C      1  0.2974460082734  0.6951089198486  0.5913563707676 1.0
C      1  0.5843823978968  0.6951705071654  0.3034583576381 1.0
C      1  0.5989559615636  0.2496561806876  0.5985778136032 1.0
C      1  0.3080687901158  0.3992911365305  0.3143739806088 1.0
C      1  0.4984660908817  0.5684953835947  0.4343072871936 1.0
END
