TITL C-133901-9294-6 -1.18 3375.00 -197.08628525 0 0 25 (C3) n - 1
REM
REM Run started: at 2020.11.23 23:21:02 in /rds/project/t2_vol4/rds-t2-cs072/BORA/CARBON/AIRSS/Generating-Clusters/Str-Search/Higher-Symm
REM VASP from code version vasp.5.4.4.18Apr17-6-g9f103f2a35 (build Oct 11 2019 16:45:47) gamma-only
REM
REM
REM
REM
REM ./C.cell (e5ae0387ce4d49c7c0135a1433873289)
REM AIRSS Version 0.9.1 bugfix July 2018 build 013d7b7c2542+ Fri, 06 Jul 2018 19:26:36 +0100
REM compiler GCC version 4.8.5 20150623 (Red Hat 4.8.5-39)
REM options -cpp -mtune=generic -march=x86-64 -g -O0
REM seed -804163152 -1715514099 -1333405823 517754998 -1213574203 -767489357 -1455608118 -1239145596 729253998 -1946519769 982135165 -420922474
REM
REM C.POTCAR (d86ddea03c3ceb6dc662c8ad6801f873)
REM 
CELL 1.54180   15.00000   15.00000   15.00000   90.00000   90.00000   90.00000
LATT -1
SFAC C  
C      1  0.6137558159017  0.6092634863307  0.5477484968584 1.0
C      1  0.6413706000877  0.4698481131316  0.4696858364538 1.0
C      1  0.5397766071380  0.3574724221015  0.5491026275168 1.0
C      1  0.4047459258584  0.4023652491776  0.4713688000543 1.0
C      1  0.3587016717974  0.5478090476191  0.5494996226608 1.0
C      1  0.4645551099833  0.6415490857625  0.4703346771425 1.0
C      1  0.4963897683951  0.6013224789930  0.6264878047517 1.0
C      1  0.6516698772945  0.5882832871485  0.3790594677718 1.0
C      1  0.5919131324109  0.4642751887982  0.6263295561104 1.0
C      1  0.5016731327697  0.3336186042790  0.3808023365382 1.0
C      1  0.4255247046918  0.4500516079796  0.6271551069851 1.0
C      1  0.3557464258442  0.5916360962566  0.3809921899367 1.0
C      1  0.4826561792618  0.3402133520520  0.4753660544102 1.0
C      1  0.3725576560118  0.4506353127884  0.5428255771704 1.0
C      1  0.3717158808127  0.6056295507839  0.4753213912796 1.0
C      1  0.5228084246557  0.6460017756817  0.5414431051176 1.0
C      1  0.6564251975856  0.5682579412244  0.4735272555516 1.0
C      1  0.6168986144632  0.4180327741358  0.5416711039058 1.0
C      1  0.4569123011220  0.4204296626325  0.3883364880517 1.0
C      1  0.4195409071456  0.5483089529555  0.6261979493507 1.0
C      1  0.4531923302742  0.5864434621671  0.3881024032824 1.0
C      1  0.5844854986422  0.5573584993795  0.6253086732442 1.0
C      1  0.5984066917022  0.5064968731352  0.3874398326789 1.0
C      1  0.5098172914309  0.4097953045638  0.6261580345666 1.0
C      1  0.5025786547196  0.5044606709224  0.3741143086098 1.0
END
