TITL C-13527-1983-22 -8.151 3375.00 -1418.08526190 0 0 174 (C1) n - 1
REM
REM Run started: at 2020.12.31 21:32:47 in /gpfs/home/chem/mssmkc/CARBON/AIRSS/Generating-Clusters/Str-Search/Higher-Symm/C100-200
REM VASP from code version vasp.5.4.4.18Apr17-6-g9f103f2a35 (build Oct 11 2019 16:45:47) gamma-only
REM
REM
REM
REM
REM ./C.cell (533062f00bc710175b3da973d35f2034)
REM AIRSS Version 0.9.1 bugfix July 2018 build 013d7b7c2542+ Fri, 06 Jul 2018 19:26:36 +0100
REM compiler GCC version 6.3.0
REM options -cpp -iprefix /gpfs/warwick/csc/orac/software/Core/GCCcore/6.3.0/bin/../lib/gcc/x86_64-pc-linux-gnu/6.3.0/ -mtune=generic -march=x86-64 -g -O0
REM seed -1029065492 264777209 579407773 -1684834891 280574682 -406289379 -1515699004 -815490498 -2052350681 -1614988617 -1430564191 299333640
REM
REM C.POTCAR (d86ddea03c3ceb6dc662c8ad6801f873)
REM 
CELL 1.54180   15.00000   15.00000   15.00000   90.00000   90.00000   90.00000
LATT -1
SFAC C  
C      1  0.4678849686183  0.2034883563407  0.7578228281360 1.0
C      1  0.7502802239641  0.2547903301507  0.6007792684754 1.0
C      1  0.6606784074689  0.2052475751901  0.3074709724322 1.0
C      1  0.3649171916508  0.2020458946233  0.2804238351507 1.0
C      1  0.2484974362398  0.2218183191814  0.5583899803563 1.0
C      1  0.8687203345493  0.4545162468263  0.6275925908690 1.0
C      1  0.7190623390552  0.4420473354073  0.1924222754874 1.0
C      1  0.3009443416736  0.4345332155575  0.2013938207491 1.0
C      1  0.1351564474253  0.4502385640740  0.6078429261365 1.0
C      1  0.4942666611189  0.4366353003623  0.8542765233981 1.0
C      1  0.5152945508365  0.2260075512416  0.2071391426825 1.0
C      1  0.2078993992090  0.2173734002196  0.3910191125127 1.0
C      1  0.2981525421671  0.2320999047789  0.7398405369862 1.0
C      1  0.6819403189160  0.2181579371666  0.7630661463204 1.0
C      1  0.7771280938994  0.2125567920787  0.4189776821653 1.0
C      1  0.1880093849580  0.5472428975125  0.3737509565765 1.0
C      1  0.2739999515912  0.5632855798453  0.7863092477421 1.0
C      1  0.6833605450578  0.5583364479327  0.7820341127564 1.0
C      1  0.8449120404839  0.5345495415882  0.4142204727799 1.0
C      1  0.5118936188340  0.5684267096608  0.1197330689728 1.0
C      1  0.3444095948645  0.3471778147901  0.3311863217628 1.0
C      1  0.2970248698523  0.3745821391301  0.5953831304810 1.0
C      1  0.5274897456170  0.3483035420182  0.7223236587940 1.0
C      1  0.7012444361929  0.3857103955170  0.5463428405830 1.0
C      1  0.6265166161400  0.3588048410839  0.3259130788966 1.0
C      1  0.3924109216670  0.8623850619856  0.6439940188728 1.0
C      1  0.6052820356019  0.8541403792407  0.6727940236273 1.0
C      1  0.6343032051314  0.8438670710786  0.4619281626176 1.0
C      1  0.5000225356130  0.8627847958261  0.3092593228422 1.0
C      1  0.3410938632654  0.8557066976266  0.4345648048930 1.0
C      1  0.4546835922640  0.2605471254217  0.4198258618061 1.0
C      1  0.4040230764237  0.2648520551860  0.5135509168601 1.0
C      1  0.4768180371970  0.2573367619526  0.5932929591742 1.0
C      1  0.5789909398851  0.2588599528830  0.5464448384484 1.0
C      1  0.5607008521943  0.2525667665970  0.4394536349425 1.0
C      1  0.5466423024398  0.0935643989016  0.4218598402190 1.0
C      1  0.4497793490876  0.1081566792438  0.4270635638957 1.0
C      1  0.4048853387967  0.1115469497897  0.5141444263644 1.0
C      1  0.4575817776829  0.0991028065052  0.5960151912734 1.0
C      1  0.5340515376862  0.0523067122021  0.5739365140455 1.0
C      1  0.4250413515555  0.1809386156715  0.3603227690759 1.0
C      1  0.3363739103927  0.1882275632554  0.5186407503259 1.0
C      1  0.4535499123204  0.1795942708497  0.6590264997106 1.0
C      1  0.6625992274175  0.2186124929968  0.5905438186437 1.0
C      1  0.6042641444433  0.1727800821136  0.3877198983653 1.0
C      1  0.7503609232269  0.4414229391036  0.2874014754964 1.0
C      1  0.3972307969300  0.4718926745284  0.1947959434392 1.0
C      1  0.1645080412001  0.4389002252847  0.5099659209106 1.0
C      1  0.4095734989462  0.4704846611416  0.8056635117698 1.0
C      1  0.8039005008643  0.4541114004448  0.6998376182100 1.0
C      1  0.6128789169478  0.5255084663844  0.2761790963929 1.0
C      1  0.3120332441393  0.4354163720923  0.3058921829257 1.0
C      1  0.2792693942723  0.4831983727025  0.6082959215276 1.0
C      1  0.5445299350295  0.4370240506895  0.7623662798766 1.0
C      1  0.6971313842467  0.4859260100105  0.5638587534656 1.0
C      1  0.7487357991195  0.7916474653012  0.6941976911513 1.0
C      1  0.7380878690718  0.8299140172965  0.3419500011736 1.0
C      1  0.3877946062569  0.8603079966924  0.1935303892072 1.0
C      1  0.2003239967991  0.8415135651012  0.4992951991719 1.0
C      1  0.3972992206374  0.8608814377995  0.8036956664959 1.0
C      1  0.4708301980379  0.4247267797562  0.5861043971954 1.0
C      1  0.5585022702290  0.4276499260380  0.5441077031700 1.0
C      1  0.5560144771075  0.4204056926905  0.4441065424271 1.0
C      1  0.4600355479938  0.4257592005002  0.4164404917249 1.0
C      1  0.4090216798114  0.4291515194453  0.5032284648744 1.0
C      1  0.4520717573422  0.5146345286047  0.3623716711508 1.0
C      1  0.3554363804791  0.5139747128456  0.4962858790859 1.0
C      1  0.4507249207633  0.5112814898597  0.6373012745199 1.0
C      1  0.5963937752091  0.5156217011094  0.5672798125909 1.0
C      1  0.6127434303545  0.4978638315237  0.4113406641464 1.0
C      1  0.6569090674031  0.4545557700090  0.3285858087270 1.0
C      1  0.4004709413231  0.4827397735718  0.2848130197026 1.0
C      1  0.2562742717036  0.4863125308659  0.5097447286033 1.0
C      1  0.4574930243718  0.4815998717690  0.7298355765259 1.0
C      1  0.7359251957750  0.4880135846525  0.6486707789497 1.0
C      1  0.3659274605770  0.6524119636684  0.3925794905472 1.0
C      1  0.3837101076213  0.6508056576092  0.5832123385382 1.0
C      1  0.5278414134660  0.6677047999748  0.6464423274273 1.0
C      1  0.6496336321190  0.6473203167115  0.4952376260574 1.0
C      1  0.5510714798713  0.6597213795031  0.3755533642162 1.0
C      1  0.4140805960934  0.8590741820678  0.2870630463710 1.0
C      1  0.2955098402497  0.8504819788062  0.5104159125973 1.0
C      1  0.4419249295926  0.8647397952488  0.7175037699394 1.0
C      1  0.6809060386118  0.8279398876925  0.6348308611153 1.0
C      1  0.6538002998818  0.8489966197342  0.3691465512027 1.0
C      1  0.6149699326247  0.2496916314946  0.8002054658524 1.0
C      1  0.7979758266642  0.2795159837714  0.4609332064442 1.0
C      1  0.5803659973128  0.2753395524855  0.1960062576157 1.0
C      1  0.2208505651669  0.2546467406606  0.3187657982214 1.0
C      1  0.2381411106846  0.2785192457906  0.7071062765985 1.0
C      1  0.1884267168974  0.6139697068064  0.6159238316424 1.0
C      1  0.5096710122691  0.6163619174424  0.8489437044816 1.0
C      1  0.8382867073523  0.6204652451173  0.5953633294526 1.0
C      1  0.6709685854581  0.5954777398865  0.2361033199420 1.0
C      1  0.2835579889247  0.6141939697343  0.2182711458562 1.0
C      1  0.3684951245740  0.7843247127288  0.8190057588166 1.0
C      1  0.8175505557109  0.7935912312296  0.7487662178311 1.0
C      1  0.7790016306165  0.7568376196137  0.3337710208954 1.0
C      1  0.4084349249079  0.7856619536729  0.1617088606201 1.0
C      1  0.1689429162951  0.7698932360005  0.4716315606283 1.0
C      1  0.7066020195918  0.2167499268807  0.6739962353922 1.0
C      1  0.7065143353774  0.1715753816962  0.3749782748373 1.0
C      1  0.4489040926008  0.1877776875150  0.2583690390875 1.0
C      1  0.2427337736001  0.1976736403105  0.4738660907970 1.0
C      1  0.3830760278445  0.1979848994541  0.7345427305647 1.0
C      1  0.3247440850929  0.7161918007213  0.6082926936104 1.0
C      1  0.5352877379976  0.7222641326756  0.7182797154667 1.0
C      1  0.7161016920528  0.7062821894694  0.5174148031553 1.0
C      1  0.5742828852795  0.7164665901470  0.3068694922034 1.0
C      1  0.3317002423709  0.7197128863489  0.3453252477626 1.0
C      1  0.3518471179020  0.6951241393817  0.8074502619475 1.0
C      1  0.7354239367852  0.6947246328400  0.7220644844724 1.0
C      1  0.7919807775587  0.6692327135507  0.3468523698256 1.0
C      1  0.4328487816303  0.6980595971050  0.1616049051934 1.0
C      1  0.1674468542611  0.6809881268533  0.4503975008680 1.0
C      1  0.2238047005280  0.3043243701296  0.6127776633541 1.0
C      1  0.5224128466196  0.2799842441214  0.7989252618806 1.0
C      1  0.7893609120360  0.3323137743889  0.5427914179620 1.0
C      1  0.6581631284549  0.2938560876400  0.2550111188190 1.0
C      1  0.3020575016584  0.2804566490794  0.2678037827950 1.0
C      1  0.1484258721018  0.3666952036875  0.5792958931031 1.0
C      1  0.4880073088474  0.3403821759609  0.8841979898553 1.0
C      1  0.8655783978011  0.4004139524124  0.5522025009090 1.0
C      1  0.7340069699666  0.3597111269876  0.2261635291591 1.0
C      1  0.2821118610846  0.3374404374763  0.1780522020299 1.0
C      1  0.5258124597876  0.6592978973517  0.1597347820467 1.0
C      1  0.1902110216867  0.6408428506713  0.3609038703701 1.0
C      1  0.2790292637343  0.6559901204256  0.7540357596300 1.0
C      1  0.6638988457146  0.6512990834894  0.7815356514292 1.0
C      1  0.8278542633303  0.6301363896511  0.4300636274292 1.0
C      1  0.3567601162988  0.3519688409756  0.5302836363725 1.0
C      1  0.4801644794837  0.3423745908657  0.6441508737629 1.0
C      1  0.6186192574740  0.3523821204516  0.5588471618495 1.0
C      1  0.5910843500882  0.3378319018038  0.4039281690569 1.0
C      1  0.4238650719963  0.3430784390764  0.3745783586328 1.0
C      1  0.3568813071834  0.8179727927602  0.3564405461570 1.0
C      1  0.3388326894595  0.8156255722796  0.5923585272599 1.0
C      1  0.5305017684394  0.8234651185424  0.7068733781080 1.0
C      1  0.6730994353716  0.7944935133222  0.5407330482980 1.0
C      1  0.5751433123342  0.8182197193539  0.3175141479292 1.0
C      1  0.5273380585966  0.5745256436529  0.6125117094770 1.0
C      1  0.6522594594817  0.5484643148289  0.4922005980616 1.0
C      1  0.5474240422415  0.5579598895524  0.3534107028869 1.0
C      1  0.3872860053961  0.5700880275741  0.4185648660319 1.0
C      1  0.3652787167913  0.5489925174126  0.5948659386946 1.0
C      1  0.2493906401729  0.6729006670373  0.6627401212985 1.0
C      1  0.5703726380163  0.6736331826149  0.7985179170062 1.0
C      1  0.8074394038756  0.6658877397210  0.5155346464659 1.0
C      1  0.5961424821404  0.6693899256153  0.2209445158452 1.0
C      1  0.2570470056510  0.6707525984058  0.2942425536109 1.0
C      1  0.1903920270691  0.5168878526603  0.6577148403831 1.0
C      1  0.5464871363986  0.5267243118647  0.8672074400432 1.0
C      1  0.8811457944972  0.5386352868098  0.5752274247046 1.0
C      1  0.6503152298697  0.5110493958705  0.1728204860220 1.0
C      1  0.2474427540854  0.5227640063561  0.2215507326222 1.0
C      1  0.3700134573915  0.6256088104680  0.1674478851630 1.0
C      1  0.1661791229415  0.6145542676347  0.5207639991335 1.0
C      1  0.4089254591914  0.6241874587614  0.8436483888647 1.0
C      1  0.7902387598070  0.6292097244767  0.6828031494270 1.0
C      1  0.7617699768380  0.5966688691708  0.2897216446058 1.0
C      1  0.6140993841786  0.4986038130701  0.8064199506052 1.0
C      1  0.8736047503630  0.4887506242587  0.4925345628097 1.0
C      1  0.5798254681403  0.5081922215666  0.1111577928325 1.0
C      1  0.2300087965504  0.4931442073718  0.3107443579123 1.0
C      1  0.2199585804103  0.5001996148854  0.7477909281154 1.0
C      1  0.3560212696444  0.5457896179189  0.8333126822167 1.0
C      1  0.7612179169843  0.5445783316542  0.7232204151985 1.0
C      1  0.8014571717357  0.5172843273694  0.3249388124742 1.0
C      1  0.4211026114470  0.5484006128642  0.1402200654747 1.0
C      1  0.1731898140866  0.5289294937658  0.4692202705989 1.0
C      1  0.5546568802380  0.6877921282338  0.4783713773424 1.0
C      1  0.4872836402238  0.6560267934832  0.5577948888769 1.0
C      1  0.5797084940355  0.7834335651718  0.4994833854684 1.0
C      1  0.5733399194980  0.0499993331734  0.4992985516184 1.0
END
