TITL C-13179-9057-168 -2.141 3375.00 -340.71798130 0 0 43 (C1) n - 1
REM
REM Run started: at 2020.12.30 12:24:12 in /gpfs/home/chem/mssmkc/CARBON/AIRSS/Generating-Clusters/Str-Search/Higher-Symm/C4-100
REM VASP from code version vasp.5.4.4.18Apr17-6-g9f103f2a35 (build Oct 11 2019 16:45:47) gamma-only
REM
REM
REM
REM
REM ./C.cell (6bd13a13d554368a30d355f37ece5b26)
REM AIRSS Version 0.9.1 bugfix July 2018 build 013d7b7c2542+ Fri, 06 Jul 2018 19:26:36 +0100
REM compiler GCC version 6.3.0
REM options -cpp -iprefix /gpfs/warwick/csc/orac/software/Core/GCCcore/6.3.0/bin/../lib/gcc/x86_64-pc-linux-gnu/6.3.0/ -mtune=generic -march=x86-64 -g -O0
REM seed 322285833 -2001996915 785004242 1595441327 181478061 1903583776 1959377024 -171477916 -158320128 -1665682456 1129183247 76991399
REM
REM C.POTCAR (d86ddea03c3ceb6dc662c8ad6801f873)
REM 
CELL 1.54180   15.00000   15.00000   15.00000   90.00000   90.00000   90.00000
LATT -1
SFAC C  
C      1  0.3497206730838  0.3085344955561  0.6557034441283 1.0
C      1  0.3796671025208  0.5968698904097  0.7297505454895 1.0
C      1  0.3969175170349  0.7342495099606  0.4688810280564 1.0
C      1  0.3894243276467  0.5596791974241  0.2718034781091 1.0
C      1  0.3742503611469  0.2892123975525  0.3860474888971 1.0
C      1  0.5412084296841  0.6853529798984  0.6021509750139 1.0
C      1  0.5801289339025  0.6297460059897  0.3718920840831 1.0
C      1  0.5425373721703  0.4005224458138  0.3118155475150 1.0
C      1  0.5535884046350  0.3095215945773  0.5254555020342 1.0
C      1  0.5411120728191  0.4643082354466  0.6874750213715 1.0
C      1  0.4633458825689  0.2831391173541  0.5279160836432 1.0
C      1  0.4502775387185  0.4440983005491  0.7053985546636 1.0
C      1  0.4488705063644  0.6990343763989  0.6203749747325 1.0
C      1  0.4905180479024  0.6577711811733  0.3605982295146 1.0
C      1  0.4488740385400  0.4059991319987  0.2934240689220 1.0
C      1  0.6126580451644  0.3742512453599  0.5597495565036 1.0
C      1  0.6005041253846  0.5301573601947  0.6536287928396 1.0
C      1  0.6074008031720  0.6625443000243  0.5378491471201 1.0
C      1  0.6321678715527  0.5499980206097  0.3526754235921 1.0
C      1  0.6075995794322  0.3799479564347  0.3771007354187 1.0
C      1  0.3623053870494  0.5142687444877  0.5899975408639 1.0
C      1  0.3623414711815  0.5891499276011  0.5285283869271 1.0
C      1  0.3834415606939  0.5475609270981  0.4375227068008 1.0
C      1  0.3616778266016  0.4481080149033  0.4351169729689 1.0
C      1  0.3828574041015  0.4329769485848  0.5345221909022 1.0
C      1  0.4198183355270  0.4824227559280  0.2541537820905 1.0
C      1  0.4216956184607  0.2611206498634  0.4507912579515 1.0
C      1  0.4112377348908  0.3618890478926  0.6863251278609 1.0
C      1  0.4177420923987  0.6645195073704  0.6992148371661 1.0
C      1  0.4521818585360  0.7270869437753  0.4057013367601 1.0
C      1  0.6116295032386  0.4629568922539  0.3296207206111 1.0
C      1  0.6122688788255  0.3508056584115  0.4654512446098 1.0
C      1  0.6086129710472  0.4378050396941  0.6268787248326 1.0
C      1  0.6032775079410  0.6171675215996  0.6226961907930 1.0
C      1  0.6342592077513  0.6464731944351  0.4514704224283 1.0
C      1  0.4151947406618  0.5933095130733  0.3528191826306 1.0
C      1  0.3849587558119  0.3790577291635  0.3659253572707 1.0
C      1  0.4001080731191  0.3433971154843  0.5781704032902 1.0
C      1  0.3858887316421  0.5157633115441  0.6827724696310 1.0
C      1  0.3870140617761  0.6818400964124  0.5442956552836 1.0
C      1  0.7678985556883  0.5379474602026  0.4656780866786 1.0
C      1  0.4558448465445  0.4742905861833  0.4674274197623 1.0
C      1  0.6963226430671  0.5709933713116  0.4266917002378 1.0
END
