TITL C-13179-9057-75 -2.666 3375.00 -435.68455857 0 0 53 (C1) n - 1
REM
REM Run started: at 2020.12.29 17:00:31 in /gpfs/home/chem/mssmkc/CARBON/AIRSS/Generating-Clusters/Str-Search/Higher-Symm/C4-100
REM VASP from code version vasp.5.4.4.18Apr17-6-g9f103f2a35 (build Oct 11 2019 16:45:47) gamma-only
REM
REM
REM
REM
REM ./C.cell (6bd13a13d554368a30d355f37ece5b26)
REM AIRSS Version 0.9.1 bugfix July 2018 build 013d7b7c2542+ Fri, 06 Jul 2018 19:26:36 +0100
REM compiler GCC version 6.3.0
REM options -cpp -iprefix /gpfs/warwick/csc/orac/software/Core/GCCcore/6.3.0/bin/../lib/gcc/x86_64-pc-linux-gnu/6.3.0/ -mtune=generic -march=x86-64 -g -O0
REM seed 382590249 740538979 -687418116 706710023 -347290397 -1746150551 34296573 -1802194988 1726785326 -863797120 -650840699 -1330903597
REM
REM C.POTCAR (d86ddea03c3ceb6dc662c8ad6801f873)
REM 
CELL 1.54180   15.00000   15.00000   15.00000   90.00000   90.00000   90.00000
LATT -1
SFAC C  
C      1  0.3138402236209  0.4799515022987  0.3829039641228 1.0
C      1  0.3129896909543  0.5798313842649  0.4000084908266 1.0
C      1  0.2947461151426  0.6201979303440  0.4821130635739 1.0
C      1  0.2999008108746  0.5479616086347  0.6118348922262 1.0
C      1  0.3250653371260  0.4534681469865  0.6238729295219 1.0
C      1  0.3227096085728  0.3968431335540  0.5461937426475 1.0
C      1  0.3185434166324  0.4079911693153  0.4435959703044 1.0
C      1  0.4354928896343  0.6349596931403  0.6793386962649 1.0
C      1  0.4536634565238  0.4266106578425  0.7327828717801 1.0
C      1  0.4482699549520  0.2842796181459  0.5782385615517 1.0
C      1  0.4414000374268  0.2979500686681  0.3865495662097 1.0
C      1  0.4431753761493  0.4555448591420  0.2657742651548 1.0
C      1  0.4480762161829  0.6426957343512  0.3116900770647 1.0
C      1  0.4362273289613  0.7161235466959  0.5116301578571 1.0
C      1  0.7269807438356  0.4212742891323  0.5775000808717 1.0
C      1  0.7217808116118  0.3865912400749  0.4878846291094 1.0
C      1  0.7211661795827  0.4321214084427  0.4053669590372 1.0
C      1  0.7207360033706  0.5251480882470  0.3883786628889 1.0
C      1  0.7211617430770  0.5979496432641  0.4511141724181 1.0
C      1  0.7195384064698  0.5899812845385  0.5451347342573 1.0
C      1  0.7225180248330  0.5130289067835  0.6004996716939 1.0
C      1  0.6402381212672  0.6433060999811  0.5755391604939 1.0
C      1  0.6452153677324  0.5214258742351  0.6642974667746 1.0
C      1  0.6636012140543  0.3717196603750  0.6309703057431 1.0
C      1  0.6572962509005  0.3146306253241  0.4852738314444 1.0
C      1  0.6528179897444  0.3909163300382  0.3485942512635 1.0
C      1  0.6572228589064  0.5439405975143  0.3183167918929 1.0
C      1  0.6535152699082  0.6608154364389  0.4223932974481 1.0
C      1  0.6158295608388  0.6288475249244  0.3371750140375 1.0
C      1  0.6047402166603  0.6943645907735  0.4976663598500 1.0
C      1  0.6014643274754  0.6149068031561  0.6663493946185 1.0
C      1  0.6181827368220  0.4295263387907  0.6932662970703 1.0
C      1  0.6194018938411  0.3050370092982  0.5730061680605 1.0
C      1  0.6121360057332  0.3184142832571  0.3981447092337 1.0
C      1  0.6135103631202  0.4593849977110  0.2941213921697 1.0
C      1  0.5180466703027  0.7258254579148  0.5005658106359 1.0
C      1  0.5159037006062  0.6407819879387  0.7000709376015 1.0
C      1  0.5380113071228  0.4111024625432  0.7326459785000 1.0
C      1  0.5310323365923  0.2788993347666  0.5842007395307 1.0
C      1  0.5246394694276  0.2912973681102  0.3863714673087 1.0
C      1  0.5262418229769  0.4560734001796  0.2623143755108 1.0
C      1  0.5308439485913  0.6494928181882  0.3085811275995 1.0
C      1  0.3742036363922  0.3170684007218  0.5348281959847 1.0
C      1  0.3695948394588  0.3255362791008  0.4360499819648 1.0
C      1  0.3702877698665  0.4958168287829  0.3049123093966 1.0
C      1  0.3733515355437  0.5924960163774  0.3264986649326 1.0
C      1  0.3607357938829  0.6706359764662  0.5371625514167 1.0
C      1  0.3635174931976  0.6231143818171  0.6223085731478 1.0
C      1  0.3772050240314  0.4245385399461  0.6937831182771 1.0
C      1  0.5830062824196  0.5545669711824  0.5879969274643 1.0
C      1  0.4837059447785  0.4852545842342  0.4671718752687 1.0
C      1  0.2443583768641  0.5621710842274  0.5395522150045 1.0
C      1  0.5212389954063  0.5167411218176  0.5352338509714 1.0
END
