TITL C-137591-6213-12 -2.865 3375.00 -486.70168196 0 0 60 (C1) n - 1
REM
REM Run started: at 2020.12.17 06:47:20 in /rds/project/t2_vol4/rds-t2-cs072/BORA/CARBON/AIRSS/Generating-Clusters/Str-Search/Higher-Symm/Only-C60
REM VASP from code version vasp.5.4.4.18Apr17-6-g9f103f2a35 (build Oct 11 2019 16:45:47) gamma-only
REM
REM
REM
REM
REM ./C.cell (5f7b7a0d59291d2373303da1f58b8d66)
REM AIRSS Version 0.9.1 bugfix July 2018 build 013d7b7c2542+ Fri, 06 Jul 2018 19:26:36 +0100
REM compiler GCC version 4.8.5 20150623 (Red Hat 4.8.5-39)
REM options -cpp -mtune=generic -march=x86-64 -g -O0
REM seed -2088023133 1345476109 -418742646 -922961160 1616341983 280215715 1431134348 -296912005 26501266 835532587 -1495584142 -1016512739
REM
REM C.POTCAR (d86ddea03c3ceb6dc662c8ad6801f873)
REM 
CELL 1.54180   15.00000   15.00000   15.00000   90.00000   90.00000   90.00000
LATT -1
SFAC C  
C      1  0.7615202668891  0.5601567252899  0.6597691144009 1.0
C      1  0.4489040837270  0.4984431926662  0.5388403634637 1.0
C      1  0.4912699460277  0.6396103067107  0.7363023336721 1.0
C      1  0.3355964383994  0.6406673326797  0.5722013879708 1.0
C      1  0.3839143922011  0.5167576356202  0.3871676558818 1.0
C      1  0.4168063148343  0.3397475311991  0.3079239880866 1.0
C      1  0.5824388673168  0.4736266914907  0.2990628442316 1.0
C      1  0.4318097234984  0.4828126717151  0.2270152143237 1.0
C      1  0.6363023367120  0.3531371541938  0.6291812322808 1.0
C      1  0.5789838489145  0.3880893398883  0.3570358408310 1.0
C      1  0.4265154196306  0.3439241655090  0.5506421603072 1.0
C      1  0.3967361025802  0.6716189050064  0.3886669997817 1.0
C      1  0.6763225722902  0.5685633148513  0.6992398227158 1.0
C      1  0.3921607670868  0.4940412776561  0.6277466451940 1.0
C      1  0.6781789682188  0.4029832251380  0.6890973560148 1.0
C      1  0.2644141496231  0.4947468306118  0.5287622002390 1.0
C      1  0.6576232770314  0.3505263871268  0.4143064086228 1.0
C      1  0.6009646737030  0.3059828678466  0.4810904341760 1.0
C      1  0.3128978125987  0.5508474045461  0.5939294026470 1.0
C      1  0.5149020573551  0.4378234663182  0.2431970408521 1.0
C      1  0.4231843972422  0.5732529606980  0.2579012853872 1.0
C      1  0.5942736173336  0.2823785440119  0.5750971531783 1.0
C      1  0.2622082301205  0.5735559515721  0.3740933263099 1.0
C      1  0.3681529763008  0.4164734742105  0.2571465890628 1.0
C      1  0.5658106174965  0.6755147776390  0.4250902231115 1.0
C      1  0.5061029393321  0.7034999568818  0.5867692243674 1.0
C      1  0.6273873704555  0.6121735223459  0.3880998209228 1.0
C      1  0.3634240488857  0.3492608739116  0.3902496232870 1.0
C      1  0.7249786016049  0.6172942010267  0.5206690025593 1.0
C      1  0.4405326673438  0.5813848213131  0.7716345348920 1.0
C      1  0.3524660633762  0.3430354104827  0.4830724073145 1.0
C      1  0.3608141040430  0.3943837287198  0.6173519189256 1.0
C      1  0.7337494197549  0.4931996260052  0.4179925312851 1.0
C      1  0.5030252991787  0.6155502277539  0.2905609502224 1.0
C      1  0.5748281044787  0.6943607218036  0.5187499767906 1.0
C      1  0.5834375427346  0.5662767508972  0.3145418781830 1.0
C      1  0.4992985164101  0.4182584557786  0.5291727656720 1.0
C      1  0.3693985344910  0.3260239448397  0.6904668786188 1.0
C      1  0.5083420014844  0.3523780808768  0.2897405089859 1.0
C      1  0.7057296156128  0.5806814038259  0.4342989674719 1.0
C      1  0.3856281673442  0.6424527338882  0.4826100730075 1.0
C      1  0.5409999795330  0.3931690280646  0.6245004611706 1.0
C      1  0.7289273318214  0.4099122565350  0.4186736139822 1.0
C      1  0.2386081675498  0.5374090207599  0.4468253088395 1.0
C      1  0.4191579784653  0.6806998468454  0.5661182810622 1.0
C      1  0.3513249432571  0.4342209699145  0.3491779531875 1.0
C      1  0.4176731508078  0.5467543388684  0.4679679435144 1.0
C      1  0.6301063394410  0.4858031106165  0.7091500040958 1.0
C      1  0.5451637375866  0.3769371762306  0.4528450051821 1.0
C      1  0.2991494360007  0.4036084413981  0.5377104748751 1.0
C      1  0.6543194944346  0.6647806486677  0.5643148778971 1.0
C      1  0.4966293395287  0.2993014175148  0.6140132421411 1.0
C      1  0.5452540833885  0.6794092239278  0.6731783125019 1.0
C      1  0.7871230061222  0.5841335627982  0.5837234626552 1.0
C      1  0.5363188653765  0.4667393616657  0.6922510382693 1.0
C      1  0.4562128667185  0.5130172704934  0.7042581065048 1.0
C      1  0.4383455073985  0.2774748844409  0.6933733790500 1.0
C      1  0.4871467567567  0.6761931010533  0.3648219873113 1.0
C      1  0.3533783637781  0.5976014750696  0.3330266095097 1.0
C      1  0.6331258983729  0.6473382705894  0.6575816530013 1.0
END
