TITL C-13179-9057-160 -4.918 3375.00 -812.27328020 0 0 99 (C1) n - 1
REM
REM Run started: at 2020.12.30 10:37:46 in /gpfs/home/chem/mssmkc/CARBON/AIRSS/Generating-Clusters/Str-Search/Higher-Symm/C4-100
REM VASP from code version vasp.5.4.4.18Apr17-6-g9f103f2a35 (build Oct 11 2019 16:45:47) gamma-only
REM
REM
REM
REM
REM ./C.cell (6bd13a13d554368a30d355f37ece5b26)
REM AIRSS Version 0.9.1 bugfix July 2018 build 013d7b7c2542+ Fri, 06 Jul 2018 19:26:36 +0100
REM compiler GCC version 6.3.0
REM options -cpp -iprefix /gpfs/warwick/csc/orac/software/Core/GCCcore/6.3.0/bin/../lib/gcc/x86_64-pc-linux-gnu/6.3.0/ -mtune=generic -march=x86-64 -g -O0
REM seed 115992495 -1918851217 -844489121 965946556 -2040431148 -754618454 -381990034 1545134063 -956368091 1835991089 10063232 1974061464
REM
REM C.POTCAR (d86ddea03c3ceb6dc662c8ad6801f873)
REM 
CELL 1.54180   15.00000   15.00000   15.00000   90.00000   90.00000   90.00000
LATT -1
SFAC C  
C      1  0.5910631773180  0.8300048687805  0.4587598254367 1.0
C      1  0.5801262115029  0.3776063092995  0.8054753637075 1.0
C      1  0.5785297382017  0.3081766052058  0.2365718388144 1.0
C      1  0.4192994285611  0.8388743122906  0.4590914128550 1.0
C      1  0.4085325094940  0.3758553723840  0.7990053203393 1.0
C      1  0.4065343862236  0.3016359196557  0.2358780875709 1.0
C      1  0.5913287046427  0.8310744108441  0.5411499367526 1.0
C      1  0.5731095946182  0.3771676530190  0.1927582037261 1.0
C      1  0.5788933834625  0.3066217259631  0.7644870558987 1.0
C      1  0.4197314374510  0.8389686406770  0.5410974524229 1.0
C      1  0.4022314683507  0.3746349274252  0.1977817852244 1.0
C      1  0.4068879581988  0.3023501004128  0.7619975249719 1.0
C      1  0.3051961160033  0.4783436780015  0.6001887934286 1.0
C      1  0.2957681025567  0.3908524402622  0.4390089444369 1.0
C      1  0.3387854626061  0.5750455657754  0.4449842679077 1.0
C      1  0.6932418605098  0.5120408613163  0.6115522077228 1.0
C      1  0.7286300830283  0.4216266794554  0.4567423852824 1.0
C      1  0.6862056987777  0.5951727595580  0.4486572553232 1.0
C      1  0.2957405486125  0.4873021032252  0.3901241195347 1.0
C      1  0.3011440850089  0.3870214176378  0.5447775435281 1.0
C      1  0.3421169503792  0.5709470274953  0.5514573383277 1.0
C      1  0.6839437139042  0.4972459312998  0.4060178012257 1.0
C      1  0.7055131095327  0.4212149463528  0.5547480340158 1.0
C      1  0.6891805892374  0.6028884747521  0.5562277018020 1.0
C      1  0.6845339608574  0.7257959629696  0.6664355321224 1.0
C      1  0.6768313181373  0.2643265263488  0.6125589652486 1.0
C      1  0.6639411633603  0.5284147661343  0.2387575473777 1.0
C      1  0.3317475598939  0.7142034083363  0.6431547576922 1.0
C      1  0.3100346486611  0.2344358903443  0.6106633667913 1.0
C      1  0.3039476819192  0.5386164246842  0.2320405293641 1.0
C      1  0.6805126002041  0.7178151030170  0.3351985224014 1.0
C      1  0.6735429449301  0.2723105460098  0.3944515091011 1.0
C      1  0.6780603374655  0.5372376426705  0.7760962753806 1.0
C      1  0.3275828996509  0.7183901009381  0.3559284497223 1.0
C      1  0.3100924733557  0.2351388136844  0.3869665814119 1.0
C      1  0.3130997453031  0.5326053712764  0.7577132682282 1.0
C      1  0.5477086125408  0.4076353648359  0.4729961314988 1.0
C      1  0.5845987543990  0.6126363045188  0.4562392334733 1.0
C      1  0.5921160219881  0.4921564783634  0.6101812655962 1.0
C      1  0.3965376698604  0.3905488197998  0.4148539008367 1.0
C      1  0.4334048223887  0.5501064124633  0.4001167192576 1.0
C      1  0.4037064315088  0.4593474119101  0.6091769480650 1.0
C      1  0.6013550360266  0.4242085787904  0.5512107785660 1.0
C      1  0.5861494614390  0.6193864859962  0.5474514759071 1.0
C      1  0.5801184450818  0.4739091067723  0.4093897671128 1.0
C      1  0.4056486861185  0.3838931581296  0.5587444029203 1.0
C      1  0.4386156245263  0.5453795110336  0.5919456369440 1.0
C      1  0.3930590393837  0.4702988558512  0.3725533835948 1.0
C      1  0.2721939838028  0.3040237561497  0.5882030896966 1.0
C      1  0.2655779960749  0.5090744393531  0.2992035844959 1.0
C      1  0.3114355013624  0.6533821763504  0.5923848838028 1.0
C      1  0.7163838961274  0.3354503248667  0.6004991711694 1.0
C      1  0.6975203492626  0.5031338767287  0.3092128738551 1.0
C      1  0.7201912324544  0.6806994460180  0.6073281417593 1.0
C      1  0.2680011843171  0.3055863110279  0.3979172109244 1.0
C      1  0.2768253491126  0.4977854400575  0.6920805627271 1.0
C      1  0.3076667426633  0.6594365237875  0.4091400078231 1.0
C      1  0.7173588330058  0.3399072016471  0.4162490590962 1.0
C      1  0.7175155984080  0.5196599147063  0.7061322132892 1.0
C      1  0.7161006736153  0.6686963072750  0.3908537110731 1.0
C      1  0.5375373731326  0.6226637046736  0.1933732297222 1.0
C      1  0.5466058973225  0.7130045934789  0.7584865233005 1.0
C      1  0.5461422951867  0.1827083614517  0.5509521453257 1.0
C      1  0.4420472335472  0.6245102723709  0.1954918173739 1.0
C      1  0.4512731569223  0.7120502963559  0.7528041988265 1.0
C      1  0.4510370222551  0.1732480170635  0.5515207599673 1.0
C      1  0.5427288477713  0.6243950361595  0.8081034269853 1.0
C      1  0.5429639375094  0.7103204552170  0.2429600568115 1.0
C      1  0.5461505866451  0.1840265727126  0.4509196441493 1.0
C      1  0.4473760197089  0.6237163610994  0.8012515114739 1.0
C      1  0.4475270181370  0.7123656748661  0.2461397167891 1.0
C      1  0.4512786478088  0.1740568367279  0.4489734615784 1.0
C      1  0.5992924343155  0.7582762146572  0.6939377939263 1.0
C      1  0.5942229551622  0.2191042592141  0.6234728199463 1.0
C      1  0.5846327908457  0.5417621028855  0.1886273032043 1.0
C      1  0.4056581130054  0.7570598630299  0.6844767276829 1.0
C      1  0.3988343752486  0.2029463571788  0.6244606611610 1.0
C      1  0.3893204402498  0.5456515552984  0.1899571253524 1.0
C      1  0.5968121405446  0.7535970541480  0.3076048237218 1.0
C      1  0.5944283638367  0.2243785140317  0.3798237171368 1.0
C      1  0.5921279457054  0.5446925981822  0.8159993666531 1.0
C      1  0.4031399400603  0.7585044697684  0.3148145760956 1.0
C      1  0.3989850562725  0.2034259874401  0.3752989727809 1.0
C      1  0.3961645982895  0.5441880476988  0.8034084087871 1.0
C      1  0.4556064816248  0.8124886947175  0.3749724581707 1.0
C      1  0.4452774147948  0.4620705325569  0.8200931237885 1.0
C      1  0.4473128689266  0.2407137903011  0.2989968365802 1.0
C      1  0.5516788829242  0.8083549557389  0.3738509384854 1.0
C      1  0.5415213347319  0.4628240143890  0.8254352844292 1.0
C      1  0.5431148113104  0.2472723101405  0.3004027584323 1.0
C      1  0.4565150049979  0.8132344432471  0.6251914744668 1.0
C      1  0.4372561426181  0.4619176437346  0.1753766144658 1.0
C      1  0.4467682010894  0.2399703456074  0.7007661678052 1.0
C      1  0.5526428432143  0.8107558331929  0.6267902407785 1.0
C      1  0.5334155630202  0.4616680065333  0.1730595862994 1.0
C      1  0.5427961278747  0.2450519371997  0.7010178224587 1.0
C      1  0.5250006012897  0.5554696772678  0.4087025351223 1.0
C      1  0.4613599112625  0.3740008016916  0.4809985843467 1.0
C      1  0.5271606234490  0.5652478140356  0.5989171270358 1.0
END
