TITL C-13179-9057-176 -5.112 3375.00 -814.49783257 0 0 100 (C1) n - 1
REM
REM Run started: at 2020.12.30 14:43:01 in /gpfs/home/chem/mssmkc/CARBON/AIRSS/Generating-Clusters/Str-Search/Higher-Symm/C4-100
REM VASP from code version vasp.5.4.4.18Apr17-6-g9f103f2a35 (build Oct 11 2019 16:45:47) gamma-only
REM
REM
REM
REM
REM ./C.cell (6bd13a13d554368a30d355f37ece5b26)
REM AIRSS Version 0.9.1 bugfix July 2018 build 013d7b7c2542+ Fri, 06 Jul 2018 19:26:36 +0100
REM compiler GCC version 6.3.0
REM options -cpp -iprefix /gpfs/warwick/csc/orac/software/Core/GCCcore/6.3.0/bin/../lib/gcc/x86_64-pc-linux-gnu/6.3.0/ -mtune=generic -march=x86-64 -g -O0
REM seed 996155209 -1830747823 1888019828 1769790583 -847242007 -979228139 -2005584884 -60228029 -486343801 1987294940 -658696643 527105259
REM
REM C.POTCAR (d86ddea03c3ceb6dc662c8ad6801f873)
REM 
CELL 1.54180   15.00000   15.00000   15.00000   90.00000   90.00000   90.00000
LATT -1
SFAC C  
C      1  0.4794311740371  0.6840720699256  0.6581901377380 1.0
C      1  0.5048361279384  0.2466049344797  0.3156874559453 1.0
C      1  0.3681380809903  0.6955996951067  0.2859496581070 1.0
C      1  0.4790837833963  0.2999525409517  0.6157987756915 1.0
C      1  0.2710380555281  0.6660464177706  0.2829554859624 1.0
C      1  0.3378439291435  0.3258347345680  0.7049051493343 1.0
C      1  0.3808737784503  0.6782779513251  0.6895252022066 1.0
C      1  0.2745017496840  0.3790110186937  0.3632605717424 1.0
C      1  0.1352511602714  0.4203465481508  0.4654331797319 1.0
C      1  0.2155743574517  0.6037005481255  0.6440662116626 1.0
C      1  0.2052089394578  0.4307224978231  0.6615596586150 1.0
C      1  0.1846500032577  0.5850724939288  0.4410784433283 1.0
C      1  0.2966858901288  0.6658883235122  0.6400142235677 1.0
C      1  0.2126732186449  0.3563758759448  0.4343951519131 1.0
C      1  0.2498681566566  0.5983936011907  0.3569798330108 1.0
C      1  0.2644057362322  0.3684180912163  0.6951229078365 1.0
C      1  0.4143402595318  0.6128056787793  0.3262699940903 1.0
C      1  0.4858076678469  0.4034035071794  0.6168144757654 1.0
C      1  0.4912005667324  0.6121619294216  0.5893966189906 1.0
C      1  0.5405352567502  0.3831278910071  0.3388135764326 1.0
C      1  0.5721871166987  0.5257264786993  0.7545098207814 1.0
C      1  0.5060359674075  0.4485641546835  0.1840047706956 1.0
C      1  0.4976139889100  0.5357643261895  0.2115507497419 1.0
C      1  0.5756485326899  0.4330262241360  0.7417010083371 1.0
C      1  0.3966546294129  0.5535728186084  0.2370474098318 1.0
C      1  0.4777647764250  0.4052620894692  0.7284399878590 1.0
C      1  0.4826576098834  0.5584318096117  0.7729483919429 1.0
C      1  0.4327574292345  0.4002613616678  0.2271560112980 1.0
C      1  0.5609209335261  0.6107341761401  0.5194183612809 1.0
C      1  0.5920521586446  0.4880477158547  0.4263881082989 1.0
C      1  0.5096093243280  0.6132902946228  0.3610242422796 1.0
C      1  0.5911891034281  0.4213471954595  0.4868849284697 1.0
C      1  0.4292808996764  0.3177248737130  0.7049605985677 1.0
C      1  0.3370153145514  0.6342564875557  0.2209564369561 1.0
C      1  0.4768388614944  0.3323472485650  0.2897536614450 1.0
C      1  0.4470536333122  0.6414430917486  0.7417474281180 1.0
C      1  0.6499694224664  0.2763786779821  0.5360955964742 1.0
C      1  0.6039516255626  0.6956321598050  0.4742313176207 1.0
C      1  0.6494401694079  0.2763684962458  0.4316394497983 1.0
C      1  0.6231020860668  0.7280210497596  0.5740111327855 1.0
C      1  0.5660072259931  0.5619053004988  0.2875683107098 1.0
C      1  0.5717927883150  0.4454708283189  0.5829432248115 1.0
C      1  0.5708384203688  0.5474032265262  0.5965093250557 1.0
C      1  0.5876991182388  0.4664207756668  0.3289106313446 1.0
C      1  0.6419626424706  0.4388953662349  0.6627560173977 1.0
C      1  0.6717660562203  0.5627959784664  0.2955358113379 1.0
C      1  0.6826217557438  0.4650066244728  0.2975355667470 1.0
C      1  0.6331063001591  0.5462835791337  0.6765786905366 1.0
C      1  0.7927913441986  0.4718454142483  0.6242004091937 1.0
C      1  0.7965108802295  0.5558883462794  0.3997394661327 1.0
C      1  0.8137299803813  0.4653172231237  0.3852705439308 1.0
C      1  0.7805592444373  0.5525555561452  0.6713265780868 1.0
C      1  0.5428041419363  0.7590786498188  0.6245720977568 1.0
C      1  0.5493075253922  0.2483331003559  0.4053775211175 1.0
C      1  0.4350329626258  0.8061558836296  0.5041559616770 1.0
C      1  0.5637740588549  0.2539345706794  0.5678284286967 1.0
C      1  0.3460138756026  0.5853506624865  0.3945076555714 1.0
C      1  0.4125555952795  0.4336975024747  0.5559503932158 1.0
C      1  0.4102331783925  0.5800656000871  0.5427981213506 1.0
C      1  0.3558928900793  0.4007993903009  0.4116955725305 1.0
C      1  0.7272390282715  0.3327137755983  0.5613112023516 1.0
C      1  0.6929629196025  0.6648276413954  0.4381848335855 1.0
C      1  0.7333501561213  0.3284087993137  0.4026628229457 1.0
C      1  0.7026512115003  0.6810103517950  0.5960388051387 1.0
C      1  0.3381813558416  0.4912241974731  0.7902025645394 1.0
C      1  0.2154240586483  0.5064651463036  0.3291833913633 1.0
C      1  0.2723023437290  0.4418363879196  0.2888899471221 1.0
C      1  0.2644209851246  0.5272628645269  0.7750470267553 1.0
C      1  0.7127685798846  0.6106410167357  0.6640868983169 1.0
C      1  0.7467896175889  0.4110764644861  0.3436610713980 1.0
C      1  0.7206058602974  0.6064093686415  0.3646033179105 1.0
C      1  0.7302012067885  0.3994324079484  0.6310900386342 1.0
C      1  0.2203452368110  0.5977221270658  0.5361763970900 1.0
C      1  0.2059776816069  0.4257674531983  0.5590493923246 1.0
C      1  0.4369262765700  0.7264345791062  0.4544189160415 1.0
C      1  0.4280930162096  0.2785011293327  0.5302637506277 1.0
C      1  0.2608034454194  0.3530352140017  0.5146916699112 1.0
C      1  0.2927704193779  0.6662964258842  0.5446526973463 1.0
C      1  0.1584664231388  0.5017349072153  0.4090616948247 1.0
C      1  0.2092459380990  0.5253448487134  0.6995681740072 1.0
C      1  0.3507517634018  0.5085106201393  0.5780737657912 1.0
C      1  0.3763015414351  0.4905706806993  0.4177061207004 1.0
C      1  0.4279479431268  0.4811525874553  0.7731492787108 1.0
C      1  0.3582727695583  0.4597954431549  0.2464793829746 1.0
C      1  0.5033603409426  0.2381594789911  0.4923964632668 1.0
C      1  0.4904147982475  0.8083590540826  0.5686973381230 1.0
C      1  0.3678212922075  0.6512874392201  0.4787005029310 1.0
C      1  0.3653951830738  0.3555277925658  0.5039318137768 1.0
C      1  0.8534230845480  0.4224533954626  0.4705544165551 1.0
C      1  0.8084324386199  0.5768103417689  0.4950276020107 1.0
C      1  0.5208530729518  0.7031823810691  0.4108346827775 1.0
C      1  0.5752451873712  0.3475738197742  0.4215086127610 1.0
C      1  0.7475821088122  0.6505883895455  0.5142421061950 1.0
C      1  0.7820671274521  0.3464145348597  0.4819859888519 1.0
C      1  0.0364329417820  0.4054667344139  0.4704745330798 1.0
C      1  0.8305476986984  0.4963349492492  0.5385388293058 1.0
C      1  0.9538104347743  0.4055585162853  0.4702996053298 1.0
C      1  0.5267262558020  0.5548063757686  0.4454545589952 1.0
C      1  0.2648406168469  0.5069371330366  0.5496206509171 1.0
C      1  0.4434370795404  0.5070261672371  0.4842034832563 1.0
END
