TITL C-133653-9520-1 -12.211 3375.00 -1785.43391604 0 0 217 (C1) n - 1
REM
REM Run started: at 2020.12.13 06:57:02 in /rds/project/t2_vol4/rds-t2-cs072/BORA/CARBON/AIRSS/Generating-Clusters/Str-Search/Higher-Symm/C200-350
REM VASP from code version vasp.5.4.4.18Apr17-6-g9f103f2a35 (build Oct 11 2019 16:45:47) gamma-only
REM
REM
REM
REM
REM ./C.cell (8a36a0f86d45ee02852e7beefdfb7796)
REM AIRSS Version 0.9.1 bugfix July 2018 build 013d7b7c2542+ Fri, 06 Jul 2018 19:26:36 +0100
REM compiler GCC version 4.8.5 20150623 (Red Hat 4.8.5-39)
REM options -cpp -mtune=generic -march=x86-64 -g -O0
REM seed -1063331833 1212282240 -1362914507 -425231650 -1626001097 203866185 2088531095 -1535045605 2139834643 -366676133 -424402101 -784865150
REM
REM C.POTCAR (d86ddea03c3ceb6dc662c8ad6801f873)
REM 
CELL 1.54180   15.00000   15.00000   15.00000   90.00000   90.00000   90.00000
LATT -1
SFAC C  
C      1  0.5434350936005  0.7600652405831  0.1494825052507 1.0
C      1  0.2911845633148  0.4657347035649  0.1547533460265 1.0
C      1  0.7966496793740  0.7246278941618  0.2868256483327 1.0
C      1  0.3851910505042  0.5211377830419  0.7974188623809 1.0
C      1  0.5374260399013  0.8907278999243  0.4510358734282 1.0
C      1  0.5672025517577  0.6377114014199  0.0298214630204 1.0
C      1  0.8906030272591  0.7941941196369  0.6768439385498 1.0
C      1  0.7148760537782  0.2231760551528  0.7417030358652 1.0
C      1  0.3705946998322  0.5941305215311  0.8474971805573 1.0
C      1  0.6710738794496  0.7263805399252  0.7870661895555 1.0
C      1  0.4365989331757  0.6412053662923  0.1429767695826 1.0
C      1  0.9315541239857  0.7712398909847  0.5220603213033 1.0
C      1  0.7591056977702  0.3628333100633  0.6147681723700 1.0
C      1  0.8871317709233  0.2705665375022  0.4949127950172 1.0
C      1  0.4763823359013  0.5249873360007  0.5988418163028 1.0
C      1  0.4432368318471  0.2148718989685  0.1245253646252 1.0
C      1  0.5439812493641  0.2160090466880  0.3549813176049 1.0
C      1  0.8936998038137  0.4162971959095  0.2304780389715 1.0
C      1  0.3764275921888  0.6420690830983  0.3928885170784 1.0
C      1  0.4147724526264  0.3485553147765  0.5474541529801 1.0
C      1  0.1324251834191  0.2536216369714  0.4807326066461 1.0
C      1  0.4323574548337  0.1550879045335  0.1971401300786 1.0
C      1  0.8333918663950  0.7759210555586  0.7396727352486 1.0
C      1  0.4254425989145  0.7443701352994  0.5676066074225 1.0
C      1  0.6296286828555  0.1658685644365  0.6125704410626 1.0
C      1  0.5142231128907  0.4504329715724  0.9112503951433 1.0
C      1  0.8196102605392  0.6779832431610  0.4378771828368 1.0
C      1  0.2209262484680  0.2066767928451  0.6317220473366 1.0
C      1  0.7352824839945  0.3871738975160  0.8192378096350 1.0
C      1  0.3794085561820  0.1653891283115  0.5966700906855 1.0
C      1  0.5293822982332  0.4837711789036  0.7484472099762 1.0
C      1  0.2425130128429  0.6330999915693  0.5493870163363 1.0
C      1  0.3775165640434  0.5827950415789  0.4760587615647 1.0
C      1  0.4448617756314  0.8331005284109  0.2958795811858 1.0
C      1  0.2368153374724  0.7246863858491  0.5830920995908 1.0
C      1  0.4078593367591  0.6615551741473  0.6071180018771 1.0
C      1  0.3685702164326  0.2258937250412  0.7320390053704 1.0
C      1  0.3142092676897  0.1289207489404  0.3191010396341 1.0
C      1  0.5377002739569  0.2811295036483  0.4271866253546 1.0
C      1  0.5004094214062  0.4890073347401  0.4195087597444 1.0
C      1  0.0610543754354  0.3119274898362  0.5265243061281 1.0
C      1  0.4393695773650  0.9027002834886  0.4404473027093 1.0
C      1  0.1841920445315  0.6666506826661  0.3204562325682 1.0
C      1  0.5011161274396  0.8727377088443  0.6626444268328 1.0
C      1  0.6960593677535  0.5998009333614  0.5522275189027 1.0
C      1  0.4757109454742  0.5527187294797  0.4911481210076 1.0
C      1  0.3298842491812  0.3795927360769  0.2875361008711 1.0
C      1  0.1089950427100  0.4608886720921  0.4457459426143 1.0
C      1  0.4667209306546  0.1559787508996  0.3567042980673 1.0
C      1  0.9899349075839  0.7434052616675  0.4539439002084 1.0
C      1  0.7081785999832  0.2820483509779  0.4222400667020 1.0
C      1  0.6898444587137  0.7167658235858  0.1594343030116 1.0
C      1  0.4626281236916  0.3083803217279  0.1045974976498 1.0
C      1  0.3512802862711  0.4278150848248  0.5577345071680 1.0
C      1  0.4844844850843  0.6178379419508  0.6356085407356 1.0
C      1  0.3495434714950  0.5237287397806  0.0954607187123 1.0
C      1  0.5781421244294  0.2429673242472  0.2016383949184 1.0
C      1  0.7169363067368  0.7401289810121  0.6329410529646 1.0
C      1  0.4576558092833  0.4527790660131  0.3392019424879 1.0
C      1  0.3559528352043  0.8196327297334  0.5594083204242 1.0
C      1  0.4221346482379  0.3536310169897  0.0277646480659 1.0
C      1  0.3104824033018  0.7621014413711  0.2716670371557 1.0
C      1  0.7033093377906  0.2686931849359  0.3232572012321 1.0
C      1  0.1611335260065  0.5091906588198  0.2646022898992 1.0
C      1  0.0190298211735  0.6207779289604  0.3326974589499 1.0
C      1  0.4690169252295  0.5885150180722  0.2300820633300 1.0
C      1  0.7532632813782  0.7652082998703  0.5493302490938 1.0
C      1  0.4147431578101  0.1768737581408  0.7912969149559 1.0
C      1  0.1656053346807  0.2730856003833  0.6829485394645 1.0
C      1  0.1789839152130  0.3112551553549  0.4243162074464 1.0
C      1  0.1242388093305  0.5829666929903  0.3272673932531 1.0
C      1  0.2383093990228  0.7292437134282  0.6779953047207 1.0
C      1  0.4122265848838  0.3703888600982  0.7921659746563 1.0
C      1  0.9334294987470  0.5849728109638  0.3124990292142 1.0
C      1  0.6003748267325  0.3829250521048  0.6424990830640 1.0
C      1  0.9201934632461  0.4875744138342  0.2945328540165 1.0
C      1  0.2627748728136  0.1559530866963  0.4754531025134 1.0
C      1  0.8547445287453  0.4270418101535  0.3329381212312 1.0
C      1  0.6100964814607  0.1181286801523  0.5327411790213 1.0
C      1  0.2355946216066  0.3652218566298  0.2495003237424 1.0
C      1  0.3545812845166  0.4488938526328  0.2314612735774 1.0
C      1  0.6880193272457  0.4009490392742  0.6729950417335 1.0
C      1  0.4419777461356  0.3235072684727  0.4470939538926 1.0
C      1  0.3401806362032  0.8526274172709  0.6518250906562 1.0
C      1  0.1963379553597  0.1936486566184  0.5335556840323 1.0
C      1  0.8401084948676  0.7436828520633  0.5008657307673 1.0
C      1  0.6734679426993  0.4108263294183  0.1981693682261 1.0
C      1  0.3918300274313  0.8601939541114  0.3690501440575 1.0
C      1  0.4205391378287  0.8947257997911  0.5369816013674 1.0
C      1  0.7511034941219  0.3551822502213  0.1840506210717 1.0
C      1  0.6206767602426  0.5008966421281  0.7917000844460 1.0
C      1  0.3376603666587  0.5997874433295  0.5672567410115 1.0
C      1  0.3761773630187  0.5104639331576  0.6128875591554 1.0
C      1  0.4116547273404  0.5174907937279  0.2732579227474 1.0
C      1  0.4162317905475  0.3143632417069  0.7188857015663 1.0
C      1  0.7565119462950  0.2740805850853  0.5881995637190 1.0
C      1  0.1950236491451  0.6479071420062  0.7075505315665 1.0
C      1  0.3201585318389  0.4263773171854  0.4539844591639 1.0
C      1  0.1259662967933  0.4839565403392  0.6861473715388 1.0
C      1  0.9468316412384  0.7967104721814  0.6105471827748 1.0
C      1  0.7427073704496  0.4728379521415  0.4757036854819 1.0
C      1  0.3421053286056  0.5044558938692  0.7081755914001 1.0
C      1  0.4396341898846  0.8114846957497  0.7993313716725 1.0
C      1  0.3503845667282  0.3201050471633  0.9769117288804 1.0
C      1  0.2881049102333  0.3057990997295  0.9213469605417 1.0
C      1  0.6814217382894  0.7453606104254  0.4762381650837 1.0
C      1  0.7740541771161  0.3016339781255  0.2624493856711 1.0
C      1  0.5703946383301  0.5784345235589  0.7561190144887 1.0
C      1  0.1999953442771  0.6967303150781  0.4071178657522 1.0
C      1  0.4736323767314  0.1602061007028  0.6017300628226 1.0
C      1  0.7556467190164  0.6300674352617  0.2976341178194 1.0
C      1  0.0896175332944  0.4291152799153  0.6168639080303 1.0
C      1  0.5733152139562  0.7272046962913  0.7526564820022 1.0
C      1  0.2778902331813  0.4308001275067  0.7140824695793 1.0
C      1  0.9647797042837  0.2862890004010  0.5190801815103 1.0
C      1  0.6766513531626  0.3602027263006  0.8970713165241 1.0
C      1  0.8194762480308  0.4284192428451  0.1674574232357 1.0
C      1  0.6438637924831  0.4734187664520  0.4681218861526 1.0
C      1  0.5186149279103  0.8629153170985  0.5517189768123 1.0
C      1  0.5191266789373  0.4436347869495  0.6538853537729 1.0
C      1  0.6565765912663  0.1948462746431  0.8193254577011 1.0
C      1  0.6184232802136  0.2361577170975  0.2925426452274 1.0
C      1  0.4151863009459  0.9153449618374  0.6410086318646 1.0
C      1  0.7648039750840  0.1489181548674  0.4796923823142 1.0
C      1  0.5486376800418  0.7136113160358  0.3252126027780 1.0
C      1  0.2194473996057  0.3554866422851  0.5676880259158 1.0
C      1  0.8461298698996  0.6512997269691  0.3414867926934 1.0
C      1  0.4576015479179  0.4439652272986  0.9943475496671 1.0
C      1  0.5135202708682  0.8119461730017  0.7393988511398 1.0
C      1  0.4002137910577  0.1403148427439  0.2860992674977 1.0
C      1  0.5845705571252  0.6331311724068  0.3727742247294 1.0
C      1  0.5209750042290  0.6343934882444  0.2924426937742 1.0
C      1  0.5491201772363  0.2078289934037  0.6415975461530 1.0
C      1  0.7837779935473  0.4402596437748  0.5600621107578 1.0
C      1  0.2528735607091  0.3238118236410  0.8353650906122 1.0
C      1  0.4648360844883  0.3480859356202  0.6369513943524 1.0
C      1  0.6228787083416  0.5525544243161  0.5095879774848 1.0
C      1  0.1788320720213  0.3246109290184  0.7617039371227 1.0
C      1  0.1252047727993  0.3331256816112  0.6103238051774 1.0
C      1  0.5592111929238  0.6493799689356  0.8300793432599 1.0
C      1  0.5908358311165  0.7081581805485  0.5257051402821 1.0
C      1  0.7442895925638  0.7505896275334  0.7257532060998 1.0
C      1  0.3612170410409  0.2801670210833  0.4925112934044 1.0
C      1  0.3124696629426  0.1898841042969  0.6581056102836 1.0
C      1  0.6770764285435  0.8055086165812  0.3914486443987 1.0
C      1  0.5912415108674  0.8535846057839  0.3853953902816 1.0
C      1  0.1799316122809  0.4234462837453  0.7378334415530 1.0
C      1  0.6554402062951  0.6691576504768  0.8599840067295 1.0
C      1  0.7622420356582  0.5277242160132  0.5593562597364 1.0
C      1  0.2241006171781  0.5347116619138  0.1993029554041 1.0
C      1  0.6774517562258  0.7947937280685  0.2211052405606 1.0
C      1  0.2934417517025  0.8030764251924  0.7151857676162 1.0
C      1  0.5756544952394  0.1582232097752  0.8262097109463 1.0
C      1  0.6895153768539  0.6067075551011  0.3710024543009 1.0
C      1  0.6899170695611  0.1127110488676  0.4832711087453 1.0
C      1  0.4319374217915  0.5185948097965  0.0428902450150 1.0
C      1  0.5993072332313  0.6153106579687  0.9245391467675 1.0
C      1  0.7568946700286  0.6709723506700  0.2102608009966 1.0
C      1  0.5424128923887  0.3241089801794  0.1657948756993 1.0
C      1  0.4855227502710  0.6019507146419  0.0598881015684 1.0
C      1  0.6068100696046  0.7015422417995  0.1044278507341 1.0
C      1  0.5987745428372  0.5099856888180  0.8936696460741 1.0
C      1  0.6242824192393  0.2981859659898  0.4572411004050 1.0
C      1  0.1660683848374  0.4172373799961  0.2968819200760 1.0
C      1  0.7242521505090  0.6569446350101  0.4529842263305 1.0
C      1  0.3079050448489  0.8096334243424  0.3567083292134 1.0
C      1  0.5583117207651  0.6186220055906  0.4747696744466 1.0
C      1  0.4603923159223  0.4530854710944  0.8150324420938 1.0
C      1  0.5510808864090  0.4232603170670  0.3084080288487 1.0
C      1  0.7238872910149  0.7900449739646  0.3096038483184 1.0
C      1  0.1400407314411  0.5519296745714  0.4251023583252 1.0
C      1  0.3718406698506  0.6699366414035  0.8832257807147 1.0
C      1  0.1885064461761  0.6204316233587  0.4692300526735 1.0
C      1  0.6975914376811  0.2671317730703  0.8736444661226 1.0
C      1  0.2785390736557  0.3973579441006  0.6177033762088 1.0
C      1  0.7695517181276  0.4733942428233  0.3151721756324 1.0
C      1  0.4902086566382  0.1548260432692  0.8258342729472 1.0
C      1  0.2350380515276  0.3830502773034  0.1577836545742 1.0
C      1  0.7097221608367  0.2119125614819  0.6486466865571 1.0
C      1  0.0721929183318  0.4204294771313  0.5225155496565 1.0
C      1  0.5811305952614  0.4530871645246  0.3984104836712 1.0
C      1  0.5511873136685  0.3016303137741  0.6386691644217 1.0
C      1  0.3241216140217  0.5188284678015  0.4215377073537 1.0
C      1  0.2642506703754  0.1318775411394  0.3859249783613 1.0
C      1  0.3150036218162  0.3765892208589  0.7911749078305 1.0
C      1  0.3986190159777  0.7805245891372  0.2312114485000 1.0
C      1  0.5875065673542  0.8139035749582  0.2169801012507 1.0
C      1  0.3875809621316  0.7559224611832  0.8585339330632 1.0
C      1  0.2650523607970  0.3383159771153  0.4741442620335 1.0
C      1  0.3422958540688  0.6086302828346  0.1339296881404 1.0
C      1  0.5419716718648  0.8185223973393  0.3048784065112 1.0
C      1  0.1537826039991  0.5757737897768  0.6933465682494 1.0
C      1  0.2467663296319  0.6917143118482  0.2520330930340 1.0
C      1  0.3580857789049  0.5622827327855  0.3452365063365 1.0
C      1  0.5126130690716  0.7659653765233  0.5466549805689 1.0
C      1  0.3455165981347  0.8102979754115  0.7954290359790 1.0
C      1  0.2560098767539  0.7722203463235  0.4270662123390 1.0
C      1  0.3593959468485  0.1742019562014  0.5001162488312 1.0
C      1  0.7545352935711  0.2918890679135  0.8009945927012 1.0
C      1  0.7477317274845  0.4685567958670  0.2205604025022 1.0
C      1  0.2649645014801  0.6213083280697  0.1884394332641 1.0
C      1  0.0119531190781  0.6960817091763  0.3893213388698 1.0
C      1  0.7879113911033  0.2461413033174  0.4922472380752 1.0
C      1  0.7333967879128  0.5144836391256  0.3863647622248 1.0
C      1  0.4451049196646  0.1368966524313  0.4512949278724 1.0
C      1  0.8590527264869  0.3406713056308  0.2891516773104 1.0
C      1  0.6967068632599  0.4461949400246  0.7580975785378 1.0
C      1  0.4521677252420  0.7371459310898  0.1643628779023 1.0
C      1  0.1390005283047  0.3933910388627  0.3822969163596 1.0
C      1  0.5113379501047  0.1243664238628  0.5184176389220 1.0
C      1  0.6087866203285  0.4164813273961  0.9230695224840 1.0
C      1  0.2732083414603  0.7854228102839  0.5186591874761 1.0
C      1  0.6446979888087  0.6726343357321  0.6086465317783 1.0
C      1  0.5707764321555  0.6482927518578  0.6793394869754 1.0
C      1  0.3898745176544  0.3868200357330  0.3771349381237 1.0
C      1  0.5832358411995  0.3980304472247  0.2235228579572 1.0
C      1  0.5184618434722  0.1768783079255  0.1709879940735 1.0
END
