TITL C-135484-4204-11 -1.94 3375.00 -319.97759908 0 0 40 (D4h) n - 1
REM
REM Run started: at 2020.11.27 07:38:21 in /rds/project/t2_vol4/rds-t2-cs072/BORA/CARBON/AIRSS/Generating-Clusters/Str-Search/Higher-Symm/C10-100
REM VASP from code version vasp.5.4.4.18Apr17-6-g9f103f2a35 (build Oct 11 2019 16:45:47) gamma-only
REM
REM
REM
REM
REM ./C.cell (f39ce9773e2efe3fa5bbdf770a4156b8)
REM AIRSS Version 0.9.1 bugfix July 2018 build 013d7b7c2542+ Fri, 06 Jul 2018 19:26:36 +0100
REM compiler GCC version 4.8.5 20150623 (Red Hat 4.8.5-39)
REM options -cpp -mtune=generic -march=x86-64 -g -O0
REM seed 1471248 504189172 -331445908 -1245105974 -193101164 -768414607 373894815 -1005924675 269405028 1176060350 771094307 -1336089012
REM
REM C.POTCAR (d86ddea03c3ceb6dc662c8ad6801f873)
REM 
CELL 1.54180   15.00000   15.00000   15.00000   90.00000   90.00000   90.00000
LATT -1
SFAC C  
C      1  0.4312914463856  0.7539476364541  0.4780845352973 1.0
C      1  0.4780850646653  0.7539480701435  0.5687064440988 1.0
C      1  0.5687040785772  0.7539487579564  0.5219138439683 1.0
C      1  0.5219143980767  0.7539483633419  0.4312937718689 1.0
C      1  0.4312961194561  0.2460511339544  0.4780862248425 1.0
C      1  0.4780857642507  0.2460515297231  0.5687058979847 1.0
C      1  0.5687086805829  0.2460523259226  0.5219154328598 1.0
C      1  0.5219149961314  0.2460518911854  0.4312932975439 1.0
C      1  0.3788833848532  0.4514827132765  0.6177329630945 1.0
C      1  0.6177330586963  0.4514825386338  0.6211162922582 1.0
C      1  0.6211164141651  0.4514820378628  0.3822674905200 1.0
C      1  0.3822675988372  0.4514822371606  0.3788833782085 1.0
C      1  0.3788835607806  0.5485179587389  0.6177325045920 1.0
C      1  0.6177324743330  0.5485177641184  0.6211166452474 1.0
C      1  0.6211166032507  0.5485173012182  0.3822670068016 1.0
C      1  0.3822669882916  0.5485174713392  0.3788837183056 1.0
C      1  0.6490032184900  0.6029150741205  0.5477149621037 1.0
C      1  0.5477151841946  0.6029148888946  0.3509961832880 1.0
C      1  0.3509950852363  0.6029145468194  0.4522846477810 1.0
C      1  0.4522848076568  0.6029147269485  0.6490042293107 1.0
C      1  0.6490048929229  0.3970854419163  0.5477153484404 1.0
C      1  0.5477151854094  0.3970852792678  0.3509957197585 1.0
C      1  0.3509968269377  0.3970849095956  0.4522850707159 1.0
C      1  0.4522848451243  0.3970850773818  0.6490036989014 1.0
C      1  0.6660694747399  0.4514383223610  0.4697943983999 1.0
C      1  0.4697944155699  0.4514387602517  0.3339302624422 1.0
C      1  0.3339306602077  0.4514383745578  0.5302059416995 1.0
C      1  0.5302059084942  0.4514379159640  0.6660688277181 1.0
C      1  0.6660693022698  0.5485616401849  0.4697940589132 1.0
C      1  0.4697941144683  0.5485621260005  0.3339311078529 1.0
C      1  0.3339304593933  0.5485617032184  0.5302055862065 1.0
C      1  0.5302055921963  0.5485612380872  0.6660697041365 1.0
C      1  0.4586168989005  0.6922485185656  0.6289442779042 1.0
C      1  0.6289420621282  0.6922485427671  0.5413865667607 1.0
C      1  0.5413921180978  0.6922487290016  0.3710586473661 1.0
C      1  0.3710563953177  0.6922486694815  0.4586114324865 1.0
C      1  0.4586077853809  0.3077513525891  0.6289411845932 1.0
C      1  0.6289435027440  0.3077513508576  0.5413891051541 1.0
C      1  0.5413828688988  0.3077515227386  0.3710554818673 1.0
C      1  0.3710577638867  0.3077515573994  0.4586141087077 1.0
END
