TITL C-13179-9057-53 -1.577 3375.00 -257.25114213 0 0 32 (C1) n - 1
REM
REM Run started: at 2020.12.29 13:49:25 in /gpfs/home/chem/mssmkc/CARBON/AIRSS/Generating-Clusters/Str-Search/Higher-Symm/C4-100
REM VASP from code version vasp.5.4.4.18Apr17-6-g9f103f2a35 (build Oct 11 2019 16:45:47) gamma-only
REM
REM
REM
REM
REM ./C.cell (6bd13a13d554368a30d355f37ece5b26)
REM AIRSS Version 0.9.1 bugfix July 2018 build 013d7b7c2542+ Fri, 06 Jul 2018 19:26:36 +0100
REM compiler GCC version 6.3.0
REM options -cpp -iprefix /gpfs/warwick/csc/orac/software/Core/GCCcore/6.3.0/bin/../lib/gcc/x86_64-pc-linux-gnu/6.3.0/ -mtune=generic -march=x86-64 -g -O0
REM seed -751051529 261003453 1071575215 1915337470 1158888626 -330485180 -693399346 -1120017573 720465399 -2140510868 1944544567 765370452
REM
REM C.POTCAR (d86ddea03c3ceb6dc662c8ad6801f873)
REM 
CELL 1.54180   15.00000   15.00000   15.00000   90.00000   90.00000   90.00000
LATT -1
SFAC C  
C      1  0.6506652604386  0.5657559769428  0.5672239469696 1.0
C      1  0.6145272704295  0.3809904409706  0.5957281791137 1.0
C      1  0.4257905346140  0.3722182979192  0.5363863668359 1.0
C      1  0.3682935117610  0.5649957041758  0.6257552300106 1.0
C      1  0.5136369082872  0.6896916559690  0.6143487978889 1.0
C      1  0.6447264036060  0.4334209903183  0.4518443986167 1.0
C      1  0.6310604318050  0.5894098398096  0.4370091178735 1.0
C      1  0.4234121894329  0.6249663119159  0.4781709147619 1.0
C      1  0.3339626023466  0.4661485446173  0.4124168383275 1.0
C      1  0.5150998639401  0.3098249588587  0.3971474641920 1.0
C      1  0.5799511011535  0.4559024283859  0.3817579036527 1.0
C      1  0.5181425528488  0.3936233201775  0.3467784186191 1.0
C      1  0.4082002325536  0.5013109017443  0.3582737785321 1.0
C      1  0.4606888993824  0.5704738602323  0.4005335735957 1.0
C      1  0.5570708556869  0.5517981381691  0.3907328701204 1.0
C      1  0.5859706636168  0.5401619947064  0.6356650515644 1.0
C      1  0.5218211999974  0.6070665597563  0.6632544037148 1.0
C      1  0.4083901498041  0.4848984464909  0.6602105788010 1.0
C      1  0.4607795995042  0.4211909802391  0.6171660605806 1.0
C      1  0.5574823937230  0.4434781910871  0.6294720921732 1.0
C      1  0.5654093073864  0.7041975695204  0.5389860053768 1.0
C      1  0.5692871673025  0.2907840444908  0.4728628697792 1.0
C      1  0.6739502475309  0.5150612799920  0.4858039237629 1.0
C      1  0.3543030310993  0.4167217462000  0.4923366868780 1.0
C      1  0.3532638928718  0.5801452809942  0.5339986932415 1.0
C      1  0.4763506039232  0.3109414128708  0.4849143575495 1.0
C      1  0.4713783505718  0.6905965810566  0.5231204842356 1.0
C      1  0.6326332521133  0.6462626996032  0.5153062115804 1.0
C      1  0.6298698697744  0.3566024586238  0.5084546287292 1.0
C      1  0.3154311534072  0.5030223953119  0.4959880762072 1.0
C      1  0.4375012546388  0.5715897759739  0.6888340653539 1.0
C      1  0.4414030444488  0.4295942128763  0.3078679113614 1.0
END
