TITL C-13179-9057-111 -2.252 3375.00 -366.37008729 0 0 46 (C1) n - 1
REM
REM Run started: at 2020.12.30 01:14:46 in /gpfs/home/chem/mssmkc/CARBON/AIRSS/Generating-Clusters/Str-Search/Higher-Symm/C4-100
REM VASP from code version vasp.5.4.4.18Apr17-6-g9f103f2a35 (build Oct 11 2019 16:45:47) gamma-only
REM
REM
REM
REM
REM ./C.cell (6bd13a13d554368a30d355f37ece5b26)
REM AIRSS Version 0.9.1 bugfix July 2018 build 013d7b7c2542+ Fri, 06 Jul 2018 19:26:36 +0100
REM compiler GCC version 6.3.0
REM options -cpp -iprefix /gpfs/warwick/csc/orac/software/Core/GCCcore/6.3.0/bin/../lib/gcc/x86_64-pc-linux-gnu/6.3.0/ -mtune=generic -march=x86-64 -g -O0
REM seed 1179606000 411851797 -125436770 -1702082338 -1629855371 -1922768332 -1718719540 923589496 30909467 253630500 -1338032228 1822058698
REM
REM C.POTCAR (d86ddea03c3ceb6dc662c8ad6801f873)
REM 
CELL 1.54180   15.00000   15.00000   15.00000   90.00000   90.00000   90.00000
LATT -1
SFAC C  
C      1  0.6919307566227  0.4115606094760  0.4760816113144 1.0
C      1  0.4139836518510  0.4732997033202  0.6931519125749 1.0
C      1  0.4755218353063  0.6896760178016  0.4147358453701 1.0
C      1  0.3132601335207  0.5892722151879  0.4762160891098 1.0
C      1  0.6926040955895  0.5892759804468  0.5303493967881 1.0
C      1  0.3126230471663  0.4115007218977  0.5300832060768 1.0
C      1  0.5917480643709  0.5276489637924  0.6928322583179 1.0
C      1  0.4139637113892  0.5272429668757  0.3131703139751 1.0
C      1  0.5917836293584  0.4732242779293  0.3136685715146 1.0
C      1  0.5296066656330  0.3103330209320  0.4146846609451 1.0
C      1  0.4753229898607  0.3112355710711  0.5923014034070 1.0
C      1  0.5297949865629  0.6901091482334  0.5923131850253 1.0
C      1  0.3572835753322  0.4756050795623  0.3622137245883 1.0
C      1  0.4781093719072  0.3594634566410  0.3579234831007 1.0
C      1  0.3616834283493  0.3548090779949  0.4784991581995 1.0
C      1  0.6484758986828  0.5251729843885  0.3622532414167 1.0
C      1  0.3573992612139  0.5250001448449  0.6440452398560 1.0
C      1  0.6483331359306  0.4757212182322  0.6441516663717 1.0
C      1  0.5274961218473  0.6410970781860  0.3580401846679 1.0
C      1  0.4780842348766  0.6412412161564  0.6490487875018 1.0
C      1  0.5274921802389  0.3595265460183  0.6489845954382 1.0
C      1  0.6435019384404  0.6458772016838  0.4787188033244 1.0
C      1  0.3617508272884  0.6459009263428  0.5282773873855 1.0
C      1  0.6433639844269  0.3549919879670  0.5281548710310 1.0
C      1  0.5290652756344  0.4109723138992  0.2905413861391 1.0
C      1  0.4131600363605  0.2873310200414  0.5296485524748 1.0
C      1  0.2899525202169  0.5267021882803  0.4138226991740 1.0
C      1  0.4768100335844  0.5897488596953  0.2903540365023 1.0
C      1  0.5289647167390  0.5898065376363  0.7166322089168 1.0
C      1  0.4767435223138  0.4108168491452  0.7167840745867 1.0
C      1  0.5920891126988  0.7135056575623  0.5294413691886 1.0
C      1  0.4130936075215  0.7136379541568  0.4773133987914 1.0
C      1  0.5921368475023  0.2871019671390  0.4775788655094 1.0
C      1  0.7160381866322  0.4740697557561  0.4137736081430 1.0
C      1  0.2898973820794  0.4743008899159  0.5925702900063 1.0
C      1  0.7159892550766  0.5264085872501  0.5927124108221 1.0
C      1  0.5025661969174  0.7359373376009  0.5035154678430 1.0
C      1  0.7383504220212  0.5006965824712  0.5031005339208 1.0
C      1  0.5025917390770  0.5004368712767  0.7389429309951 1.0
C      1  0.5023873292322  0.2647391797042  0.5029256885348 1.0
C      1  0.2668015878997  0.5000912576858  0.5030327681987 1.0
C      1  0.5025115490453  0.5002091045199  0.2673552813750 1.0
C      1  0.3894332918117  0.6137015518899  0.6168476571739 1.0
C      1  0.6162360434610  0.6137380784002  0.3900261154287 1.0
C      1  0.6162027589391  0.3870171650290  0.6168738622505 1.0
C      1  0.3894014594694  0.3870093759620  0.3899285967238 1.0
END
