TITL C-13527-1983-13 -5.401 3375.00 -937.21272795 0 0 114 (C3) n - 1
REM
REM Run started: at 2020.12.31 16:29:41 in /gpfs/home/chem/mssmkc/CARBON/AIRSS/Generating-Clusters/Str-Search/Higher-Symm/C100-200
REM VASP from code version vasp.5.4.4.18Apr17-6-g9f103f2a35 (build Oct 11 2019 16:45:47) gamma-only
REM
REM
REM
REM
REM ./C.cell (533062f00bc710175b3da973d35f2034)
REM AIRSS Version 0.9.1 bugfix July 2018 build 013d7b7c2542+ Fri, 06 Jul 2018 19:26:36 +0100
REM compiler GCC version 6.3.0
REM options -cpp -iprefix /gpfs/warwick/csc/orac/software/Core/GCCcore/6.3.0/bin/../lib/gcc/x86_64-pc-linux-gnu/6.3.0/ -mtune=generic -march=x86-64 -g -O0
REM seed -2057601318 599681487 -733786069 1761134256 -425238676 -1766521979 -553593300 562357762 2064117548 -1383584891 237210888 1893616361
REM
REM C.POTCAR (d86ddea03c3ceb6dc662c8ad6801f873)
REM 
CELL 1.54180   15.00000   15.00000   15.00000   90.00000   90.00000   90.00000
LATT -1
SFAC C  
C      1  0.6445720420928  0.5366186693982  0.3505036937272 1.0
C      1  0.2979837014326  0.5365722583337  0.4498292322001 1.0
C      1  0.5578573790573  0.5372282611921  0.7002629745798 1.0
C      1  0.3267147433839  0.5772411184678  0.7236134785867 1.0
C      1  0.7809477085160  0.5774003261229  0.5382391308500 1.0
C      1  0.3928263978788  0.5772681327919  0.2379973715188 1.0
C      1  0.4712364215605  0.5630769121025  0.6787454855241 1.0
C      1  0.6694388581327  0.5631672616456  0.4359645122470 1.0
C      1  0.3595607609551  0.5630912921249  0.3856753217415 1.0
C      1  0.6646706315418  0.2912692747058  0.3377626196495 1.0
C      1  0.2766577229581  0.2912066406904  0.4381377973082 1.0
C      1  0.5581571466702  0.2912773874818  0.7236361554760 1.0
C      1  0.7829249269689  0.3927157831960  0.2968698965805 1.0
C      1  0.1820023529712  0.3927024481875  0.3564308660402 1.0
C      1  0.5345061655542  0.3927454766969  0.8465337520714 1.0
C      1  0.6989986557337  0.6747009883474  0.2992142578037 1.0
C      1  0.2262771365280  0.6746952624169  0.4281269427488 1.0
C      1  0.5748308303545  0.6749146653575  0.7728564498522 1.0
C      1  0.2260009403270  0.4724824788723  0.5919612895739 1.0
C      1  0.7167490264492  0.4727085433312  0.6910281419269 1.0
C      1  0.5571466110551  0.4724995671576  0.2173353771514 1.0
C      1  0.7106128876854  0.7500775586303  0.4164864776185 1.0
C      1  0.3222650678241  0.7500953125992  0.3596422368693 1.0
C      1  0.4674755780769  0.7500881131496  0.7237170443449 1.0
C      1  0.7035551876798  0.2711102375719  0.6243361036649 1.0
C      1  0.5058284328120  0.2709235000352  0.2617031883864 1.0
C      1  0.2904648773515  0.2710397825342  0.6136647425433 1.0
C      1  0.4819633249914  0.7139067306177  0.2789572275905 1.0
C      1  0.3174373133481  0.7139409543310  0.6260747762226 1.0
C      1  0.7009957239443  0.7140700865272  0.5950463124280 1.0
C      1  0.6288447587892  0.5965504450701  0.7487424011435 1.0
C      1  0.6510650775453  0.5963803383084  0.2646515830068 1.0
C      1  0.2202892084868  0.5963837186026  0.4869811660619 1.0
C      1  0.5822518264461  0.2532347828829  0.3169252531708 1.0
C      1  0.2998008594397  0.2532055105350  0.5199257245518 1.0
C      1  0.6174815373591  0.2533768907239  0.6627958428287 1.0
C      1  0.4477516459180  0.3394549365841  0.2382197777238 1.0
C      1  0.2991041504272  0.3394187782055  0.6759870856155 1.0
C      1  0.7528071109555  0.3396318543423  0.5856255726121 1.0
C      1  0.7953178995452  0.4834180089529  0.5427279772047 1.0
C      1  0.3893650693893  0.4833156788801  0.2233932697248 1.0
C      1  0.3155197525240  0.4833111070446  0.7340303794482 1.0
C      1  0.5587808302299  0.7523528723357  0.3307555851274 1.0
C      1  0.3240410165214  0.7522941137618  0.5336417771209 1.0
C      1  0.6177550904094  0.7524975420187  0.6356170074920 1.0
C      1  0.4097808133124  0.7565795136077  0.3349920430823 1.0
C      1  0.4022870589250  0.7565020746721  0.6602687720571 1.0
C      1  0.6882045134302  0.7564674124628  0.5045344997608 1.0
C      1  0.4116757878445  0.7329589549427  0.5677439538998 1.0
C      1  0.6033245521187  0.7331350925017  0.5426554822977 1.0
C      1  0.4852235616579  0.7331197934004  0.3895479236784 1.0
C      1  0.3789574313001  0.4228407115467  0.7805078802587 1.0
C      1  0.8037454656012  0.4229538832933  0.4645583963022 1.0
C      1  0.3172300113363  0.4228229413788  0.2547859800839 1.0
C      1  0.4255138125855  0.2599512253928  0.4005596085512 1.0
C      1  0.4509162056791  0.2597920360969  0.6136565978793 1.0
C      1  0.6232065971602  0.2600802171504  0.4853884396449 1.0
C      1  0.2630454841803  0.6727122878856  0.3373578749147 1.0
C      1  0.4778024237725  0.6728893380968  0.7864027114514 1.0
C      1  0.7595357351362  0.6727347131316  0.3761592034004 1.0
C      1  0.4563062826020  0.6469771791300  0.5393379911942 1.0
C      1  0.5561000936403  0.6471044751425  0.5182333169423 1.0
C      1  0.4877789838881  0.6470573498238  0.4424440991956 1.0
C      1  0.4521952916578  0.4371665467498  0.8344781235795 1.0
C      1  0.8137748180004  0.4371526933155  0.3741433991593 1.0
C      1  0.2338543584044  0.4369889123153  0.2911487175864 1.0
C      1  0.7931638699513  0.4859669597006  0.2926862558351 1.0
C      1  0.1735118407714  0.4859761849259  0.3496909681969 1.0
C      1  0.5331490711996  0.4859706483591  0.8576333630421 1.0
C      1  0.2670409915417  0.4310534123221  0.6683110651522 1.0
C      1  0.7623353150050  0.4311896810462  0.6173852967409 1.0
C      1  0.4705367187622  0.4311015185510  0.2146829686407 1.0
C      1  0.5594672882434  0.5699936786470  0.2292172219050 1.0
C      1  0.2350012181721  0.5700837855162  0.5841432890860 1.0
C      1  0.7056201526843  0.5702562018520  0.6872889510622 1.0
C      1  0.5960616083757  0.3597683051053  0.7812231431178 1.0
C      1  0.6956919852760  0.3596730524223  0.2761202112528 1.0
C      1  0.2077053620823  0.3596008952301  0.4423120427568 1.0
C      1  0.4508848495023  0.3261279809837  0.4676841223579 1.0
C      1  0.4965112311691  0.3260214574295  0.5583182411567 1.0
C      1  0.5521776868678  0.3261443892328  0.4736319961775 1.0
C      1  0.6002380154838  0.5131207910045  0.7913829858073 1.0
C      1  0.7021980828176  0.5129886328169  0.2679754786127 1.0
C      1  0.1978506349330  0.5129836414703  0.4408136671630 1.0
C      1  0.2871428353399  0.6216892262300  0.6472433525815 1.0
C      1  0.7343553457084  0.6218098309048  0.6106360218838 1.0
C      1  0.4788167548911  0.6215763685447  0.2424938146725 1.0
C      1  0.3266952078296  0.6042078839488  0.3090833080913 1.0
C      1  0.4214006324799  0.6041212664755  0.7455795348178 1.0
C      1  0.7522493795358  0.6042601152972  0.4454860207338 1.0
C      1  0.6072025683458  0.5594795883659  0.5140488588257 1.0
C      1  0.4582821675784  0.5594882016508  0.4005074667312 1.0
C      1  0.4347230519162  0.5593886724462  0.5858253188843 1.0
C      1  0.5653742308378  0.7475662585593  0.7095423595984 1.0
C      1  0.6490125121213  0.7474102905170  0.3391417225120 1.0
C      1  0.2858046662585  0.7474270678869  0.4515587825206 1.0
C      1  0.6379327595541  0.2282960532785  0.5726568019711 1.0
C      1  0.4939230108715  0.2281229785444  0.3443581388167 1.0
C      1  0.3679040879818  0.2281634783577  0.5825742470931 1.0
C      1  0.4314155277759  0.4718238165075  0.5541851400635 1.0
C      1  0.5811151906581  0.4719437124944  0.5324704192359 1.0
C      1  0.4872617131312  0.4719605225846  0.4135981255922 1.0
C      1  0.4597407348961  0.2868135026955  0.7057578284105 1.0
C      1  0.6985442685545  0.2870508549196  0.4317045126480 1.0
C      1  0.3413824841056  0.2868404976838  0.3619853499898 1.0
C      1  0.2013361432788  0.4349791333873  0.5030216050733 1.0
C      1  0.6521415809942  0.4351235349854  0.7568170996958 1.0
C      1  0.6464735745723  0.4350265613353  0.2399862625092 1.0
C      1  0.7626763299678  0.3375502950050  0.4882750943862 1.0
C      1  0.3584988308516  0.3373751791750  0.2783396085412 1.0
C      1  0.3786401614041  0.3373094248726  0.7330850174281 1.0
C      1  0.5095854488555  0.4236401954890  0.5868072979219 1.0
C      1  0.5701628202752  0.4239964921751  0.4483716806683 1.0
C      1  0.4197666865359  0.4238885241633  0.4650792654595 1.0
END
