TITL C-13179-9057-109 -2.362 3375.00 -407.12139669 0 0 51 (C1) n - 1
REM
REM Run started: at 2020.12.30 01:04:15 in /gpfs/home/chem/mssmkc/CARBON/AIRSS/Generating-Clusters/Str-Search/Higher-Symm/C4-100
REM VASP from code version vasp.5.4.4.18Apr17-6-g9f103f2a35 (build Oct 11 2019 16:45:47) gamma-only
REM
REM
REM
REM
REM ./C.cell (6bd13a13d554368a30d355f37ece5b26)
REM AIRSS Version 0.9.1 bugfix July 2018 build 013d7b7c2542+ Fri, 06 Jul 2018 19:26:36 +0100
REM compiler GCC version 6.3.0
REM options -cpp -iprefix /gpfs/warwick/csc/orac/software/Core/GCCcore/6.3.0/bin/../lib/gcc/x86_64-pc-linux-gnu/6.3.0/ -mtune=generic -march=x86-64 -g -O0
REM seed 1958752271 2033771983 -46002808 1643751808 -1980844810 626926959 -1221318112 1368709477 2071454971 874873362 -1267655532 -1445596640
REM
REM C.POTCAR (d86ddea03c3ceb6dc662c8ad6801f873)
REM 
CELL 1.54180   15.00000   15.00000   15.00000   90.00000   90.00000   90.00000
LATT -1
SFAC C  
C      1  0.4568045178008  0.6539233707751  0.4152697532162 1.0
C      1  0.4312603370572  0.5139524309595  0.6836575647512 1.0
C      1  0.4377260237482  0.3461902393571  0.4403677438041 1.0
C      1  0.5279055204505  0.6082234415288  0.3757679946270 1.0
C      1  0.5885727058804  0.5001105849666  0.6728424481223 1.0
C      1  0.6325646538650  0.3209770637281  0.3906492489267 1.0
C      1  0.4359587839926  0.6704347614389  0.5705451586126 1.0
C      1  0.4278167225947  0.4862360263243  0.3146293281733 1.0
C      1  0.4101715283936  0.3455265746523  0.5929176480178 1.0
C      1  0.5359735443627  0.6294048572397  0.5963501317138 1.0
C      1  0.5845641376114  0.4809035239315  0.2978244617760 1.0
C      1  0.5699921372621  0.3400976576346  0.5683687583358 1.0
C      1  0.6093785650073  0.5841186346238  0.5344017153206 1.0
C      1  0.6442007528910  0.4029552878506  0.5364270057681 1.0
C      1  0.6448544573051  0.4936499454823  0.3743566502915 1.0
C      1  0.3695323700744  0.5996573349059  0.5481796857185 1.0
C      1  0.3532598347661  0.4182853354492  0.5586124270438 1.0
C      1  0.3680735107363  0.5006923638342  0.3924324365176 1.0
C      1  0.6131002896746  0.5820638031082  0.4259223902528 1.0
C      1  0.6633379072620  0.4010273072825  0.4318829114436 1.0
C      1  0.6369185711104  0.4981970689340  0.5878819743786 1.0
C      1  0.3767298015352  0.5933728065949  0.4398987860258 1.0
C      1  0.3630888709555  0.4124144097409  0.4553483172054 1.0
C      1  0.3632293065089  0.5161150795654  0.6099215721079 1.0
C      1  0.2576322480867  0.4288361698154  0.4537115389514 1.0
C      1  0.2716713260695  0.5950167694078  0.4429082617915 1.0
C      1  0.2589887064396  0.5219038607478  0.5927757059914 1.0
C      1  0.7590128459839  0.4358223875020  0.4431799629815 1.0
C      1  0.7176202629791  0.5982740793426  0.4364156687065 1.0
C      1  0.7347846590154  0.5178390067147  0.5779857698700 1.0
C      1  0.2533824263435  0.4371486900882  0.5490830904599 1.0
C      1  0.2676760639364  0.6005065708009  0.5384277687040 1.0
C      1  0.2660840402221  0.5086255915792  0.4016499301630 1.0
C      1  0.7523379380811  0.4336142299863  0.5386781255834 1.0
C      1  0.7140015179686  0.5996347481110  0.5313678307913 1.0
C      1  0.7427983317815  0.5156735116697  0.3937846299833 1.0
C      1  0.5472652553790  0.3442822599432  0.6615794601809 1.0
C      1  0.5510020600957  0.3977095346480  0.2686856924256 1.0
C      1  0.5464481337903  0.7296210141157  0.6158357472834 1.0
C      1  0.4478338657683  0.3485048645771  0.6762130459031 1.0
C      1  0.4530265416762  0.3997863386885  0.2858850934150 1.0
C      1  0.4544691459500  0.7605572408410  0.6214231078027 1.0
C      1  0.5650487589566  0.3240671991296  0.3323829976150 1.0
C      1  0.5575767926133  0.4221398569656  0.7143596076910 1.0
C      1  0.5187343053091  0.7792072835907  0.5382370494459 1.0
C      1  0.4688390361496  0.3326019549203  0.3543180843807 1.0
C      1  0.4569186885469  0.4319098574248  0.7235637372583 1.0
C      1  0.4756158869148  0.7117471396082  0.4870479226114 1.0
C      1  0.5088233952697  0.5365174617232  0.3156311744903 1.0
C      1  0.5162130060983  0.5592049072995  0.6643399927477 1.0
C      1  0.4804827097288  0.3307166608508  0.5260728906208 1.0
END
