TITL C-134626-3232-2 -7.235 3375.00 -1245.15766223 0 0 154 (C1) n - 1
REM
REM Run started: at 2021.01.02 03:02:15 in /rds/project/t2_vol4/rds-t2-cs072/BORA/CARBON/AIRSS/Generating-Clusters/Str-Search/Higher-Symm/C100-200
REM VASP from code version vasp.5.4.4.18Apr17-6-g9f103f2a35 (build Oct 11 2019 16:45:47) gamma-only
REM
REM
REM
REM
REM ./C.cell (533062f00bc710175b3da973d35f2034)
REM AIRSS Version 0.9.1 bugfix July 2018 build 013d7b7c2542+ Fri, 06 Jul 2018 19:26:36 +0100
REM compiler GCC version 4.8.5 20150623 (Red Hat 4.8.5-39)
REM options -cpp -mtune=generic -march=x86-64 -g -O0
REM seed -1554297203 -1145622441 -765817410 1675186245 90358875 -318213083 -235857497 -1423635774 831672109 -1835768400 -37386887 -1545503265
REM
REM C.POTCAR (d86ddea03c3ceb6dc662c8ad6801f873)
REM 
CELL 1.54180   15.00000   15.00000   15.00000   90.00000   90.00000   90.00000
LATT -1
SFAC C  
C      1  0.7963181144921  0.3138181494291  0.2549355904355 1.0
C      1  0.9033084270517  0.6951121054942  0.4881302875555 1.0
C      1  0.8111855081395  0.2978520122788  0.7123109140901 1.0
C      1  0.6434815994474  0.6975480563376  0.8526814876579 1.0
C      1  0.4134732582915  0.3157305045414  0.8580899541385 1.0
C      1  0.1985419383344  0.6806074684376  0.7416626770993 1.0
C      1  0.1426864279845  0.2905722018400  0.5384849172374 1.0
C      1  0.1571558596902  0.6827773924502  0.2978951628179 1.0
C      1  0.3673144163021  0.2981873547989  0.1175221996654 1.0
C      1  0.5807937781805  0.7003493190271  0.1617869450978 1.0
C      1  0.5267386307529  0.5467897150021  0.7609673133020 1.0
C      1  0.3780336236515  0.4613848305542  0.7315585877327 1.0
C      1  0.2466457024050  0.5364205926162  0.6135554993010 1.0
C      1  0.2148598250269  0.4369438280802  0.4482781085191 1.0
C      1  0.3224135936994  0.5217384982564  0.3019544979083 1.0
C      1  0.4879592000353  0.4430315386328  0.2060703171163 1.0
C      1  0.6480954837133  0.5380000282949  0.2616575504434 1.0
C      1  0.7490011268901  0.4648162368959  0.3875587539803 1.0
C      1  0.7775592969937  0.5305975260825  0.5691080508795 1.0
C      1  0.6989477026949  0.4594627344742  0.7101113930891 1.0
C      1  0.4387194694947  0.5270390320658  0.8880897174870 1.0
C      1  0.2297130404088  0.4701482584343  0.7733959520934 1.0
C      1  0.1045008975986  0.5032851835355  0.5621588754062 1.0
C      1  0.1519544142661  0.4657056207997  0.3116568455669 1.0
C      1  0.3412937163149  0.5094496310355  0.1599339324987 1.0
C      1  0.5887391980841  0.5010732803014  0.0987613397962 1.0
C      1  0.7981991792183  0.5293033884712  0.2304596487364 1.0
C      1  0.8905143873839  0.4776414486663  0.4503275520533 1.0
C      1  0.8661649775696  0.5097378497474  0.6928199779789 1.0
C      1  0.6725871895706  0.4859844924012  0.8555703619154 1.0
C      1  0.5741640584216  0.4251357879041  0.1573940960698 1.0
C      1  0.7328191247841  0.5905153439406  0.2740359964856 1.0
C      1  0.8170754986085  0.4142888894107  0.4441822063051 1.0
C      1  0.8119231816820  0.5805526488954  0.6535819728009 1.0
C      1  0.6544656698649  0.4157302960413  0.7891681750074 1.0
C      1  0.4548071430693  0.5960302612289  0.8212696456623 1.0
C      1  0.2901915530651  0.4085834018044  0.7259206945679 1.0
C      1  0.1721376769917  0.5739201662395  0.5597991419994 1.0
C      1  0.1978902652945  0.3925434923591  0.3566163278546 1.0
C      1  0.3201023963911  0.5808679840066  0.2211059827450 1.0
C      1  0.7771248399110  0.2796633612085  0.3398124502047 1.0
C      1  0.8377608897994  0.7214488167692  0.5501851557730 1.0
C      1  0.7213544184755  0.2722053357908  0.7213898398327 1.0
C      1  0.5651948752942  0.7323102181270  0.8154771281192 1.0
C      1  0.3657489865068  0.2692849483362  0.7964511454231 1.0
C      1  0.2061283062753  0.7165223746478  0.6553948346536 1.0
C      1  0.1966888705683  0.2580665873847  0.4703152466591 1.0
C      1  0.2362429717466  0.7221959438170  0.2781092910675 1.0
C      1  0.4465339968685  0.2774897537095  0.1622237488036 1.0
C      1  0.6360353585560  0.7307215529736  0.2273862661778 1.0
C      1  0.4831130513130  0.2808747390356  0.6610738789684 1.0
C      1  0.3815235350952  0.7525010135017  0.6525002595104 1.0
C      1  0.3516379180604  0.2702402923450  0.5561894688451 1.0
C      1  0.3068751447408  0.7265180859333  0.4383195733534 1.0
C      1  0.3842526061977  0.2582629259440  0.3204183852010 1.0
C      1  0.5454065826371  0.7626564709444  0.3676157315883 1.0
C      1  0.6010311466055  0.2664296188780  0.3395330467105 1.0
C      1  0.7053117725729  0.7168122336428  0.4442093588666 1.0
C      1  0.6703778207730  0.2773672620100  0.5531999401739 1.0
C      1  0.6233697812311  0.7340856078968  0.6583208429721 1.0
C      1  0.3528184568924  0.6379607808556  0.5405725273936 1.0
C      1  0.3368485503760  0.3544842129241  0.4089541310460 1.0
C      1  0.4297152384858  0.6374474313387  0.3516015257593 1.0
C      1  0.4982177959004  0.3716770000306  0.3442594864395 1.0
C      1  0.5879898733277  0.6047741323487  0.3944520303522 1.0
C      1  0.6325611067762  0.3734951808958  0.4514309664961 1.0
C      1  0.6485132435677  0.6232949433810  0.5635911193502 1.0
C      1  0.5764751472957  0.3884068780716  0.6313278013030 1.0
C      1  0.4868692833855  0.6516817444339  0.6441145113650 1.0
C      1  0.4127038576264  0.4222056962561  0.5971429495208 1.0
C      1  0.5887262861824  0.2984877630107  0.6853921316894 1.0
C      1  0.4627461523109  0.7282178101756  0.7159686057924 1.0
C      1  0.3266923466204  0.2499031337296  0.6531710422671 1.0
C      1  0.2747447444842  0.7069116303765  0.5322951639903 1.0
C      1  0.3003381440811  0.2640492824373  0.3828869545805 1.0
C      1  0.3721690636064  0.7029901946103  0.2990298957420 1.0
C      1  0.5320974053631  0.3015760963105  0.2733747701669 1.0
C      1  0.7053445784080  0.7446416861689  0.3506792219735 1.0
C      1  0.7053360612245  0.2954296130111  0.4602868592948 1.0
C      1  0.7093389369124  0.7044821272512  0.6078423318147 1.0
C      1  0.6545982771154  0.4843279691250  0.1789626840855 1.0
C      1  0.7998686629388  0.5331698962028  0.3321313056985 1.0
C      1  0.8439689594402  0.4617859336465  0.5396319531377 1.0
C      1  0.7732015120254  0.5235661401473  0.7355954160832 1.0
C      1  0.5753638360086  0.4792682139967  0.8217596191453 1.0
C      1  0.3708805101519  0.5287779735384  0.8148590880203 1.0
C      1  0.2121872463154  0.4637040921870  0.6749539324315 1.0
C      1  0.1473557962189  0.5077749249950  0.4704437853179 1.0
C      1  0.2490158240875  0.4508340564600  0.2801343127837 1.0
C      1  0.4373248081809  0.5051974577516  0.1450449723753 1.0
C      1  0.5784313524646  0.6667659836571  0.6179693235705 1.0
C      1  0.4758172727658  0.3822704167465  0.6563929562012 1.0
C      1  0.4242207009445  0.6967889169990  0.5796078852988 1.0
C      1  0.3489323808881  0.3777818279346  0.5516496390752 1.0
C      1  0.3917674065957  0.6717638973040  0.4448059068185 1.0
C      1  0.4116833422586  0.3371921454668  0.3617102039901 1.0
C      1  0.5267986053109  0.6635166507926  0.3600030633802 1.0
C      1  0.5550770080703  0.3224048979892  0.4125692876919 1.0
C      1  0.6496122424141  0.6443690683109  0.4627389754524 1.0
C      1  0.5932532883223  0.3419682194176  0.5434398834469 1.0
C      1  0.6679759259631  0.2523574541900  0.6415921852807 1.0
C      1  0.5617971985456  0.7679926875862  0.7281362846493 1.0
C      1  0.4034231403081  0.2460405450078  0.7099267877675 1.0
C      1  0.2925787993466  0.7547561508645  0.6264351748160 1.0
C      1  0.2891742284219  0.2336769960853  0.4792910558850 1.0
C      1  0.2986340785024  0.7475074432511  0.3503240275471 1.0
C      1  0.4489085889284  0.2429582084271  0.2508297894912 1.0
C      1  0.6204570607934  0.7790588588535  0.3109601585098 1.0
C      1  0.6865959734052  0.2509295097033  0.3668969753291 1.0
C      1  0.7498132350520  0.7459911156209  0.5246262979935 1.0
C      1  0.3136148775904  0.6747659500973  0.2326115845170 1.0
C      1  0.5211669081407  0.3447287989442  0.1830009148038 1.0
C      1  0.7130255629063  0.6871678553277  0.2750718581450 1.0
C      1  0.7953789933137  0.3191803252450  0.4244340856102 1.0
C      1  0.8029336973274  0.6748050617258  0.6296420873242 1.0
C      1  0.6490719112086  0.3169607584812  0.7660448236404 1.0
C      1  0.4749803579926  0.6912821446691  0.8081092422755 1.0
C      1  0.3054265578488  0.3087560395914  0.7289196238251 1.0
C      1  0.1882782175718  0.6730768855998  0.5721187961227 1.0
C      1  0.2034342381023  0.2898723908567  0.3752111770250 1.0
C      1  0.4666192187640  0.3689218183013  0.8938566419614 1.0
C      1  0.2305830492214  0.6271088193225  0.7957673415983 1.0
C      1  0.1196527840129  0.3463217904287  0.5946077289862 1.0
C      1  0.1218690074158  0.6200782179570  0.3410084521853 1.0
C      1  0.3103953550230  0.3529914285371  0.1456443348952 1.0
C      1  0.5322392565537  0.6498364971323  0.1160540766300 1.0
C      1  0.7826487746904  0.3738115187069  0.1998958850027 1.0
C      1  0.9008894302116  0.6349312738438  0.4310585326977 1.0
C      1  0.8586285349222  0.3515506408794  0.6709448118772 1.0
C      1  0.7007733892986  0.6387085840415  0.8422330989061 1.0
C      1  0.8768810246628  0.5529426955296  0.3954892758684 1.0
C      1  0.8749161452108  0.4350757294909  0.6334811715994 1.0
C      1  0.7317708065935  0.5529431549344  0.8234429983955 1.0
C      1  0.4996628303954  0.4538147301134  0.8817791704815 1.0
C      1  0.2719052973964  0.5446333965811  0.8113997915265 1.0
C      1  0.1305089065420  0.4343530544439  0.6212363369979 1.0
C      1  0.1254217106922  0.5354486474131  0.3742229653905 1.0
C      1  0.2890374111701  0.4312653364872  0.1875478267164 1.0
C      1  0.5112902987958  0.5597472707839  0.1092047869162 1.0
C      1  0.7534576860937  0.4611260475009  0.1843678550696 1.0
C      1  0.4022932425741  0.5091711117807  0.6437281830133 1.0
C      1  0.3317786941883  0.5612281163453  0.5980578073198 1.0
C      1  0.2966605029943  0.4092423644869  0.4766997340622 1.0
C      1  0.4127995936895  0.5350965549879  0.3329698259952 1.0
C      1  0.4968038896879  0.4705045813675  0.3128337215905 1.0
C      1  0.5934527926682  0.5147228637610  0.3432285077436 1.0
C      1  0.6590394899124  0.4523448997568  0.3963256535271 1.0
C      1  0.6840877745318  0.5305285414687  0.5746230209422 1.0
C      1  0.6489523225960  0.4592424286848  0.6342232659815 1.0
C      1  0.4823892409160  0.5595974779429  0.6760800491648 1.0
C      1  0.4558868445021  0.7313409251830  0.4926613390243 1.0
C      1  0.5184584952228  0.2927344185149  0.5019778690123 1.0
C      1  0.4565480438277  0.2606481898457  0.5595686525525 1.0
C      1  0.5134166733204  0.7858419793217  0.4503621914674 1.0
END
