TITL C-13179-9057-197 -1.042 3375.00 -153.95327963 0 0 20 (C1) n - 1
REM
REM Run started: at 2020.12.30 18:32:44 in /gpfs/home/chem/mssmkc/CARBON/AIRSS/Generating-Clusters/Str-Search/Higher-Symm/C4-100
REM VASP from code version vasp.5.4.4.18Apr17-6-g9f103f2a35 (build Oct 11 2019 16:45:47) gamma-only
REM
REM
REM
REM
REM ./C.cell (6bd13a13d554368a30d355f37ece5b26)
REM AIRSS Version 0.9.1 bugfix July 2018 build 013d7b7c2542+ Fri, 06 Jul 2018 19:26:36 +0100
REM compiler GCC version 6.3.0
REM options -cpp -iprefix /gpfs/warwick/csc/orac/software/Core/GCCcore/6.3.0/bin/../lib/gcc/x86_64-pc-linux-gnu/6.3.0/ -mtune=generic -march=x86-64 -g -O0
REM seed -847318582 -393856227 1081442802 -1606350236 -827366840 1777353555 -1068721067 631733070 1503599463 1367458193 63072158 82497936
REM
REM C.POTCAR (d86ddea03c3ceb6dc662c8ad6801f873)
REM 
CELL 1.54180   15.00000   15.00000   15.00000   90.00000   90.00000   90.00000
LATT -1
SFAC C  
C      1  0.3562948309344  0.3301888360702  0.5375403230794 1.0
C      1  0.4209835602893  0.3567404832820  0.4698890263995 1.0
C      1  0.4993960522131  0.3880641864307  0.5236717359938 1.0
C      1  0.3042186731755  0.4826913759870  0.4793143974941 1.0
C      1  0.3964189554895  0.3166347382947  0.6216662173090 1.0
C      1  0.5967590538043  0.4472140627341  0.4011884615202 1.0
C      1  0.4706089934573  0.3638485372976  0.6103541710903 1.0
C      1  0.6803149568875  0.4950149650765  0.3724790043379 1.0
C      1  0.3442125304466  0.6411165683790  0.5142395535095 1.0
C      1  0.6228355042803  0.6080056146477  0.5582437739543 1.0
C      1  0.6133756051577  0.4652244007738  0.3126895649606 1.0
C      1  0.3059607363805  0.5653322087965  0.4882677960227 1.0
C      1  0.6105801236302  0.5176118664562  0.5368703618663 1.0
C      1  0.7337188807591  0.5410379646718  0.4273310369115 1.0
C      1  0.3308218756139  0.3945237247340  0.4740953699158 1.0
C      1  0.4028164031744  0.6943338046004  0.5411924501819 1.0
C      1  0.5666316835803  0.4453374458645  0.4907235346437 1.0
C      1  0.6858190093506  0.5650250859826  0.5023070947457 1.0
C      1  0.5695880604059  0.6820920659668  0.5742198944126 1.0
C      1  0.4886443109696  0.6999623639539  0.5637161316512 1.0
END
