TITL C-13527-1983-17 -5.195 3375.00 -903.31555796 0 0 108 (D2) n - 1
REM
REM Run started: at 2020.12.31 17:54:30 in /gpfs/home/chem/mssmkc/CARBON/AIRSS/Generating-Clusters/Str-Search/Higher-Symm/C100-200
REM VASP from code version vasp.5.4.4.18Apr17-6-g9f103f2a35 (build Oct 11 2019 16:45:47) gamma-only
REM
REM
REM
REM
REM ./C.cell (533062f00bc710175b3da973d35f2034)
REM AIRSS Version 0.9.1 bugfix July 2018 build 013d7b7c2542+ Fri, 06 Jul 2018 19:26:36 +0100
REM compiler GCC version 6.3.0
REM options -cpp -iprefix /gpfs/warwick/csc/orac/software/Core/GCCcore/6.3.0/bin/../lib/gcc/x86_64-pc-linux-gnu/6.3.0/ -mtune=generic -march=x86-64 -g -O0
REM seed 1925158448 1479074897 -1776746039 -1635675934 -382615577 -643181832 1704229064 559558378 343670324 150400526 1324535250 -1829243800
REM
REM C.POTCAR (d86ddea03c3ceb6dc662c8ad6801f873)
REM 
CELL 1.54180   15.00000   15.00000   15.00000   90.00000   90.00000   90.00000
LATT -1
SFAC C  
C      1  0.5441474024587  0.2113165083891  0.4438053812314 1.0
C      1  0.5441485113675  0.7886817734975  0.5561903770804 1.0
C      1  0.4558540114171  0.7886830912746  0.4438082276680 1.0
C      1  0.4558530747803  0.2113165144307  0.5561869058009 1.0
C      1  0.5188981140438  0.3815753605932  0.5665786934027 1.0
C      1  0.5189007736718  0.6184330597700  0.4334276500705 1.0
C      1  0.4811029474480  0.6184265124659  0.5665784040414 1.0
C      1  0.4811003804883  0.3815646297350  0.4334281399497 1.0
C      1  0.7565940653653  0.3362513073954  0.5013974393599 1.0
C      1  0.7565971648983  0.6637518816417  0.4986003638371 1.0
C      1  0.2434060585000  0.6637493631701  0.5013977846132 1.0
C      1  0.2434030361698  0.3362479629539  0.4985997942158 1.0
C      1  0.3617377360703  0.2417585902643  0.4357628773965 1.0
C      1  0.3617401586710  0.7582365203669  0.5642339667559 1.0
C      1  0.6382627563857  0.7582408474432  0.4357645568023 1.0
C      1  0.6382595216788  0.2417646896413  0.5642316669651 1.0
C      1  0.1424916491358  0.5450125561731  0.5112676551703 1.0
C      1  0.1424913189082  0.4549867985779  0.4887321303767 1.0
C      1  0.8575091883439  0.4549877481052  0.5112678907406 1.0
C      1  0.8575092445558  0.5450133720624  0.4887326576509 1.0
C      1  0.6132957276120  0.2311817734751  0.7324840273844 1.0
C      1  0.6132948437640  0.7688189311328  0.2675141316077 1.0
C      1  0.3867047656020  0.7688179618486  0.7324851898925 1.0
C      1  0.3867058933070  0.2311814612415  0.2675121964417 1.0
C      1  0.6364618959050  0.2897142324508  0.6524692965745 1.0
C      1  0.6364636019796  0.7102881656216  0.3475292690629 1.0
C      1  0.3635372539791  0.7102860946420  0.6524703455817 1.0
C      1  0.3635355921505  0.2897111858981  0.3475276842198 1.0
C      1  0.5760425306098  0.4499258293558  0.2416505185739 1.0
C      1  0.5760426461891  0.5500749761333  0.7583544025615 1.0
C      1  0.4239584021406  0.5500751824766  0.2416503097944 1.0
C      1  0.4239574414530  0.4499245349661  0.7583541279400 1.0
C      1  0.6824259935922  0.7231462999487  0.5151019008822 1.0
C      1  0.6824221656101  0.2768567233071  0.4848936603901 1.0
C      1  0.3175745649944  0.2768536115779  0.5151002222252 1.0
C      1  0.3175779490588  0.7231437445553  0.4848948522872 1.0
C      1  0.2887461969853  0.5309143356688  0.3149001638514 1.0
C      1  0.2887463500199  0.4690847143862  0.6851011561004 1.0
C      1  0.7112543695135  0.4690862088421  0.3148999978274 1.0
C      1  0.7112532302861  0.5309149601219  0.6851018249634 1.0
C      1  0.3728358304841  0.5379293128357  0.4815915906425 1.0
C      1  0.3728225770921  0.4620572506131  0.5184087792387 1.0
C      1  0.6271616822651  0.4620714880636  0.4815898441386 1.0
C      1  0.6271739522807  0.5379399367994  0.5184105272814 1.0
C      1  0.6450144016923  0.4009379757100  0.2914055032060 1.0
C      1  0.6450140278973  0.5990626282943  0.7085967581894 1.0
C      1  0.3549862282123  0.5990626748651  0.2914055817610 1.0
C      1  0.3549860978315  0.4009370458121  0.7085960508401 1.0
C      1  0.7850434292649  0.4656510894558  0.3740353045974 1.0
C      1  0.7850417916464  0.5343511444025  0.6259646214297 1.0
C      1  0.2149572075415  0.5343490533793  0.3740350901637 1.0
C      1  0.2149573413155  0.4656491295969  0.6259648279127 1.0
C      1  0.7663748241076  0.3700943834017  0.5970857813942 1.0
C      1  0.7663768591669  0.6299084778277  0.4029136772575 1.0
C      1  0.2336255177681  0.6299056980903  0.5970858852788 1.0
C      1  0.2336233031958  0.3700919725907  0.4029132781676 1.0
C      1  0.8076041124939  0.5985394865308  0.5516444761483 1.0
C      1  0.8076040707098  0.4014627690052  0.4483553516697 1.0
C      1  0.1923962122306  0.4014603042238  0.5516438481279 1.0
C      1  0.1923968311335  0.5985378415314  0.4483554234275 1.0
C      1  0.3251028677972  0.4428135246785  0.2896365574691 1.0
C      1  0.3251030200278  0.5571857349034  0.7103647286752 1.0
C      1  0.6748977681731  0.5571874099786  0.2896364650711 1.0
C      1  0.6748971610825  0.4428138151528  0.7103648869543 1.0
C      1  0.4667889667425  0.2353247458303  0.2456392472917 1.0
C      1  0.4667878264454  0.7646757596997  0.7543583234185 1.0
C      1  0.5332121015133  0.7646760735774  0.2456406267766 1.0
C      1  0.5332123856160  0.2353236531543  0.7543577232174 1.0
C      1  0.3813239727417  0.7362312943902  0.4052938602488 1.0
C      1  0.3813248801251  0.2637753823797  0.5947015391968 1.0
C      1  0.6186773039783  0.2637680161723  0.4052921356329 1.0
C      1  0.6186759874031  0.7362260366544  0.5947032156801 1.0
C      1  0.4854311509363  0.3149465172679  0.7167751914914 1.0
C      1  0.4854323209312  0.6850533722790  0.2832249849175 1.0
C      1  0.5145682727713  0.6850528048551  0.7167746361374 1.0
C      1  0.5145656687788  0.3149482190834  0.2832282578797 1.0
C      1  0.5880757978108  0.4559335301138  0.7551932330777 1.0
C      1  0.5880759078365  0.5440669770062  0.2448104493553 1.0
C      1  0.4119244590784  0.5440660928133  0.7551928853702 1.0
C      1  0.4119254334000  0.4559343090238  0.2448117277898 1.0
C      1  0.4541354112846  0.6626616708353  0.6398517391752 1.0
C      1  0.4541339615384  0.3373344306717  0.3601494589341 1.0
C      1  0.5458654549468  0.3373381342425  0.6398516902170 1.0
C      1  0.5458670700555  0.6626658160365  0.3601492209502 1.0
C      1  0.5059889434285  0.4052250686159  0.7603535410484 1.0
C      1  0.5059893662422  0.5947745994370  0.2396498810495 1.0
C      1  0.4940109193378  0.5947744018683  0.7603532868499 1.0
C      1  0.4940112535006  0.4052262227440  0.2396505967746 1.0
C      1  0.2992290476491  0.6358963376458  0.6628282815955 1.0
C      1  0.2992277003161  0.3641018107537  0.3371711196288 1.0
C      1  0.7007710661183  0.3641034689637  0.6628279877397 1.0
C      1  0.7007723512338  0.6358986229273  0.3371719927681 1.0
C      1  0.4443044475208  0.2050758318315  0.4603307800578 1.0
C      1  0.4443058660042  0.7949183244222  0.5396664965691 1.0
C      1  0.5556961944548  0.7949242634760  0.4603329504536 1.0
C      1  0.5556938695907  0.2050798440087  0.5396639316639 1.0
C      1  0.3901640540833  0.3178419175247  0.6772291255382 1.0
C      1  0.3901649865707  0.6821592666303  0.3227691629805 1.0
C      1  0.6098362494839  0.6821579292866  0.6772294229546 1.0
C      1  0.6098351115984  0.3178409471436  0.3227691899377 1.0
C      1  0.8184644729968  0.5518585290984  0.4025508542767 1.0
C      1  0.8184634060053  0.4481434968631  0.5974495090407 1.0
C      1  0.1815358056327  0.4481418744264  0.4025503683028 1.0
C      1  0.1815367079230  0.5518568562011  0.5974492650007 1.0
C      1  0.5642095896964  0.3973844489028  0.4813441005583 1.0
C      1  0.5642174586001  0.6026251517759  0.5186605174409 1.0
C      1  0.4357848612571  0.6026169585317  0.4813415123791 1.0
C      1  0.4357762923005  0.3973708274902  0.5186632982986 1.0
END
