TITL C-13527-1983-44 -10.535 3375.00 -1632.78545457 0 0 197 (C1) n - 1
REM
REM Run started: at 2021.01.01 19:22:32 in /gpfs/home/chem/mssmkc/CARBON/AIRSS/Generating-Clusters/Str-Search/Higher-Symm/C100-200
REM VASP from code version vasp.5.4.4.18Apr17-6-g9f103f2a35 (build Oct 11 2019 16:45:47) gamma-only
REM
REM
REM
REM
REM ./C.cell (533062f00bc710175b3da973d35f2034)
REM AIRSS Version 0.9.1 bugfix July 2018 build 013d7b7c2542+ Fri, 06 Jul 2018 19:26:36 +0100
REM compiler GCC version 6.3.0
REM options -cpp -iprefix /gpfs/warwick/csc/orac/software/Core/GCCcore/6.3.0/bin/../lib/gcc/x86_64-pc-linux-gnu/6.3.0/ -mtune=generic -march=x86-64 -g -O0
REM seed 612896963 1070999622 439520444 -52987732 120835254 -991207367 -1144191743 -1041454041 950148227 1968345401 357454148 -84356431
REM
REM C.POTCAR (d86ddea03c3ceb6dc662c8ad6801f873)
REM 
CELL 1.54180   15.00000   15.00000   15.00000   90.00000   90.00000   90.00000
LATT -1
SFAC C  
C      1  0.3769132335662  0.4859054001264  0.1857134133297 1.0
C      1  0.2545593325786  0.4967858718029  0.4628903196647 1.0
C      1  0.4825042134884  0.5478563148442  0.7384811140697 1.0
C      1  0.7487771658860  0.5131557110513  0.6527439392161 1.0
C      1  0.7277729527418  0.5291028897003  0.3620795384563 1.0
C      1  0.8019926608406  0.6551482795662  0.3069529150898 1.0
C      1  0.3752417486923  0.6534940257609  0.1850354950003 1.0
C      1  0.1524265103058  0.6801865598881  0.5092166657529 1.0
C      1  0.3797955515441  0.6363276230976  0.8243352957327 1.0
C      1  0.7694085326507  0.6632530968779  0.6952202832852 1.0
C      1  0.1640825249049  0.5647929973287  0.2795613673920 1.0
C      1  0.1478934630270  0.5807303864198  0.7288403401876 1.0
C      1  0.6136022365710  0.5794356179898  0.8789838770233 1.0
C      1  0.9272085510896  0.5997328039773  0.5138424506653 1.0
C      1  0.6107824372727  0.5840244571583  0.1506923013695 1.0
C      1  0.5256258512699  0.5618172739498  0.9041016361761 1.0
C      1  0.8965830151092  0.5856163532879  0.6056855672095 1.0
C      1  0.7025370120463  0.5711394892396  0.1845206626874 1.0
C      1  0.2212576262851  0.5548717559125  0.2035090567015 1.0
C      1  0.1164897090966  0.5715863854828  0.6413295244843 1.0
C      1  0.5284587512437  0.3931950780758  0.8261919429847 1.0
C      1  0.8292539821252  0.4020762364116  0.5463182914618 1.0
C      1  0.6508922305592  0.3981932141566  0.2347283475632 1.0
C      1  0.2696404094776  0.3606154888667  0.2738292525656 1.0
C      1  0.2502980228138  0.3829056168339  0.6737542553894 1.0
C      1  0.2195538660370  0.6471541066865  0.7529212896255 1.0
C      1  0.6468447315285  0.6479181349899  0.8185689032339 1.0
C      1  0.8913188250498  0.6612172701304  0.4511979742055 1.0
C      1  0.5510155965138  0.6556082274892  0.1555376350874 1.0
C      1  0.1679825847384  0.6411442375150  0.3367008907253 1.0
C      1  0.5813589058215  0.4571666129127  0.2208095113198 1.0
C      1  0.2434883919696  0.4340020988051  0.3257229645004 1.0
C      1  0.2937354570519  0.4630485306288  0.6987581535995 1.0
C      1  0.6129791016778  0.4366505672798  0.8265372375105 1.0
C      1  0.8400696651851  0.4763941300799  0.4892878586361 1.0
C      1  0.7368008971587  0.5059992504827  0.1253681150798 1.0
C      1  0.1930479589529  0.4751735165119  0.1565349661598 1.0
C      1  0.0467056207484  0.4950723578852  0.6373492222447 1.0
C      1  0.5315124816529  0.4797317970644  0.9700988603630 1.0
C      1  0.9464370278741  0.5160130413466  0.6516899156887 1.0
C      1  0.5907306988608  0.4406076016397  0.6687366678691 1.0
C      1  0.6672419968175  0.4986005028366  0.4971225367101 1.0
C      1  0.4648317215105  0.4626023657096  0.3334864199937 1.0
C      1  0.4087295668383  0.4895353403842  0.4167505332631 1.0
C      1  0.4213013957896  0.5003370711067  0.5896199063095 1.0
C      1  0.3573123868383  0.7410755986639  0.2092748025647 1.0
C      1  0.1578979655914  0.7654881093355  0.5525429497359 1.0
C      1  0.4212077158836  0.7215198269078  0.8191527274928 1.0
C      1  0.7654858949835  0.7510646844914  0.6575370562270 1.0
C      1  0.7429384162995  0.7282389592071  0.2927584715845 1.0
C      1  0.5130531334105  0.3782661279385  0.7191340087472 1.0
C      1  0.7362971376576  0.3735050509815  0.5743805672824 1.0
C      1  0.6571245650565  0.3797017316825  0.3318071896914 1.0
C      1  0.3674534517052  0.3407538227968  0.2813746468491 1.0
C      1  0.2680925831071  0.3541867660858  0.5774615039948 1.0
C      1  0.1326110274288  0.4234751307935  0.2116561514852 1.0
C      1  0.0948119962148  0.4335654265705  0.7071090284450 1.0
C      1  0.6315358884847  0.4605557945684  0.9842290243356 1.0
C      1  0.9831084937713  0.4568699255135  0.5643407044011 1.0
C      1  0.6607142868027  0.4541683730450  0.0789932782853 1.0
C      1  0.3181889231324  0.3746210808522  0.9200301562092 1.0
C      1  0.8750950831554  0.4145979421739  0.7721624445262 1.0
C      1  0.8669712268207  0.4524794740642  0.2067601203329 1.0
C      1  0.3422075322999  0.4249208286167  0.1110440552971 1.0
C      1  0.1163381529145  0.3460956860864  0.5009633306107 1.0
C      1  0.9340507190082  0.5535331531567  0.3294647092909 1.0
C      1  0.4435249759079  0.5346803150086  0.1296303067613 1.0
C      1  0.1873221741038  0.5531886951112  0.4812131167183 1.0
C      1  0.2818664522600  0.5082365266193  0.7780456276664 1.0
C      1  0.7194114100202  0.5217862705940  0.7455210217799 1.0
C      1  0.8806092466701  0.6315326731383  0.3595783110244 1.0
C      1  0.4593863996237  0.6225807821954  0.1532025753805 1.0
C      1  0.1564075536606  0.6301430359824  0.4318548030536 1.0
C      1  0.2959540536268  0.6058669479162  0.7906258016107 1.0
C      1  0.7159441474168  0.6213043229317  0.7594234421714 1.0
C      1  0.4253877136614  0.3375481700723  0.5138200579003 1.0
C      1  0.5074300404127  0.3232861480961  0.5712688808663 1.0
C      1  0.5827452912455  0.3213697454169  0.5209859576286 1.0
C      1  0.5529915760093  0.3124591223653  0.4298185108977 1.0
C      1  0.4620668184507  0.3109548607056  0.4220276016999 1.0
C      1  0.2110824473787  0.3653671548043  0.1965495733653 1.0
C      1  0.1550905617726  0.3702220165062  0.6668860611260 1.0
C      1  0.4831339727931  0.4066647621833  0.9093902766419 1.0
C      1  0.9136556972573  0.3947254901791  0.5987913918974 1.0
C      1  0.7066763835981  0.3895141902458  0.1533845996420 1.0
C      1  0.4397426811073  0.2079920828105  0.6627307209392 1.0
C      1  0.6517239306115  0.2115070805287  0.6133122556392 1.0
C      1  0.6861086184217  0.2241420275939  0.3961211613646 1.0
C      1  0.4808647504523  0.1884492432088  0.3176302782867 1.0
C      1  0.3129809905993  0.2207075112729  0.4798463150596 1.0
C      1  0.4326803070399  0.8105358839145  0.4366273987129 1.0
C      1  0.4071062065552  0.8165869101177  0.5369779474291 1.0
C      1  0.4963512901931  0.8182529006352  0.5819216198628 1.0
C      1  0.5678670025195  0.8044508226229  0.5174477811439 1.0
C      1  0.5319114536097  0.8044090123857  0.4331918155881 1.0
C      1  0.2477615962720  0.4046501178618  0.1157814350229 1.0
C      1  0.1665990235110  0.3369392260268  0.5753215043779 1.0
C      1  0.4024052897048  0.3830313307973  0.9575377618285 1.0
C      1  0.9051959153835  0.4300356782117  0.6899002160682 1.0
C      1  0.7940857992577  0.4345387097920  0.1552086510598 1.0
C      1  0.5727722087986  0.2058680469923  0.3159114034945 1.0
C      1  0.3404483422090  0.2108617654956  0.3932732853796 1.0
C      1  0.3680108605905  0.2024964531531  0.6025919233178 1.0
C      1  0.5784791929868  0.2142687617024  0.6698907200591 1.0
C      1  0.7060086301665  0.2230830369509  0.4862590604839 1.0
C      1  0.9110648512362  0.5070244167663  0.2521791782845 1.0
C      1  0.4103924227154  0.4090399620135  0.0516008440133 1.0
C      1  0.0864207053625  0.3832571086394  0.4325803870042 1.0
C      1  0.2455164694622  0.3966945604701  0.8837230695171 1.0
C      1  0.8303100687243  0.4377890342698  0.8411328395852 1.0
C      1  0.9874299274410  0.5024253589224  0.3913010906417 1.0
C      1  0.4900796446030  0.4751335824391  0.0661361091368 1.0
C      1  0.0649196041050  0.4496801873203  0.3729981406481 1.0
C      1  0.2096443024497  0.4619851550596  0.8296817590068 1.0
C      1  0.7532322040476  0.4843887607442  0.8443451678727 1.0
C      1  0.3551023826885  0.0692983116054  0.4728658515414 1.0
C      1  0.5196864306539  0.0540144940920  0.6632910351193 1.0
C      1  0.6606258651614  0.0687309191340  0.5001786390366 1.0
C      1  0.6369592181252  0.0707843956745  0.4063924434244 1.0
C      1  0.4439065910128  0.1017752225250  0.3461466672600 1.0
C      1  0.5366905271701  0.6942291990932  0.6559056139716 1.0
C      1  0.6680496741018  0.6656298328965  0.5194802084161 1.0
C      1  0.5671807053930  0.6691494497457  0.3636904908388 1.0
C      1  0.3795714105387  0.6462646944610  0.3789889232624 1.0
C      1  0.3489056152108  0.6552931079979  0.5767156850240 1.0
C      1  0.4109482593686  0.4201352975200  0.2639021589078 1.0
C      1  0.2996125291624  0.4435957041863  0.5335969401883 1.0
C      1  0.4873653487123  0.4686151006176  0.6743240766568 1.0
C      1  0.6836155793600  0.4555193357978  0.5928742267772 1.0
C      1  0.6731413347688  0.4519471262735  0.3896190024989 1.0
C      1  0.5349033607818  0.6067974276484  0.4312153984614 1.0
C      1  0.4349329157060  0.5902497040253  0.4468141471403 1.0
C      1  0.4325960217247  0.5993882304442  0.5510300129067 1.0
C      1  0.5266502835418  0.6206002698659  0.5865897342015 1.0
C      1  0.5969098251979  0.5958934779053  0.5121417228550 1.0
C      1  0.2197178134254  0.7340598537947  0.7097470523546 1.0
C      1  0.5995395905024  0.7282174009993  0.7979512902822 1.0
C      1  0.8166221152740  0.7080562190343  0.4975239417968 1.0
C      1  0.5790708629155  0.7362251967107  0.1978573605430 1.0
C      1  0.2141576772587  0.7191404184622  0.3130373244552 1.0
C      1  0.1385086270709  0.4691984516275  0.3033575861291 1.0
C      1  0.1350182548644  0.4892779536522  0.7750124990984 1.0
C      1  0.6679853424564  0.4879568839183  0.8968569606818 1.0
C      1  0.9445488478007  0.5055838076315  0.4823790235788 1.0
C      1  0.5777397707671  0.4886329723209  0.1264834063743 1.0
C      1  0.4764985440324  0.0190043362097  0.3905682874578 1.0
C      1  0.4048103191730  0.9851721751111  0.4545763232198 1.0
C      1  0.5454670099770  0.0118810614878  0.5947678205945 1.0
C      1  0.5928915180339  0.9993603329071  0.5187312820813 1.0
C      1  0.5625826092859  0.0100626393596  0.4231495506462 1.0
C      1  0.5150187454319  0.6112338765539  0.6850980297357 1.0
C      1  0.7570299366383  0.6291872546890  0.5220572585311 1.0
C      1  0.5660197348283  0.5842557763798  0.3396913983293 1.0
C      1  0.3310891377368  0.5860303603979  0.3259568853479 1.0
C      1  0.2816563457232  0.5971225072761  0.5971178211437 1.0
C      1  0.2842176680938  0.7764514134485  0.3434308991483 1.0
C      1  0.2838570067710  0.7901260500478  0.6585566233555 1.0
C      1  0.6018374447829  0.7591061370106  0.7006685360704 1.0
C      1  0.7572698777300  0.7928299513486  0.5037634425733 1.0
C      1  0.5183959486461  0.7760996098963  0.2652874516040 1.0
C      1  0.2748085346725  0.7595057338872  0.2524344674249 1.0
C      1  0.1622407308967  0.7567286939474  0.6434260707935 1.0
C      1  0.5129738609279  0.7508605936766  0.8264995197690 1.0
C      1  0.8118847782409  0.7706935033398  0.5741732726264 1.0
C      1  0.6683523575845  0.7500891709901  0.2288469891586 1.0
C      1  0.3215365607599  0.5053925387936  0.6140351006889 1.0
C      1  0.6382095644535  0.4685279575773  0.7463672889474 1.0
C      1  0.7583787397187  0.5399868889086  0.4653362082302 1.0
C      1  0.5389813462659  0.5032219549591  0.2980986745185 1.0
C      1  0.3079552926502  0.4983994632499  0.3779365206718 1.0
C      1  0.3616853879758  0.1182171245777  0.3885044372287 1.0
C      1  0.3326982402538  0.1405542475866  0.5336661190437 1.0
C      1  0.5100314569425  0.1442177642654  0.6777367393584 1.0
C      1  0.6868835025082  0.1492135820048  0.5436163443857 1.0
C      1  0.6420827915422  0.1495823711946  0.3562947632578 1.0
C      1  0.3350174892053  0.7552352557838  0.5770113758970 1.0
C      1  0.5067307132724  0.7911334318051  0.6745869178622 1.0
C      1  0.6596956620331  0.7690788524508  0.5404776423103 1.0
C      1  0.5735748767758  0.7688071377858  0.3515064364229 1.0
C      1  0.3834812875245  0.7538603105402  0.3661320086951 1.0
C      1  0.1798961374213  0.6006833758258  0.5700633524036 1.0
C      1  0.4555583592756  0.5716173518964  0.8332582914447 1.0
C      1  0.7973970611585  0.5963975567940  0.6246583728806 1.0
C      1  0.7442796796283  0.5786085141578  0.2815100601608 1.0
C      1  0.3191372239002  0.5754672717427  0.2213839631059 1.0
C      1  0.6755631647691  0.7728389405135  0.6402318476746 1.0
C      1  0.6697368093762  0.7799833350053  0.3172028775980 1.0
C      1  0.4280264895079  0.7710187428938  0.2731469636018 1.0
C      1  0.2448085341084  0.8055511951801  0.5676661335136 1.0
C      1  0.4570109103992  0.7894539335799  0.7613958651582 1.0
C      1  0.3402049787232  0.2864017877864  0.5489150223475 1.0
C      1  0.5059124382501  0.2908919262534  0.6651179717951 1.0
C      1  0.6768558550404  0.2943293981687  0.5519937532957 1.0
C      1  0.6188249769097  0.2909260017908  0.3597360012570 1.0
C      1  0.4090487113964  0.2686997885931  0.3452997835107 1.0
C      1  0.3951632162911  0.8958394670995  0.4736156227270 1.0
C      1  0.3997617485033  0.4374815519939  0.5077650849791 1.0
END
