TITL C-13179-9057-216 -0.257 3375.00 -35.56819782 0 0 5 (D(inf)h) n - 1
REM
REM Run started: at 2020.12.30 21:01:49 in /gpfs/home/chem/mssmkc/CARBON/AIRSS/Generating-Clusters/Str-Search/Higher-Symm/C4-100
REM VASP from code version vasp.5.4.4.18Apr17-6-g9f103f2a35 (build Oct 11 2019 16:45:47) gamma-only
REM
REM
REM
REM
REM ./C.cell (6bd13a13d554368a30d355f37ece5b26)
REM AIRSS Version 0.9.1 bugfix July 2018 build 013d7b7c2542+ Fri, 06 Jul 2018 19:26:36 +0100
REM compiler GCC version 6.3.0
REM options -cpp -iprefix /gpfs/warwick/csc/orac/software/Core/GCCcore/6.3.0/bin/../lib/gcc/x86_64-pc-linux-gnu/6.3.0/ -mtune=generic -march=x86-64 -g -O0
REM seed -1289947839 792449339 -100193168 -418023430 -1667315301 376792994 1705836988 1252217700 1117929339 430603654 1929049510 -2024889457
REM
REM C.POTCAR (d86ddea03c3ceb6dc662c8ad6801f873)
REM 
CELL 1.54180   15.00000   15.00000   15.00000   90.00000   90.00000   90.00000
LATT -1
SFAC C  
C      1  0.3271741291537  0.4951515262686  0.4979815838071 1.0
C      1  0.5860252991239  0.4952151469075  0.4980188114291 1.0
C      1  0.5000000018256  0.4951951525397  0.4980067217824 1.0
C      1  0.6728258697191  0.4951515259090  0.4979815281379 1.0
C      1  0.4139747001778  0.4952151483751  0.4980188548434 1.0
END
