TITL C-13650-7649-37 -0.323 3375.00 -46.29247425 0 0 7 (C2v) n - 1
REM
REM Run started: at 2021.01.04 15:34:34 in /gpfs/home/chem/mssmkc/CARBON/AIRSS/Generating-Clusters/Str-Search/Higher-Symm/C4-100
REM VASP from code version vasp.5.4.4.18Apr17-6-g9f103f2a35 (build Oct 11 2019 16:45:47) gamma-only
REM
REM
REM
REM
REM ./C.cell (6bd13a13d554368a30d355f37ece5b26)
REM AIRSS Version 0.9.1 bugfix July 2018 build 013d7b7c2542+ Fri, 06 Jul 2018 19:26:36 +0100
REM compiler GCC version 6.3.0
REM options -cpp -iprefix /gpfs/warwick/csc/orac/software/Core/GCCcore/6.3.0/bin/../lib/gcc/x86_64-pc-linux-gnu/6.3.0/ -mtune=generic -march=x86-64 -g -O0
REM seed -1581439087 1448440682 222748009 90563353 -1376175227 -1248453315 -676489556 -1210113697 1969520168 1168512495 -584831260 829032508
REM
REM C.POTCAR (d86ddea03c3ceb6dc662c8ad6801f873)
REM 
CELL 1.54180   15.00000   15.00000   15.00000   90.00000   90.00000   90.00000
LATT -1
SFAC C  
C      1  0.4492250375471  0.5469719830691  0.5925711451104 1.0
C      1  0.4492457000455  0.4561108132419  0.4082784369742 1.0
C      1  0.4492630018292  0.4561292531933  0.5926411085195 1.0
C      1  0.4492051237129  0.5469577120341  0.4083321877957 1.0
C      1  0.4843980137597  0.4461979961970  0.5004512053209 1.0
C      1  0.4844230965716  0.5572582871751  0.5004519303587 1.0
C      1  0.5672659265341  0.5017104550895  0.5004477859206 1.0
END
