TITL C-13650-7649-36 -2.986 3375.00 -503.08211267 0 0 65 (C1) n - 1
REM
REM Run started: at 2021.01.04 15:34:12 in /gpfs/home/chem/mssmkc/CARBON/AIRSS/Generating-Clusters/Str-Search/Higher-Symm/C4-100
REM VASP from code version vasp.5.4.4.18Apr17-6-g9f103f2a35 (build Oct 11 2019 16:45:47) gamma-only
REM
REM
REM
REM
REM ./C.cell (6bd13a13d554368a30d355f37ece5b26)
REM AIRSS Version 0.9.1 bugfix July 2018 build 013d7b7c2542+ Fri, 06 Jul 2018 19:26:36 +0100
REM compiler GCC version 6.3.0
REM options -cpp -iprefix /gpfs/warwick/csc/orac/software/Core/GCCcore/6.3.0/bin/../lib/gcc/x86_64-pc-linux-gnu/6.3.0/ -mtune=generic -march=x86-64 -g -O0
REM seed -323312681 -1147738621 -252693569 2090092100 -1647023967 -1405827898 -1337658405 -1780600694 -1480263528 178434813 -1209364394 -2015963342
REM
REM C.POTCAR (d86ddea03c3ceb6dc662c8ad6801f873)
REM 
CELL 1.54180   15.00000   15.00000   15.00000   90.00000   90.00000   90.00000
LATT -1
SFAC C  
C      1  0.5021106129920  0.5700256098578  0.3812242671544 1.0
C      1  0.5791753205752  0.3475390778622  0.5025209879021 1.0
C      1  0.3507987126164  0.5055009569820  0.5763820039939 1.0
C      1  0.5050476786036  0.5749469358030  0.6445932347452 1.0
C      1  0.5015998467484  0.4307158689220  0.3829375818300 1.0
C      1  0.5032315360193  0.4306565566203  0.6406467169219 1.0
C      1  0.4272212784726  0.3534802178371  0.5066357646010 1.0
C      1  0.4292596835930  0.6554259229770  0.5004567373113 1.0
C      1  0.5802225547485  0.6555035421431  0.4994434683509 1.0
C      1  0.6611950998617  0.5008803806216  0.4229357588189 1.0
C      1  0.6486567052427  0.4995370502785  0.5689919922394 1.0
C      1  0.3433452602985  0.5004048516439  0.4282551140463 1.0
C      1  0.3466255812160  0.5768065247970  0.5014113327330 1.0
C      1  0.5055462507317  0.3553752266241  0.5743417692068 1.0
C      1  0.5712184044585  0.5002010427238  0.3807127242016 1.0
C      1  0.6498974880297  0.5749134961188  0.4998991867568 1.0
C      1  0.3542850215130  0.4268900307187  0.5061717851466 1.0
C      1  0.6600883832344  0.4234090162780  0.4974763273200 1.0
C      1  0.5026370908465  0.3419716576258  0.4284055612721 1.0
C      1  0.5027138880495  0.6599971049254  0.4243290392531 1.0
C      1  0.5039926430087  0.6472858290993  0.5718663403810 1.0
C      1  0.4313502713459  0.5031978773094  0.6427722401190 1.0
C      1  0.5791064404700  0.4984909943051  0.6482470590790 1.0
C      1  0.4322942133517  0.5004017621717  0.3831894376269 1.0
C      1  0.7304766660255  0.5476068226255  0.6132897481251 1.0
C      1  0.5091203995774  0.6469297479205  0.7156795332857 1.0
C      1  0.6442674208327  0.7304587713414  0.5148846724252 1.0
C      1  0.2686429950339  0.4843631234457  0.3677123704355 1.0
C      1  0.2755116135684  0.4929965315036  0.6423123002199 1.0
C      1  0.7338497812543  0.5161773615412  0.3604926058989 1.0
C      1  0.6429712704564  0.7668026725525  0.2514450854698 1.0
C      1  0.4559116587355  0.3838520918152  0.7194088869229 1.0
C      1  0.3602214590354  0.2330538505573  0.2562572118419 1.0
C      1  0.3565687266262  0.7265645671975  0.5079812944557 1.0
C      1  0.3539448797411  0.2847089733944  0.5165156238034 1.0
C      1  0.6289142498979  0.2627270191130  0.5344437841435 1.0
C      1  0.6445640667252  0.5063627080259  0.7239141611740 1.0
C      1  0.7303721500233  0.6153964908821  0.5514556561932 1.0
C      1  0.5078248353735  0.7188367760878  0.6443872827191 1.0
C      1  0.2372479673320  0.3544969209028  0.2574392900233 1.0
C      1  0.7661453934468  0.6455768887501  0.2501850355043 1.0
C      1  0.3906598001032  0.4516682360730  0.7232665665136 1.0
C      1  0.2796057477580  0.6532278216160  0.5067776919320 1.0
C      1  0.7378746188807  0.3613509355185  0.5000347743138 1.0
C      1  0.2826653597238  0.3557337256353  0.5166003100000 1.0
C      1  0.5140260729157  0.7340354167180  0.3622342584068 1.0
C      1  0.4883856476568  0.2673053721362  0.3676533490557 1.0
C      1  0.5164170269448  0.2705973168117  0.6375835590639 1.0
C      1  0.7203249811030  0.2807125939541  0.5141202436797 1.0
C      1  0.2886687628785  0.7213986535616  0.4375878761553 1.0
C      1  0.2956857191464  0.4566469030344  0.7162780508062 1.0
C      1  0.5745477248377  0.7531802459090  0.3073306393995 1.0
C      1  0.7532073801501  0.5767164209249  0.3058423128770 1.0
C      1  0.5139347986747  0.7382896130661  0.7365335336258 1.0
C      1  0.4281364422182  0.2469836976050  0.3129919071489 1.0
C      1  0.4706004271384  0.2917586069039  0.7146210054969 1.0
C      1  0.2627909699449  0.2631154607279  0.5222526527879 1.0
C      1  0.7188610169690  0.7108298185245  0.5481555112347 1.0
C      1  0.7216179984651  0.5358270548685  0.7086109864390 1.0
C      1  0.2499225460529  0.4228881793722  0.3137510325914 1.0
C      1  0.5833931748687  0.2172375436727  0.5997007630262 1.0
C      1  0.7071097505954  0.7089170523870  0.2451247124383 1.0
C      1  0.2960122542844  0.7123655255032  0.5830885039308 1.0
C      1  0.2956488802161  0.2907430730486  0.2512091161873 1.0
C      1  0.5027854987607  0.5013388805252  0.4606671692368 1.0
END
