TITL C-13148-6401-4 -9.307 3375.00 -1598.80414573 0 0 194 (C2v) n - 1
REM
REM Run started: at 2020.11.22 05:46:36 in /rds/project/t2_vol4/rds-t2-cs072/BORA/CARBON/AIRSS/Generating-Clusters/Str-Search/Higher-Symm
REM VASP from code version vasp.5.4.4.18Apr17-6-g9f103f2a35 (build Oct 11 2019 16:45:47) gamma-only
REM
REM
REM
REM
REM ./C.cell (e5ae0387ce4d49c7c0135a1433873289)
REM AIRSS Version 0.9.1 bugfix July 2018 build 013d7b7c2542+ Fri, 06 Jul 2018 19:26:36 +0100
REM compiler GCC version 4.8.5 20150623 (Red Hat 4.8.5-39)
REM options -cpp -mtune=generic -march=x86-64 -g -O0
REM seed 1215897197 -392766409 1445102372 -538550581 -1346432170 -2084482425 391165665 1613917695 -65295748 -44681154 1576484662 243653469
REM
REM C.POTCAR (d86ddea03c3ceb6dc662c8ad6801f873)
REM 
CELL 1.54180   15.00000   15.00000   15.00000   90.00000   90.00000   90.00000
LATT -1
SFAC C  
C      1  0.2849342294822  0.3200561748469  0.1443570840506 1.0
C      1  0.2849354429599  0.6799478160154  0.8556386451312 1.0
C      1  0.2849383963986  0.6799452804783  0.1443560844591 1.0
C      1  0.2849365377132  0.3200599385529  0.8556441017489 1.0
C      1  0.3591621821667  0.6693708150119  0.7271007561972 1.0
C      1  0.3591595628630  0.3306251686143  0.2728936650147 1.0
C      1  0.3591594641868  0.3306224245142  0.7271079217465 1.0
C      1  0.3591637234384  0.6693797803480  0.2728909795771 1.0
C      1  0.7060445505962  0.8077797243234  0.7710063567926 1.0
C      1  0.7060536271614  0.1922186209354  0.2289966697901 1.0
C      1  0.7060547947566  0.1922162190794  0.7709975268502 1.0
C      1  0.7060572372674  0.8077822627343  0.2290037196906 1.0
C      1  0.0996257779808  0.2915345792879  0.4583194171427 1.0
C      1  0.0996272813001  0.7084692006250  0.5416673234302 1.0
C      1  0.0996299397380  0.7084709864830  0.4583243316788 1.0
C      1  0.0996280098762  0.2915346879964  0.5416851918284 1.0
C      1  0.5234360657621  0.4034904620157  0.4541396733088 1.0
C      1  0.5234351404922  0.5965083212479  0.5458594367670 1.0
C      1  0.5234351865291  0.5965106427970  0.4541417223516 1.0
C      1  0.5234360372064  0.4034896910309  0.5458577681890 1.0
C      1  0.4948758747587  0.6368786631215  0.0993201590512 1.0
C      1  0.4948809086729  0.3631209186719  0.9006709540458 1.0
C      1  0.4948744321820  0.3631210682295  0.0993140758886 1.0
C      1  0.4948827197411  0.6368858485205  0.9006776907570 1.0
C      1  0.7853081813010  0.8081486213729  0.4578596870880 1.0
C      1  0.7853085903476  0.1918434046746  0.5421485115648 1.0
C      1  0.7853062503270  0.1918450504785  0.4578459386709 1.0
C      1  0.7853065630309  0.8081534545729  0.5421607575431 1.0
C      1  0.7240065855958  0.4073106459206  0.3889482662913 1.0
C      1  0.7240064408467  0.5926899004555  0.6110502570494 1.0
C      1  0.7240072558369  0.5926881293556  0.3889532845665 1.0
C      1  0.7240054247071  0.4073088416365  0.6110490088737 1.0
C      1  0.5363624447840  0.6726025990597  0.7510809662285 1.0
C      1  0.5363620928356  0.3273912235805  0.2489156428618 1.0
C      1  0.5363635763652  0.3273868451560  0.7510815835253 1.0
C      1  0.5363679628308  0.6726131148478  0.2489183565283 1.0
C      1  0.4471575211586  0.6669718572553  0.2677167694367 1.0
C      1  0.4471535432529  0.3330289621929  0.7322816621454 1.0
C      1  0.4471549120868  0.3330358590214  0.2677173117736 1.0
C      1  0.4471529550024  0.6669606213442  0.7322785972344 1.0
C      1  0.6357832628363  0.8156180937990  0.5462539579436 1.0
C      1  0.6357848877362  0.1843813078120  0.4537455696830 1.0
C      1  0.6357832922648  0.1843798477442  0.5462477303391 1.0
C      1  0.6357846226749  0.8156198366075  0.4537542109417 1.0
C      1  0.6398706337386  0.1344036879181  0.2083139841898 1.0
C      1  0.6398595772816  0.8655900837118  0.7916985720024 1.0
C      1  0.6398742077083  0.8655957348848  0.2083173458064 1.0
C      1  0.6398712349481  0.1344018558044  0.7916781079106 1.0
C      1  0.4785473489243  0.8098868241590  0.6031026520867 1.0
C      1  0.4785485124055  0.1901107567219  0.3968991092372 1.0
C      1  0.4785480851602  0.1901105343307  0.6030930192949 1.0
C      1  0.4785521114864  0.8098907100655  0.3969037305938 1.0
C      1  0.6897264158638  0.2480864004532  0.3153485025276 1.0
C      1  0.6897208289406  0.7519133849164  0.6846547196940 1.0
C      1  0.6897299701740  0.7519154572943  0.3153557506138 1.0
C      1  0.6897267883635  0.2480819328888  0.6846457364576 1.0
C      1  0.2969700550936  0.4092862381403  0.8597988050131 1.0
C      1  0.2969695690850  0.5907185301529  0.1402002118235 1.0
C      1  0.2969693748552  0.5907195428904  0.8597981398816 1.0
C      1  0.2969689728328  0.4092834557563  0.1402002204456 1.0
C      1  0.8608596660398  0.3552793092549  0.6596493763938 1.0
C      1  0.8608618885296  0.6447179124743  0.3403551443186 1.0
C      1  0.8608605689322  0.6447206395534  0.6596528888629 1.0
C      1  0.8608605306343  0.3552841963544  0.3403502825914 1.0
C      1  0.4320954632521  0.6032966231877  0.0484289351647 1.0
C      1  0.4320857272173  0.3967108124930  0.9515750607448 1.0
C      1  0.4320934133821  0.3967045975776  0.0484259022629 1.0
C      1  0.4320872008774  0.6032973964911  0.9515777807829 1.0
C      1  0.2760354105524  0.6037685686925  0.3050913242857 1.0
C      1  0.2760324113542  0.3962347377316  0.6949082855713 1.0
C      1  0.2760308732313  0.3962345678806  0.3050928662082 1.0
C      1  0.2760301471388  0.6037650311249  0.6949047589190 1.0
C      1  0.6125569091568  0.6754918619780  0.3158959672290 1.0
C      1  0.6125510963742  0.3245039432956  0.6841041242889 1.0
C      1  0.6125519284549  0.3245102967880  0.3158902764470 1.0
C      1  0.6125521948373  0.6754860446655  0.6841082454013 1.0
C      1  0.6771928722892  0.4037701070469  0.6954369232647 1.0
C      1  0.6771941071622  0.5962269665324  0.3045627145787 1.0
C      1  0.6771923435136  0.5962236915928  0.6954392667439 1.0
C      1  0.6771918429297  0.4037741035538  0.3045609641308 1.0
C      1  0.2811507324278  0.4460411935238  0.6013453002976 1.0
C      1  0.2811503598732  0.5539594382128  0.3986520135543 1.0
C      1  0.2811495052760  0.5539569918370  0.6013435488105 1.0
C      1  0.2811503384855  0.4460433231599  0.3986546376064 1.0
C      1  0.6789257816797  0.4518254428494  0.7797112472202 1.0
C      1  0.6789272905578  0.5481728256767  0.2202898996779 1.0
C      1  0.6789248456800  0.5481692292442  0.7797117008731 1.0
C      1  0.6789248704258  0.4518322903239  0.2202872591959 1.0
C      1  0.6544072998083  0.4516635817427  0.0522012088210 1.0
C      1  0.6544092943874  0.5483329780807  0.9477991425795 1.0
C      1  0.6544076084714  0.5483316466710  0.0522023648114 1.0
C      1  0.6544085576852  0.4516640476499  0.9477988194135 1.0
C      1  0.2038650921423  0.4083083864518  0.4533063561238 1.0
C      1  0.2038649158650  0.5916935138568  0.5466899035881 1.0
C      1  0.2038672980304  0.5916949013640  0.4533057462704 1.0
C      1  0.2038659751131  0.4083078288856  0.5466943699947 1.0
C      1  0.3626973205175  0.5454954029428  0.9119933382215 1.0
C      1  0.3626969016629  0.4545083642963  0.0880057193619 1.0
C      1  0.3626987230616  0.4545127507819  0.9119941017010 1.0
C      1  0.3626991457035  0.5454912224155  0.0880044555192 1.0
C      1  0.5701443277690  0.1090435573866  0.2582961455189 1.0
C      1  0.5701337272791  0.8909535574922  0.7417099862322 1.0
C      1  0.5701471040517  0.8909562303356  0.2583016915373 1.0
C      1  0.5701433579738  0.1090404497751  0.7416934668946 1.0
C      1  0.8224396827158  0.5962481944361  0.5876230527667 1.0
C      1  0.8224375979236  0.4037513810309  0.4123794726498 1.0
C      1  0.8224368558274  0.4037518537545  0.5876179321196 1.0
C      1  0.8224384249956  0.5962448076696  0.4123844299275 1.0
C      1  0.2936966977387  0.7286113248396  0.2169992885386 1.0
C      1  0.2936904934090  0.2713918362103  0.7829980211358 1.0
C      1  0.2936920742458  0.2713915896335  0.2170051502757 1.0
C      1  0.2936920493701  0.7286063038592  0.7829900108675 1.0
C      1  0.1568383108741  0.3412248224352  0.5966353837638 1.0
C      1  0.1568396983072  0.6587827214566  0.4033633354796 1.0
C      1  0.1568338025729  0.6587794658237  0.5966305714525 1.0
C      1  0.1568345300239  0.3412238791595  0.4033709929815 1.0
C      1  0.5622134224692  0.6448277428939  0.8420679749859 1.0
C      1  0.5622174130214  0.3551706456284  0.1579356477120 1.0
C      1  0.5622135723389  0.3551693437970  0.8420660797633 1.0
C      1  0.5622182470195  0.6448305083394  0.1579378617075 1.0
C      1  0.5049196881223  0.8737580172189  0.6678011512258 1.0
C      1  0.5049228133760  0.1262404159295  0.3322033597057 1.0
C      1  0.5049217338182  0.1262373663540  0.6677892995455 1.0
C      1  0.5049270336836  0.8737590979111  0.3322094746361 1.0
C      1  0.3692580970904  0.6997767789565  0.5445811074100 1.0
C      1  0.3692580351351  0.3002213876669  0.4554170057753 1.0
C      1  0.3692579658889  0.3002207924234  0.5445778412381 1.0
C      1  0.3692596071169  0.6997789153546  0.4554202472870 1.0
C      1  0.7107059424158  0.2039197033640  0.5988764018189 1.0
C      1  0.7107084271495  0.7960760721241  0.4011270225693 1.0
C      1  0.7107018606278  0.7960726414377  0.5988836628603 1.0
C      1  0.7107061828696  0.2039251008696  0.4011179653453 1.0
C      1  0.5047940783474  0.9529848419846  0.2865586383947 1.0
C      1  0.5047896835311  0.0470165203291  0.7134398923707 1.0
C      1  0.5047925216356  0.0470137515288  0.2865570510840 1.0
C      1  0.5047872857874  0.9529827684951  0.7134479478522 1.0
C      1  0.2456066604423  0.1761547953963  0.6611736566338 1.0
C      1  0.2456175114818  0.8238535555508  0.3388265188212 1.0
C      1  0.2456105694927  0.8238544494646  0.6611627318427 1.0
C      1  0.2456031659121  0.1761506359100  0.3388288282150 1.0
C      1  0.5509921667793  0.7617717080752  0.4466180190951 1.0
C      1  0.5509904963667  0.2382281584757  0.5533814851707 1.0
C      1  0.5509895223874  0.2382282370354  0.4466119573515 1.0
C      1  0.5509903510711  0.7617709830295  0.5533858807472 1.0
C      1  0.2213343258096  0.2443641969167  0.2796189794876 1.0
C      1  0.2213336031199  0.7556343760222  0.7203813479285 1.0
C      1  0.2213389545393  0.7556420327738  0.2796125725995 1.0
C      1  0.2213333363138  0.2443658392403  0.7203861418677 1.0
C      1  0.2686062969583  0.5451148818737  0.7762893871675 1.0
C      1  0.2686071051191  0.4548866527174  0.2237106504919 1.0
C      1  0.2686083887019  0.4548886212233  0.7762905036805 1.0
C      1  0.2686092544479  0.5451153865087  0.2237102791022 1.0
C      1  0.4475895842121  0.4541691625150  0.5817948184866 1.0
C      1  0.4475918129012  0.5458313075982  0.4182040754852 1.0
C      1  0.4475904535490  0.5458293809690  0.5817947473220 1.0
C      1  0.4475901510892  0.4541699366340  0.4182043882675 1.0
C      1  0.5830992599535  0.3324340634278  0.4136582318162 1.0
C      1  0.5831009271582  0.6675651118074  0.5863410189002 1.0
C      1  0.5831013649828  0.6675671382269  0.4136618681747 1.0
C      1  0.5830991021759  0.3324314951962  0.5863368109736 1.0
C      1  0.3887935139682  0.2120195747875  0.4100340553161 1.0
C      1  0.3887949511577  0.7879756463328  0.5899668671013 1.0
C      1  0.3887976864691  0.7879810466985  0.4100409231551 1.0
C      1  0.3887947610981  0.2120200567665  0.5899604164942 1.0
C      1  0.2003286843249  0.6739545953529  0.6794016881585 1.0
C      1  0.2003282026956  0.3260445829319  0.3205975070864 1.0
C      1  0.2003307379697  0.3260479053472  0.6794054957293 1.0
C      1  0.2003362222547  0.6739594892563  0.3205945342845 1.0
C      1  0.6405188194216  0.5902588898647  0.1390668083258 1.0
C      1  0.6405166554170  0.4097376182623  0.8609337332193 1.0
C      1  0.6405178234888  0.4097403174806  0.1390662669968 1.0
C      1  0.6405171697889  0.5902572491229  0.8609346108407 1.0
C      1  0.6709012469391  0.6370467840521  0.5456352051977 1.0
C      1  0.6709000214332  0.3629510487130  0.4543647859466 1.0
C      1  0.6708984988170  0.3629518305855  0.5456301824675 1.0
C      1  0.6708997780824  0.6370469025334  0.4543698053977 1.0
C      1  0.7679736821552  0.2530293921254  0.2498725879377 1.0
C      1  0.7679692940698  0.7469729657248  0.7501309827985 1.0
C      1  0.7679767706153  0.7469710306828  0.2498787419308 1.0
C      1  0.7679725190187  0.2530256730823  0.7501240936514 1.0
C      1  0.3635300573572  0.5948662988110  0.5550436805885 1.0
C      1  0.3635297203309  0.4051327655317  0.4449543876091 1.0
C      1  0.3635302155948  0.4051321768562  0.5550413495753 1.0
C      1  0.3635305520501  0.5948675665641  0.4449537658824 1.0
C      1  0.8410674126768  0.6982047548031  0.7215261517331 1.0
C      1  0.8410725932460  0.3017956452803  0.2784748898409 1.0
C      1  0.8410760194143  0.3017972606111  0.7215168018828 1.0
C      1  0.8410767194522  0.6982016473524  0.2784831353276 1.0
C      1  0.3165526611660  0.8393002892112  0.3794118658631 1.0
C      1  0.3165543437812  0.1607050666795  0.6205890185585 1.0
C      1  0.3165527500018  0.1607031842409  0.3794060603570 1.0
C      1  0.3165448100571  0.8392949818398  0.6205992204128 1.0
C      1  0.8543590890038  0.5913224397941  0.5000034613925 1.0
C      1  0.8543558765682  0.4086774175346  0.4999972986952 1.0
END
