TITL C-13527-1983-25 -5.49 3375.00 -951.13724588 0 0 117 (C1) n - 1
REM
REM Run started: at 2020.12.31 23:24:50 in /gpfs/home/chem/mssmkc/CARBON/AIRSS/Generating-Clusters/Str-Search/Higher-Symm/C100-200
REM VASP from code version vasp.5.4.4.18Apr17-6-g9f103f2a35 (build Oct 11 2019 16:45:47) gamma-only
REM
REM
REM
REM
REM ./C.cell (533062f00bc710175b3da973d35f2034)
REM AIRSS Version 0.9.1 bugfix July 2018 build 013d7b7c2542+ Fri, 06 Jul 2018 19:26:36 +0100
REM compiler GCC version 6.3.0
REM options -cpp -iprefix /gpfs/warwick/csc/orac/software/Core/GCCcore/6.3.0/bin/../lib/gcc/x86_64-pc-linux-gnu/6.3.0/ -mtune=generic -march=x86-64 -g -O0
REM seed -1029514829 -1041856944 687528326 1907779149 -1484887593 -814477767 -100911569 -1038098386 -617278845 -950796066 517848096 -1931546572
REM
REM C.POTCAR (d86ddea03c3ceb6dc662c8ad6801f873)
REM 
CELL 1.54180   15.00000   15.00000   15.00000   90.00000   90.00000   90.00000
LATT -1
SFAC C  
C      1  0.3883999963052  0.7189809139955  0.7347356170431 1.0
C      1  0.3928801534637  0.1872546344083  0.5742247422968 1.0
C      1  0.3818611348500  0.5900084442688  0.1844648922017 1.0
C      1  0.6880748042190  0.3968721304643  0.3785043135882 1.0
C      1  0.6849903557741  0.6586709038366  0.4713870724790 1.0
C      1  0.6943999338240  0.4494477039139  0.6573719157594 1.0
C      1  0.6401086030629  0.2288879547629  0.5748389342080 1.0
C      1  0.6260205098303  0.5700492623743  0.2282403459350 1.0
C      1  0.6360669440037  0.6997197679059  0.7010565716328 1.0
C      1  0.7345702168532  0.4501179937825  0.3160719183412 1.0
C      1  0.7288247447246  0.6841747547456  0.5502257999596 1.0
C      1  0.7345095889420  0.3660236689036  0.6389807641512 1.0
C      1  0.2033454076544  0.6207520372121  0.5112903203430 1.0
C      1  0.2072062957071  0.4274645860663  0.6012147175373 1.0
C      1  0.2086645029515  0.4458644091393  0.3870428224380 1.0
C      1  0.5084128083724  0.5269419946016  0.3475321999437 1.0
C      1  0.5081790254189  0.6104027725318  0.5891515866097 1.0
C      1  0.5134728782357  0.3714467436239  0.5519899868097 1.0
C      1  0.6286247729943  0.3421398366409  0.2700051743431 1.0
C      1  0.6275134543224  0.7807695011266  0.4809334719557 1.0
C      1  0.6314441297035  0.3795899691145  0.7558247542828 1.0
C      1  0.3560220155281  0.7190870474012  0.4299860611730 1.0
C      1  0.3588734491526  0.4488717663572  0.7255583515637 1.0
C      1  0.3618338867943  0.3309033713843  0.3451915523272 1.0
C      1  0.6059033873795  0.4442333886590  0.4191055057090 1.0
C      1  0.6012007238199  0.6004165767629  0.4739474317448 1.0
C      1  0.6124139401095  0.4712218362885  0.6042656409802 1.0
C      1  0.6605827540017  0.2485023625840  0.4219465899962 1.0
C      1  0.6452679445045  0.6932611542317  0.3262244703789 1.0
C      1  0.6594368529146  0.5583131348917  0.7628770482864 1.0
C      1  0.3715279317428  0.3622235392654  0.7702917974654 1.0
C      1  0.3711221967898  0.3337365030825  0.2474526374045 1.0
C      1  0.3686671362417  0.8011907371751  0.4827067575289 1.0
C      1  0.4130780505190  0.8056206861560  0.3991734018204 1.0
C      1  0.4165867156310  0.4314346317204  0.8158230159300 1.0
C      1  0.4198391923542  0.2619203066791  0.2842639243079 1.0
C      1  0.2827013149284  0.2329666637591  0.4503173063375 1.0
C      1  0.2768649700748  0.6712521580611  0.2943092361732 1.0
C      1  0.2785802856827  0.5879139228675  0.7550064045997 1.0
C      1  0.6913130031566  0.3123049055609  0.7042173913126 1.0
C      1  0.6888171590102  0.4211799631756  0.2368079373818 1.0
C      1  0.6879488003740  0.7694372919729  0.5640340938221 1.0
C      1  0.2121748642037  0.3633216332754  0.3736040268752 1.0
C      1  0.2076787222706  0.6721501901146  0.4452091365298 1.0
C      1  0.2096685401155  0.4558224005020  0.6798278924399 1.0
C      1  0.4391372203842  0.7703167307486  0.3241492209939 1.0
C      1  0.4476364156624  0.5121581809065  0.8239799083390 1.0
C      1  0.4510010674848  0.2155654920647  0.3508260983447 1.0
C      1  0.3206369234587  0.6601302127647  0.7512335292272 1.0
C      1  0.3246765529554  0.2012627394841  0.5152917560531 1.0
C      1  0.3145865723088  0.6315863618759  0.2310791519980 1.0
C      1  0.5813623730073  0.6499950104404  0.1865658810466 1.0
C      1  0.5829232989328  0.6954540060669  0.7862584119567 1.0
C      1  0.5872653688688  0.1568731259040  0.5285412515486 1.0
C      1  0.5382933928629  0.4557950995899  0.1984201308790 1.0
C      1  0.5413379476042  0.7749931936266  0.6144847159555 1.0
C      1  0.5451024712251  0.2657811078812  0.6831802696115 1.0
C      1  0.6394070169372  0.7792159319544  0.6419896547505 1.0
C      1  0.6427455047766  0.2401664401435  0.6731015062570 1.0
C      1  0.6373222988433  0.4804112797520  0.1876819105584 1.0
C      1  0.7726182037996  0.5336276881379  0.5475379073766 1.0
C      1  0.7750618221780  0.4449364837276  0.5117276006539 1.0
C      1  0.7699450602468  0.5205849669133  0.4497992631549 1.0
C      1  0.4251690543685  0.3820752257946  0.5053640483063 1.0
C      1  0.4237986446017  0.5572705718638  0.3930661163712 1.0
C      1  0.4205060751222  0.5642100016879  0.6010921002421 1.0
C      1  0.3655228019535  0.5923370405956  0.5345948579724 1.0
C      1  0.3686689431358  0.4231356151032  0.5631412106232 1.0
C      1  0.3693724145806  0.4849262073373  0.4030896164077 1.0
C      1  0.5381187912072  0.2732426503324  0.5768046197986 1.0
C      1  0.5246445844617  0.5467789974111  0.2500720619265 1.0
C      1  0.5337460053460  0.6796582681776  0.6614423015788 1.0
C      1  0.6975656493793  0.2786234719241  0.5088982742749 1.0
C      1  0.6672594706379  0.5919791929559  0.3213963947798 1.0
C      1  0.6952669940321  0.6183588387364  0.6928158438233 1.0
C      1  0.4937044806080  0.5875405506527  0.8034834331819 1.0
C      1  0.4973768023298  0.1951128156729  0.4261231755629 1.0
C      1  0.4846267629935  0.7152074213698  0.2676091353804 1.0
C      1  0.3895239415652  0.2064505327384  0.6676225195497 1.0
C      1  0.3810178250270  0.4980642592067  0.1569275070570 1.0
C      1  0.3844627649278  0.7899136934422  0.6705012859198 1.0
C      1  0.7486574554419  0.5363612080571  0.3574274147258 1.0
C      1  0.7432493152916  0.6077116909732  0.6089357989723 1.0
C      1  0.7468038312309  0.3547383210843  0.5432708957902 1.0
C      1  0.4582576589940  0.8269353487772  0.6295444939405 1.0
C      1  0.4634302338459  0.2240465300909  0.7202005922396 1.0
C      1  0.4551486387849  0.4429362648268  0.1453570911916 1.0
C      1  0.5488939657569  0.3619232463314  0.7155680319930 1.0
C      1  0.5454069717551  0.3855354991652  0.2718945571899 1.0
C      1  0.5453487348532  0.7541903614279  0.5153385143265 1.0
C      1  0.4184449691508  0.3957786656622  0.4024594101212 1.0
C      1  0.4140710836740  0.6381434555875  0.4564508317023 1.0
C      1  0.4159711159957  0.4688938464573  0.6421401459928 1.0
C      1  0.3838491649616  0.8182367899204  0.5730316504576 1.0
C      1  0.3874735038258  0.2753786164031  0.7407441656185 1.0
C      1  0.3806972460435  0.4009116220797  0.1836536081859 1.0
C      1  0.5757722298907  0.5442918920237  0.5541817464712 1.0
C      1  0.5787978175170  0.4387406470764  0.5156336747110 1.0
C      1  0.5989954410955  0.5458444797704  0.3910016229835 1.0
C      1  0.6626950619972  0.7281130084849  0.4075433791756 1.0
C      1  0.6705787193249  0.4679713845623  0.7487406824151 1.0
C      1  0.6656490623936  0.3074263938532  0.3522203004077 1.0
C      1  0.2718393317403  0.4995533514852  0.7337682576908 1.0
C      1  0.2757714104988  0.2964856702005  0.3853328285451 1.0
C      1  0.2695010681204  0.6988278378994  0.3812807789047 1.0
C      1  0.5818651496969  0.7140278134422  0.2552512315359 1.0
C      1  0.5897470830270  0.6054810048405  0.8122475856317 1.0
C      1  0.5934566083195  0.1795963351012  0.4376157904789 1.0
C      1  0.4856793047891  0.1943984883496  0.5287771409900 1.0
C      1  0.4743159592631  0.6297166610643  0.2096492270754 1.0
C      1  0.4816860255815  0.6771781495036  0.7531531786572 1.0
C      1  0.5103825248148  0.6617612951447  0.4969628604941 1.0
C      1  0.5145023212396  0.4232683960065  0.6442645032072 1.0
C      1  0.5131769287191  0.4225522719446  0.3600125737319 1.0
C      1  0.2761039838927  0.5548161699153  0.5168042506961 1.0
C      1  0.2781237052043  0.4554649832498  0.5399211074957 1.0
C      1  0.2785713569411  0.4861568369056  0.4424922708450 1.0
END
