TITL C-13650-7649-71 -3.862 3375.00 -673.39111531 0 0 83 (C1) n - 1
REM
REM Run started: at 2021.01.04 21:51:14 in /gpfs/home/chem/mssmkc/CARBON/AIRSS/Generating-Clusters/Str-Search/Higher-Symm/C4-100
REM VASP from code version vasp.5.4.4.18Apr17-6-g9f103f2a35 (build Oct 11 2019 16:45:47) gamma-only
REM
REM
REM
REM
REM ./C.cell (6bd13a13d554368a30d355f37ece5b26)
REM AIRSS Version 0.9.1 bugfix July 2018 build 013d7b7c2542+ Fri, 06 Jul 2018 19:26:36 +0100
REM compiler GCC version 6.3.0
REM options -cpp -iprefix /gpfs/warwick/csc/orac/software/Core/GCCcore/6.3.0/bin/../lib/gcc/x86_64-pc-linux-gnu/6.3.0/ -mtune=generic -march=x86-64 -g -O0
REM seed -2108546973 618664896 -1989210758 -502466668 -1336918448 -1624181642 -1625355630 -1698004420 229682461 180911048 -595694984 -131672411
REM
REM C.POTCAR (d86ddea03c3ceb6dc662c8ad6801f873)
REM 
CELL 1.54180   15.00000   15.00000   15.00000   90.00000   90.00000   90.00000
LATT -1
SFAC C  
C      1  0.3264583862134  0.5952602633393  0.7193361026500 1.0
C      1  0.4233168501693  0.6869111552283  0.2768813441527 1.0
C      1  0.5487744137757  0.7020453653518  0.7227021716180 1.0
C      1  0.6544952987255  0.6395021614035  0.2716132788695 1.0
C      1  0.7070514419168  0.5214090013808  0.7185524487333 1.0
C      1  0.6680060788451  0.4055055883715  0.2780292106940 1.0
C      1  0.5810891362646  0.3193883783178  0.7132820316862 1.0
C      1  0.4526349197972  0.3012326451636  0.2770687422734 1.0
C      1  0.3501747703005  0.3619533519393  0.7072498324821 1.0
C      1  0.3085939211096  0.4778224531592  0.2830476017613 1.0
C      1  0.4536664077825  0.6500677339933  0.1882262510514 1.0
C      1  0.5607989665997  0.6569511439393  0.8110736850878 1.0
C      1  0.6277471662087  0.5956440098699  0.1850315567636 1.0
C      1  0.6612031209003  0.5034332227344  0.8061493127386 1.0
C      1  0.6236156425777  0.4126524417146  0.1901572803811 1.0
C      1  0.5457349164768  0.3556223936621  0.7996535024881 1.0
C      1  0.4506500733809  0.3490308996740  0.1890951120809 1.0
C      1  0.3654268440570  0.3969822634663  0.7980973653436 1.0
C      1  0.3486540980689  0.4977998186907  0.1952272946926 1.0
C      1  0.3709985714212  0.5767159475191  0.8085817550488 1.0
C      1  0.3292769018201  0.4821419853504  0.8017777651664 1.0
C      1  0.3754240000149  0.5863577061666  0.1923688726759 1.0
C      1  0.4584854420314  0.6394534425848  0.8097940626017 1.0
C      1  0.5455092239119  0.6535295220029  0.1858215467871 1.0
C      1  0.6348193486438  0.6010406337097  0.8080061791380 1.0
C      1  0.6561163706751  0.5081877616941  0.1864412891388 1.0
C      1  0.6270633861006  0.4172806903236  0.8029218757711 1.0
C      1  0.5499644488222  0.3568457687299  0.1932802668656 1.0
C      1  0.4536386220913  0.3475384738471  0.7984154283247 1.0
C      1  0.3757304661275  0.4018414030738  0.1901608631760 1.0
C      1  0.6775117452780  0.5658181135532  0.3381444601546 1.0
C      1  0.6775842886617  0.4501481748358  0.6524727676513 1.0
C      1  0.6056183211564  0.3622454772098  0.3452990048160 1.0
C      1  0.5062833902824  0.3195930654064  0.6443755333851 1.0
C      1  0.3781280908046  0.3226750641927  0.3337692209504 1.0
C      1  0.3304545178473  0.4378481721436  0.6443239597011 1.0
C      1  0.3361123073206  0.5510396735849  0.3473531594237 1.0
C      1  0.3953151594366  0.6413860134876  0.6578938015651 1.0
C      1  0.5021978885884  0.6886130487495  0.3399094854030 1.0
C      1  0.6082734562095  0.6495126492282  0.6563508709497 1.0
C      1  0.7129028240890  0.5749499860082  0.4315762038677 1.0
C      1  0.7024247806109  0.4378010191535  0.5541038369384 1.0
C      1  0.6334254004999  0.3249977282095  0.4320818088241 1.0
C      1  0.5042902759607  0.2791766786511  0.5504409310081 1.0
C      1  0.3718271132589  0.3102748889700  0.4272570799916 1.0
C      1  0.2955445142626  0.4215530278587  0.5503266476370 1.0
C      1  0.2931889686132  0.5618954374090  0.4351889596113 1.0
C      1  0.3792258009112  0.6590221034778  0.5600632221993 1.0
C      1  0.4992393920429  0.7216364551676  0.4348663540112 1.0
C      1  0.6244418707057  0.6726159737400  0.5579375931432 1.0
C      1  0.4346509833078  0.5272758678044  0.3789680080035 1.0
C      1  0.4563011762786  0.5600508435278  0.6656849583677 1.0
C      1  0.5072989358015  0.5904871150947  0.3674277779622 1.0
C      1  0.5529990610822  0.5657271611913  0.6462828408724 1.0
C      1  0.5838717240750  0.5363545894981  0.3671321337343 1.0
C      1  0.5825583454241  0.4817612379514  0.6397644928244 1.0
C      1  0.5485065012849  0.4462763891567  0.3787663220753 1.0
C      1  0.5086906011640  0.4208834231785  0.6160830217419 1.0
C      1  0.4741143711437  0.4629861331785  0.4459363066049 1.0
C      1  0.4254688348345  0.4771833570800  0.6207817743637 1.0
C      1  0.4509423794258  0.7006520190051  0.5131843853043 1.0
C      1  0.5483359620692  0.7074516256193  0.5132042757311 1.0
C      1  0.6830772767023  0.6136580954984  0.5117681492649 1.0
C      1  0.7131840289299  0.5208644258817  0.5085286144916 1.0
C      1  0.6641701815600  0.3609501273234  0.5122140739613 1.0
C      1  0.5871952137087  0.2980557569477  0.5081164560720 1.0
C      1  0.4190293118636  0.2911423854950  0.5065160162836 1.0
C      1  0.3377142314139  0.3464418366500  0.5069617205179 1.0
C      1  0.2843707948509  0.5062926099173  0.5092442312969 1.0
C      1  0.3185448616885  0.5992061798097  0.5164735088972 1.0
C      1  0.7022567837363  0.4916295366979  0.2743355888905 1.0
C      1  0.6547339763697  0.3757330348743  0.7165769974822 1.0
C      1  0.5462831739716  0.3113339819339  0.2807720262728 1.0
C      1  0.4290710146329  0.3130704180013  0.7081854833212 1.0
C      1  0.3315644761190  0.3864070794840  0.2787837403873 1.0
C      1  0.2937684320682  0.5072770138931  0.7122344361941 1.0
C      1  0.3542132285669  0.6250587350161  0.2806136828849 1.0
C      1  0.4551444512701  0.6934939082446  0.7238254990831 1.0
C      1  0.5786415562827  0.6927502142772  0.2724512759511 1.0
C      1  0.6778338714363  0.6106115931376  0.7194158432131 1.0
C      1  0.4570528486674  0.5510068873390  0.7665883197090 1.0
C      1  0.5001265295810  0.4989216634684  0.3019898333985 1.0
C      1  0.4684217393185  0.4571924763848  0.5344555733671 1.0
END
