TITL C-13527-1983-43 -8.345 3375.00 -1411.43422178 0 0 172 (C1) n - 1
REM
REM Run started: at 2021.01.01 17:15:34 in /gpfs/home/chem/mssmkc/CARBON/AIRSS/Generating-Clusters/Str-Search/Higher-Symm/C100-200
REM VASP from code version vasp.5.4.4.18Apr17-6-g9f103f2a35 (build Oct 11 2019 16:45:47) gamma-only
REM
REM
REM
REM
REM ./C.cell (533062f00bc710175b3da973d35f2034)
REM AIRSS Version 0.9.1 bugfix July 2018 build 013d7b7c2542+ Fri, 06 Jul 2018 19:26:36 +0100
REM compiler GCC version 6.3.0
REM options -cpp -iprefix /gpfs/warwick/csc/orac/software/Core/GCCcore/6.3.0/bin/../lib/gcc/x86_64-pc-linux-gnu/6.3.0/ -mtune=generic -march=x86-64 -g -O0
REM seed 923006432 1115984492 -512592109 -1662614373 -2115475331 2013393209 2036664246 -202172602 -1397506513 1122660770 242308894 -969227415
REM
REM C.POTCAR (d86ddea03c3ceb6dc662c8ad6801f873)
REM 
CELL 1.54180   15.00000   15.00000   15.00000   90.00000   90.00000   90.00000
LATT -1
SFAC C  
C      1  0.2148464324119  0.4795974007887  0.2973770863642 1.0
C      1  0.4699428834294  0.3237587909734  0.3916563548215 1.0
C      1  0.3444022545465  0.8241302665199  0.5943724059744 1.0
C      1  0.1609945668604  0.3951090924485  0.4686603884979 1.0
C      1  0.3160120798705  0.4988897515193  0.5258155157867 1.0
C      1  0.6237892568755  0.4710964805268  0.5335097443686 1.0
C      1  0.6953192941406  0.2069208878042  0.6167682029218 1.0
C      1  0.5739700121003  0.5035568901259  0.2127542506406 1.0
C      1  0.3858019294830  0.2963769827257  0.4229430464717 1.0
C      1  0.2162506631138  0.3114946461226  0.6285305271922 1.0
C      1  0.3947842777082  0.5952830594005  0.6106875732507 1.0
C      1  0.5333166011906  0.3996184818937  0.4084536087285 1.0
C      1  0.1967511178431  0.3933165283580  0.5668053808019 1.0
C      1  0.2286598118643  0.3854323509896  0.3161445790187 1.0
C      1  0.5703678442176  0.5865464497473  0.7611176997707 1.0
C      1  0.4448667961800  0.6382015393845  0.6831942242265 1.0
C      1  0.5915066318320  0.6198334211046  0.8566554380881 1.0
C      1  0.6194655587927  0.7091220645272  0.1607819621129 1.0
C      1  0.3807801293404  0.7967233686110  0.6844050477595 1.0
C      1  0.4517506307585  0.5306354617079  0.3090074218953 1.0
C      1  0.5244487493208  0.6829001038847  0.3232895841939 1.0
C      1  0.2666270389124  0.5302691649420  0.2278372326091 1.0
C      1  0.5266136511775  0.7825911922973  0.2869826145727 1.0
C      1  0.1695367290053  0.4895696888694  0.5949210549599 1.0
C      1  0.7553366203087  0.7230337472859  0.2941110888229 1.0
C      1  0.8235548373802  0.5984534056083  0.4341731640368 1.0
C      1  0.6842184920624  0.5224891169475  0.8971016412066 1.0
C      1  0.5934818129408  0.1497570668745  0.7412748621284 1.0
C      1  0.2261128577092  0.7126879760315  0.7197621320200 1.0
C      1  0.4514617663291  0.1345389196124  0.3220618114345 1.0
C      1  0.4568220869165  0.7402163953840  0.6721510399377 1.0
C      1  0.7801751514868  0.2580661253657  0.6101158482237 1.0
C      1  0.1361846498540  0.4835064418452  0.4464654361741 1.0
C      1  0.7474762368828  0.4160631513877  0.7858538483595 1.0
C      1  0.7556145814376  0.2486620455308  0.4440142473220 1.0
C      1  0.5324726998375  0.4947060733614  0.7447212924322 1.0
C      1  0.4545391721027  0.7556423085079  0.8257830807875 1.0
C      1  0.3355376642859  0.3634110994101  0.7544882571205 1.0
C      1  0.7922299597694  0.4819160517015  0.3190967025114 1.0
C      1  0.5440597136332  0.6570734463314  0.4188665972110 1.0
C      1  0.8091924930692  0.5720165022225  0.3429558766651 1.0
C      1  0.8542841114304  0.6786495859740  0.4627686282984 1.0
C      1  0.5967940536481  0.3370151180772  0.1092831964919 1.0
C      1  0.4138925606430  0.8746003986289  0.5585015513764 1.0
C      1  0.3447077667572  0.7614045170782  0.2724357989066 1.0
C      1  0.7525833962797  0.3399352685566  0.2756948776717 1.0
C      1  0.2991473532940  0.2277367290800  0.7337898309037 1.0
C      1  0.5751713993410  0.7662586117904  0.2012294917960 1.0
C      1  0.3587632056984  0.4531765612374  0.7961304113455 1.0
C      1  0.4159266247261  0.8296659790387  0.3873549228507 1.0
C      1  0.6393875098446  0.1278700928484  0.6603911661513 1.0
C      1  0.6382094714085  0.4792103748868  0.2725686846756 1.0
C      1  0.3678264219228  0.7662882776338  0.7771875808138 1.0
C      1  0.4700181694203  0.6607573580669  0.4726419659007 1.0
C      1  0.1686321457442  0.5269245534248  0.3689381890328 1.0
C      1  0.7716774247682  0.6330487106359  0.2747976448243 1.0
C      1  0.4499892601497  0.4366532833305  0.5270669345750 1.0
C      1  0.4980627372970  0.8633740966345  0.4239892164594 1.0
C      1  0.5405145505461  0.1685160199829  0.3479816667831 1.0
C      1  0.2891311424860  0.2364174849883  0.5001743252912 1.0
C      1  0.7641930468891  0.4395836391858  0.6328556204042 1.0
C      1  0.4618394928335  0.2489868877781  0.7739706754358 1.0
C      1  0.2188698510933  0.7107281507295  0.5457066625524 1.0
C      1  0.2187181806619  0.3570707347706  0.4069888757480 1.0
C      1  0.2561206292116  0.6580392248304  0.3405643421865 1.0
C      1  0.2852261730152  0.7538234115413  0.3448071131988 1.0
C      1  0.4396247998638  0.5000093668597  0.7752124564737 1.0
C      1  0.6251005943460  0.1500120113365  0.3773719100184 1.0
C      1  0.4063864534982  0.5596320701631  0.1416884632366 1.0
C      1  0.5613697600198  0.3841975798815  0.9044705796160 1.0
C      1  0.6618721318757  0.8446423203377  0.3729576313482 1.0
C      1  0.6741559380311  0.3525764191439  0.7652636033629 1.0
C      1  0.6510896756872  0.6194315191082  0.1510361195868 1.0
C      1  0.7648833629938  0.6350787842418  0.7929840013768 1.0
C      1  0.5986789681803  0.3118161601259  0.3034746945208 1.0
C      1  0.3857305890180  0.3968052615432  0.5842985241763 1.0
C      1  0.4061241581808  0.1534019238275  0.6278698990773 1.0
C      1  0.3682462566112  0.2660288038815  0.7878060693893 1.0
C      1  0.5480596570658  0.6427835414581  0.6912902471591 1.0
C      1  0.4140710403161  0.5949991849602  0.7716907704860 1.0
C      1  0.1885250433167  0.6175697938227  0.3983179528096 1.0
C      1  0.6852403204222  0.2772540477579  0.3037038763810 1.0
C      1  0.4262989425410  0.8032542085750  0.2989003766825 1.0
C      1  0.4766382677533  0.6235769852541  0.2722476025441 1.0
C      1  0.7954810088336  0.5657865658013  0.7404889338199 1.0
C      1  0.3342473545111  0.4994090130215  0.1630991669692 1.0
C      1  0.3300917017069  0.6139758520656  0.8083633808220 1.0
C      1  0.5406562270834  0.4628612123716  0.9517517541144 1.0
C      1  0.4816614335973  0.4734649809358  0.0247322255275 1.0
C      1  0.7944719886987  0.3888813066633  0.3481796882044 1.0
C      1  0.6916139232402  0.7750234012940  0.7509128114459 1.0
C      1  0.3220791904108  0.3273308529204  0.1819633396657 1.0
C      1  0.3538435161293  0.2056443991031  0.4373887550929 1.0
C      1  0.2516351755049  0.3130596158464  0.7153752726420 1.0
C      1  0.7846072425094  0.4770196608152  0.7238461064327 1.0
C      1  0.2586284602545  0.2287369359667  0.5880217848060 1.0
C      1  0.4400722263514  0.5875627696777  0.5295653733781 1.0
C      1  0.3356490849837  0.7790261622186  0.4302117950355 1.0
C      1  0.3689482988430  0.4068187435681  0.1460207219159 1.0
C      1  0.7544113860800  0.2143611545596  0.5322107063292 1.0
C      1  0.6950118357718  0.2130024325969  0.3754835251419 1.0
C      1  0.8208357513865  0.3834210525846  0.5155115157069 1.0
C      1  0.7113114681731  0.4354852270334  0.8715489370673 1.0
C      1  0.3723201141477  0.1402551044956  0.3693577064772 1.0
C      1  0.7182762950378  0.7922921008719  0.3191889304809 1.0
C      1  0.3747995155903  0.1766506841961  0.2767182443970 1.0
C      1  0.4003594658589  0.5097841649792  0.4770061641101 1.0
C      1  0.7998311284098  0.3389982190580  0.4325189874438 1.0
C      1  0.6032207079061  0.7962848548134  0.7379673170834 1.0
C      1  0.5795399926971  0.4098106923524  0.3173317460582 1.0
C      1  0.3376020402763  0.6850774848548  0.2153730511034 1.0
C      1  0.4602756080345  0.3916103694129  0.1940957461953 1.0
C      1  0.1440363631661  0.5434995884135  0.5237657071033 1.0
C      1  0.4855770409416  0.5449151869874  0.0885160348465 1.0
C      1  0.5291491621677  0.1850831911669  0.7830995009910 1.0
C      1  0.5004601558181  0.4548166895933  0.2599136546871 1.0
C      1  0.7340770100690  0.3925052459635  0.1992959728558 1.0
C      1  0.2900941441749  0.7779288794878  0.5252280689409 1.0
C      1  0.3935325668552  0.5373451029083  0.3805757189075 1.0
C      1  0.3347523857471  0.2507178085447  0.2403461231292 1.0
C      1  0.2921356779788  0.5239520659436  0.8072202434582 1.0
C      1  0.5056249589724  0.3486066995321  0.1230943615580 1.0
C      1  0.4593302824404  0.3010094875558  0.6884346420919 1.0
C      1  0.5323560670644  0.7075670161791  0.8628231273269 1.0
C      1  0.4639400642647  0.2333628931550  0.6201853903059 1.0
C      1  0.5429785704004  0.4330292764593  0.4941268935286 1.0
C      1  0.6609329872441  0.6997384702904  0.5127981944160 1.0
C      1  0.6381968197414  0.3703784399827  0.8583839849433 1.0
C      1  0.2730013812537  0.3251943048125  0.2578098150958 1.0
C      1  0.7820026452319  0.8139818104878  0.4970329062156 1.0
C      1  0.6585237777561  0.4390247134963  0.6231951724646 1.0
C      1  0.5742872600073  0.5595264153903  0.1381102767226 1.0
C      1  0.2993821564032  0.3314016994521  0.4615192914485 1.0
C      1  0.6246653060720  0.3481387614912  0.6764027969146 1.0
C      1  0.4812719601490  0.8924297087563  0.5115296337807 1.0
C      1  0.7027969015355  0.8561076591082  0.4615559009822 1.0
C      1  0.2242597874144  0.5139584737950  0.7486103910749 1.0
C      1  0.7571580196280  0.7261718493479  0.7657152157474 1.0
C      1  0.7999901846350  0.3476383317544  0.6024531404372 1.0
C      1  0.6275754288060  0.6298462886860  0.4683675906001 1.0
C      1  0.7256348791784  0.5851770137487  0.2048077600497 1.0
C      1  0.5688011063291  0.8423000636492  0.3616297390664 1.0
C      1  0.3955134367703  0.3637906802030  0.6729724039318 1.0
C      1  0.5471453921694  0.2187242785041  0.5833843857240 1.0
C      1  0.5279983264960  0.2647178162366  0.3425945107829 1.0
C      1  0.8035211200911  0.4729676744291  0.5456838773808 1.0
C      1  0.1775388881602  0.6348492693348  0.4912554013534 1.0
C      1  0.2695434610901  0.6237424420884  0.2459088453003 1.0
C      1  0.2965129305591  0.7005052900978  0.7814003106839 1.0
C      1  0.2310954978049  0.5243505469369  0.6608920854540 1.0
C      1  0.7681579363132  0.5450774271253  0.4982814376216 1.0
C      1  0.4159430908415  0.6379479160877  0.1962681472903 1.0
C      1  0.3437863260560  0.6230994798334  0.3868180556519 1.0
C      1  0.6694496343327  0.3608536679341  0.1405564128204 1.0
C      1  0.5501232737101  0.7392738053252  0.6782116555138 1.0
C      1  0.6979348658030  0.6079292910607  0.8570353387485 1.0
C      1  0.5882060126046  0.4387070636955  0.6937032549353 1.0
C      1  0.4399340143382  0.3987975081727  0.0726034710954 1.0
C      1  0.7331117787715  0.4875298372590  0.2376674319286 1.0
C      1  0.5442674163729  0.7860085985486  0.8147210633100 1.0
C      1  0.8544371378394  0.7617037878594  0.4811730629410 1.0
C      1  0.6934427419692  0.7824500577682  0.5209886538247 1.0
C      1  0.6717275481032  0.5439102247801  0.4947504306629 1.0
C      1  0.2964640445975  0.4028576366609  0.5345319102066 1.0
C      1  0.3126950680709  0.5481321226215  0.6073771022686 1.0
C      1  0.2058974667098  0.7119410132949  0.6393307716331 1.0
C      1  0.5580607450928  0.1197760533181  0.6045621746651 1.0
C      1  0.3834790735450  0.6883963968820  0.4354776937090 1.0
C      1  0.5937300394733  0.5391451585663  0.9213625344305 1.0
C      1  0.3119876281655  0.1778654780101  0.6530054518720 1.0
C      1  0.4714848871429  0.0871218330819  0.6241311607072 1.0
C      1  0.6177447477198  0.2688200023773  0.6184979030539 1.0
END
