TITL C-13179-9057-8 -3.596 3375.00 -631.39487418 0 0 78 (D3h) n - 1
REM
REM Run started: at 2020.12.29 05:20:30 in /gpfs/home/chem/mssmkc/CARBON/AIRSS/Generating-Clusters/Str-Search/Higher-Symm/C4-100
REM VASP from code version vasp.5.4.4.18Apr17-6-g9f103f2a35 (build Oct 11 2019 16:45:47) gamma-only
REM
REM
REM
REM
REM ./C.cell (6bd13a13d554368a30d355f37ece5b26)
REM AIRSS Version 0.9.1 bugfix July 2018 build 013d7b7c2542+ Fri, 06 Jul 2018 19:26:36 +0100
REM compiler GCC version 6.3.0
REM options -cpp -iprefix /gpfs/warwick/csc/orac/software/Core/GCCcore/6.3.0/bin/../lib/gcc/x86_64-pc-linux-gnu/6.3.0/ -mtune=generic -march=x86-64 -g -O0
REM seed -981372206 1361755666 157184930 -1074434759 364761625 -1062510513 473166651 -294093448 -1346076831 -609555138 401893667 -1571126075
REM
REM C.POTCAR (d86ddea03c3ceb6dc662c8ad6801f873)
REM 
CELL 1.54180   15.00000   15.00000   15.00000   90.00000   90.00000   90.00000
LATT -1
SFAC C  
C      1  0.6233677252715  0.3940792142384  0.3647373471139 1.0
C      1  0.5303118058991  0.6595098173414  0.3647422428378 1.0
C      1  0.3462788002843  0.4463564674868  0.3648998083670 1.0
C      1  0.6233680298148  0.3940794135791  0.6352625386038 1.0
C      1  0.5303120754884  0.6595102138092  0.6352574918734 1.0
C      1  0.3462791665769  0.4463564828236  0.6351006480119 1.0
C      1  0.6233677216078  0.6059205179510  0.3647371801425 1.0
C      1  0.5303117417476  0.3404898442516  0.3647423325152 1.0
C      1  0.3462787968851  0.5536432425751  0.3648997374346 1.0
C      1  0.6233680176578  0.6059208199828  0.6352623387911 1.0
C      1  0.5303121374686  0.3404901004098  0.6352578875500 1.0
C      1  0.3462791462908  0.5536434675126  0.6351004688301 1.0
C      1  0.6360546249831  0.5473808418439  0.2858998763802 1.0
C      1  0.3907941851443  0.5940230755081  0.2862467293090 1.0
C      1  0.4729074807837  0.3586173400880  0.2861792372304 1.0
C      1  0.6360553630164  0.5473815318654  0.7140995393723 1.0
C      1  0.3907946272596  0.5940234460511  0.7137532847604 1.0
C      1  0.4729086011222  0.3586179691107  0.7138211195832 1.0
C      1  0.6360546921210  0.4526187287893  0.2858999348786 1.0
C      1  0.3907941201517  0.4059765473969  0.2862467879931 1.0
C      1  0.4729075282812  0.6413822130360  0.2861792229206 1.0
C      1  0.6360554478329  0.4526192758680  0.7140996376095 1.0
C      1  0.3907946752532  0.4059769344522  0.7137535090817 1.0
C      1  0.4729079015213  0.6413826110838  0.7138207149147 1.0
C      1  0.5856822908668  0.4517637555544  0.4462381988103 1.0
C      1  0.4988753236649  0.5982303870500  0.4462272357222 1.0
C      1  0.4152021737535  0.4499116154692  0.4463012220949 1.0
C      1  0.5856824120042  0.4517638678613  0.5537617739477 1.0
C      1  0.4988753977031  0.5982305561619  0.5537725815472 1.0
C      1  0.4152023406031  0.4499117004009  0.5536990450117 1.0
C      1  0.5856823132557  0.5482360726869  0.4462381899928 1.0
C      1  0.4988752866129  0.4017694291367  0.4462273454122 1.0
C      1  0.4152021912644  0.5500881994886  0.4463011048895 1.0
C      1  0.5856823867122  0.5482362265232  0.5537616970640 1.0
C      1  0.4988754588142  0.4017694894923  0.5537727144471 1.0
C      1  0.4152023335698  0.5500883026553  0.5536989556737 1.0
C      1  0.5025937144114  0.5962180306382  0.7952576238298 1.0
C      1  0.4150487977087  0.4542813328265  0.7952096702366 1.0
C      1  0.5817509155984  0.4494411951474  0.7954022898636 1.0
C      1  0.5025930701827  0.5962175186960  0.2047422219794 1.0
C      1  0.4150481227750  0.4542805877839  0.2047906500076 1.0
C      1  0.5817499288189  0.4494404271408  0.2045980664890 1.0
C      1  0.5025945101249  0.4037836438791  0.7952575792560 1.0
C      1  0.4150487981629  0.5457196591867  0.7952094329717 1.0
C      1  0.5817509752347  0.5505599937813  0.7954016349349 1.0
C      1  0.5025930902711  0.4037820022005  0.2047422653653 1.0
C      1  0.4150481378347  0.5457190633944  0.2047904859420 1.0
C      1  0.5817500088117  0.5505589862911  0.2045979847972 1.0
C      1  0.2867657302720  0.3928686503415  0.4239076659232 1.0
C      1  0.6995203831657  0.3693476182824  0.4237505842806 1.0
C      1  0.5140320557624  0.7377026548921  0.4238424838482 1.0
C      1  0.2867658276569  0.3928686417548  0.5760930380976 1.0
C      1  0.6995207228442  0.3693476624192  0.5762493910449 1.0
C      1  0.5140322155119  0.7377027806774  0.5761569815071 1.0
C      1  0.2867656324874  0.6071311646032  0.4239073420142 1.0
C      1  0.6995203814909  0.6306522618560  0.4237502887146 1.0
C      1  0.5140321281755  0.2622972099791  0.4238428622714 1.0
C      1  0.2867658520282  0.6071312451402  0.5760927741475 1.0
C      1  0.6995205959466  0.6306524529544  0.5762490860459 1.0
C      1  0.5140322991280  0.2622972279014  0.5761574128989 1.0
C      1  0.7522371813808  0.5517822174731  0.4518141737973 1.0
C      1  0.3291759801415  0.6923243157799  0.4519124588651 1.0
C      1  0.4192828923883  0.2557898539359  0.4518489351810 1.0
C      1  0.7522372862123  0.5517823097773  0.5481853525232 1.0
C      1  0.3291761192986  0.6923244038912  0.5480874593910 1.0
C      1  0.4192832529968  0.2557889619057  0.5481522988988 1.0
C      1  0.7522371922344  0.4482176533185  0.4518142537311 1.0
C      1  0.3291761248561  0.3076754767443  0.4519128502997 1.0
C      1  0.4192828146342  0.7442099942108  0.4518484907111 1.0
C      1  0.7522373219862  0.4482177220214  0.5481854476993 1.0
C      1  0.3291761731155  0.3076754809979  0.5480878286771 1.0
C      1  0.4192828974323  0.7442101087941  0.5481510937606 1.0
C      1  0.2549919471126  0.5521386415701  0.5000001765909 1.0
C      1  0.6676768098549  0.3144803635344  0.4999999829550 1.0
C      1  0.2549919660786  0.4478612045473  0.5000003465518 1.0
C      1  0.5775649642790  0.2625430325661  0.5000000407518 1.0
C      1  0.6676767619288  0.6855195926111  0.4999996291898 1.0
C      1  0.5775648983765  0.7374569350178  0.4999996832400 1.0
END
