TITL C-14788-7911-98 -0.536 3375.00 -85.39109572 0 0 12 (C2) n - 1
REM
REM Run started: at 2021.01.04 22:11:05 in /gpfs/home/chem/mssmkc/CARBON/AIRSS/Generating-Clusters/Str-Search/Higher-Symm/C4-100
REM VASP from code version vasp.5.4.4.18Apr17-6-g9f103f2a35 (build Oct 11 2019 16:45:47) gamma-only
REM
REM
REM
REM
REM ./C.cell (6bd13a13d554368a30d355f37ece5b26)
REM AIRSS Version 0.9.1 bugfix July 2018 build 013d7b7c2542+ Fri, 06 Jul 2018 19:26:36 +0100
REM compiler GCC version 6.3.0
REM options -cpp -iprefix /gpfs/warwick/csc/orac/software/Core/GCCcore/6.3.0/bin/../lib/gcc/x86_64-pc-linux-gnu/6.3.0/ -mtune=generic -march=x86-64 -g -O0
REM seed -1452053968 1250572132 -1084395609 -413810645 695935889 1122451277 2140204669 1581346297 1175337210 -631391045 -884068017 1433103135
REM
REM C.POTCAR (d86ddea03c3ceb6dc662c8ad6801f873)
REM 
CELL 1.54180   15.00000   15.00000   15.00000   90.00000   90.00000   90.00000
LATT -1
SFAC C  
C      1  0.4526298248229  0.4773733187118  0.4226719190700 1.0
C      1  0.5473701799146  0.4773732975717  0.5773280758718 1.0
C      1  0.4714453545582  0.4146039473887  0.5400974711377 1.0
C      1  0.5285546597555  0.4146039679114  0.4599025025866 1.0
C      1  0.6115362648805  0.4402677278067  0.4965485740089 1.0
C      1  0.3884637436709  0.4402677134467  0.5034514064183 1.0
C      1  0.4753064466428  0.6527316954228  0.5461110678038 1.0
C      1  0.5246935231059  0.6527317102457  0.4538889648756 1.0
C      1  0.5109744632132  0.5647455793586  0.5463744591080 1.0
C      1  0.4890255284464  0.5647455910677  0.4536255752994 1.0
C      1  0.3548672208276  0.4502777268017  0.4207610577076 1.0
C      1  0.6451327901614  0.4502777242664  0.5792389261122 1.0
END
