TITL C-140850-2242-1 -4.014 3375.00 -657.72481868 0 0 82 (C1) n - 1
REM
REM Run started: at 2020.11.26 03:05:30 in /rds/project/t2_vol4/rds-t2-cs072/BORA/CARBON/AIRSS/Generating-Clusters/Str-Search/Higher-Symm
REM VASP from code version vasp.5.4.4.18Apr17-6-g9f103f2a35 (build Oct 11 2019 16:45:47) gamma-only
REM
REM
REM
REM
REM ./C.cell (e5ae0387ce4d49c7c0135a1433873289)
REM AIRSS Version 0.9.1 bugfix July 2018 build 013d7b7c2542+ Fri, 06 Jul 2018 19:26:36 +0100
REM compiler GCC version 4.8.5 20150623 (Red Hat 4.8.5-39)
REM options -cpp -mtune=generic -march=x86-64 -g -O0
REM seed -1796529668 -7733561 -1167118519 -387482308 1318800394 -104566129 1824447268 -758914172 -469079163 1133505669 1037142126 -1351145921
REM
REM C.POTCAR (d86ddea03c3ceb6dc662c8ad6801f873)
REM 
CELL 1.54180   15.00000   15.00000   15.00000   90.00000   90.00000   90.00000
LATT -1
SFAC C  
C      1  0.7091155189262  0.5819490749465  0.6863791864549 1.0
C      1  0.6893043131063  0.7077579140677  0.5815522942686 1.0
C      1  0.5828752347726  0.6875723646517  0.7045693113173 1.0
C      1  0.2746239647161  0.5838939116919  0.3101562963278 1.0
C      1  0.7127469983150  0.4101849415655  0.3116363586407 1.0
C      1  0.3118185595759  0.4126382660303  0.6295966464697 1.0
C      1  0.3094921945218  0.7044784807136  0.4129201989028 1.0
C      1  0.6870028095592  0.2849726417028  0.4124355676851 1.0
C      1  0.3128735735680  0.2676291008479  0.5812548635763 1.0
C      1  0.4202995917001  0.6481404406793  0.3074546338887 1.0
C      1  0.5849905961611  0.3126018305977  0.2857282326340 1.0
C      1  0.4164150785711  0.3065130602954  0.7047816011424 1.0
C      1  0.5323522649281  0.5306793985993  0.6033705003551 1.0
C      1  0.6019363880356  0.5369126116093  0.5339637617375 1.0
C      1  0.5316358883558  0.6048558957824  0.5378765412595 1.0
C      1  0.4436776674592  0.5709950310072  0.3715082971450 1.0
C      1  0.5449776087999  0.4563436884440  0.3918297292202 1.0
C      1  0.4608161813049  0.4630608164898  0.6053051942658 1.0
C      1  0.3878450788855  0.5584752286843  0.4510660897358 1.0
C      1  0.6009935562777  0.4594398137139  0.4669695887221 1.0
C      1  0.3741215433021  0.4412478175585  0.5572025319284 1.0
C      1  0.4652122734311  0.6074513020315  0.4628642954128 1.0
C      1  0.5237137661434  0.3959104654382  0.4632079405411 1.0
C      1  0.4582493461856  0.3900791025544  0.5398389618638 1.0
C      1  0.5057655601518  0.3512707138317  0.2541754103773 1.0
C      1  0.2466387862927  0.5037257919450  0.3494896566668 1.0
C      1  0.3480659540498  0.2380908939628  0.5004052917852 1.0
C      1  0.4951012749855  0.3418797428360  0.7450421413253 1.0
C      1  0.5022078619032  0.6521753111407  0.7378763862458 1.0
C      1  0.4942892858317  0.6459977816824  0.2426281031806 1.0
C      1  0.7460072607104  0.5032638589903  0.6527075691725 1.0
C      1  0.2664941575579  0.4929784909843  0.6506500237314 1.0
C      1  0.7483379608859  0.4883597687529  0.3480843531354 1.0
C      1  0.6518384671651  0.2507050954860  0.4913779095731 1.0
C      1  0.3450494835889  0.7468502074608  0.4908887624420 1.0
C      1  0.6546458753615  0.7420474393316  0.5011018769307 1.0
C      1  0.2630718164139  0.5540822629947  0.5723807144325 1.0
C      1  0.5714850066893  0.2518750151095  0.5466187054641 1.0
C      1  0.5536973832976  0.5665555911677  0.2519204515488 1.0
C      1  0.7441626635388  0.5427057243214  0.4289917281452 1.0
C      1  0.2597807545192  0.4529205187114  0.4318027203285 1.0
C      1  0.7432636760228  0.4481414148777  0.5719459718312 1.0
C      1  0.4306387876962  0.2476094486987  0.4495227878142 1.0
C      1  0.5734711969079  0.7410712975537  0.4501300953011 1.0
C      1  0.4252398024105  0.7474907772414  0.5461000312446 1.0
C      1  0.4526375690869  0.5718366628873  0.7426034584616 1.0
C      1  0.5486075897817  0.4230656303499  0.7450013310448 1.0
C      1  0.4513095104249  0.4325919616790  0.2610057775555 1.0
C      1  0.3013130463242  0.5003093067640  0.2707648145526 1.0
C      1  0.2727302381111  0.2982971239064  0.4984798184583 1.0
C      1  0.5015040188202  0.2708788573572  0.3055595104754 1.0
C      1  0.6900157575808  0.4985735023264  0.7299920494915 1.0
C      1  0.2899994691885  0.5246813807624  0.7362063147064 1.0
C      1  0.6962868554884  0.4939364457344  0.2688761380432 1.0
C      1  0.7289603707223  0.3064939255649  0.4963211138010 1.0
C      1  0.2668313866039  0.6948806752682  0.4986487790801 1.0
C      1  0.7330700225930  0.6879771297870  0.4990544353525 1.0
C      1  0.5015309475439  0.2635429069764  0.6923707645367 1.0
C      1  0.5000268830529  0.7330867108146  0.6885071473935 1.0
C      1  0.5020484146845  0.7169017393998  0.3015364515437 1.0
C      1  0.6376186893118  0.5494967049082  0.2288502139267 1.0
C      1  0.2329298848382  0.6370891630930  0.5605567593571 1.0
C      1  0.5601298262657  0.2290563512602  0.6326747664675 1.0
C      1  0.3619091939970  0.5636825930845  0.7561168660997 1.0
C      1  0.6346262220615  0.4384771019619  0.7676399292391 1.0
C      1  0.3657340602968  0.4467917278475  0.2391524632281 1.0
C      1  0.7684757339409  0.6282144599292  0.4416249145964 1.0
C      1  0.2430934481084  0.3665881204940  0.4496635929730 1.0
C      1  0.7668548724160  0.3627703622069  0.5558046571270 1.0
C      1  0.4455193350631  0.2302301567792  0.3626235636655 1.0
C      1  0.5589935989647  0.7510641271784  0.3612487276203 1.0
C      1  0.4398084448819  0.7707956386347  0.6320369559995 1.0
C      1  0.3228431424687  0.5046181436071  0.4966942819438 1.0
C      1  0.4974067729403  0.3057720987385  0.5014232241029 1.0
C      1  0.5013094536071  0.5029736308966  0.3193635437425 1.0
C      1  0.6874225533232  0.4966466884798  0.5015515815704 1.0
C      1  0.4995471681747  0.6931771527977  0.5027330633375 1.0
C      1  0.4991369693577  0.4951679741322  0.6935761064030 1.0
C      1  0.3227281039929  0.6656887419677  0.3272886015892 1.0
C      1  0.3358249470271  0.3212759567589  0.6586787212129 1.0
C      1  0.6699443900177  0.3263996545573  0.3279599625231 1.0
C      1  0.6667070963542  0.6658694443248  0.6643625846066 1.0
END
