TITL C-14475-1070-1 -5.352 3375.00 -902.00964673 0 0 111 (C1) n - 1
REM
REM Run started: at 2020.12.24 10:02:48 in /rds/project/t2_vol4/rds-t2-cs072/BORA/CARBON/AIRSS/Generating-Clusters/Str-Search/Higher-Symm/C100-200
REM VASP from code version vasp.5.4.4.18Apr17-6-g9f103f2a35 (build Oct 11 2019 16:45:47) gamma-only
REM
REM
REM
REM
REM ./C.cell (533062f00bc710175b3da973d35f2034)
REM AIRSS Version 0.9.1 bugfix July 2018 build 013d7b7c2542+ Fri, 06 Jul 2018 19:26:36 +0100
REM compiler GCC version 4.8.5 20150623 (Red Hat 4.8.5-39)
REM options -cpp -mtune=generic -march=x86-64 -g -O0
REM seed -660732995 749496141 2006410026 -1942232180 -1418023803 489051841 2139539378 -1741060669 -1808446035 -586170065 -800694764 -1718644553
REM
REM C.POTCAR (d86ddea03c3ceb6dc662c8ad6801f873)
REM 
CELL 1.54180   15.00000   15.00000   15.00000   90.00000   90.00000   90.00000
LATT -1
SFAC C  
C      1  0.4939017594813  0.2950294311703  0.6463666212149 1.0
C      1  0.3702719961508  0.3139964266087  0.5356779443902 1.0
C      1  0.4382666439246  0.3227636179056  0.3815216639950 1.0
C      1  0.6039152505304  0.3033964232449  0.3957715909491 1.0
C      1  0.6395909861262  0.2885869699689  0.5592282152852 1.0
C      1  0.5070658212453  0.7036127295443  0.6441631284953 1.0
C      1  0.6310396929821  0.6892768637799  0.5335504793746 1.0
C      1  0.5653552799154  0.6823490113998  0.3790067793093 1.0
C      1  0.3999392742176  0.6901924472805  0.3968420698223 1.0
C      1  0.3616236037395  0.7042422709394  0.5603461022176 1.0
C      1  0.4553742844337  0.4761722823894  0.7813109553467 1.0
C      1  0.2174838566998  0.4861165409554  0.5439616741699 1.0
C      1  0.3706098196145  0.4821485071182  0.2419411213794 1.0
C      1  0.7024766924988  0.4684481500808  0.2934762065260 1.0
C      1  0.7558634040657  0.4665144013085  0.6287881503092 1.0
C      1  0.5454532198153  0.5218678463638  0.7812562574940 1.0
C      1  0.7819230744826  0.5138355124960  0.5432574326994 1.0
C      1  0.6306219744071  0.5178215130507  0.2417565186954 1.0
C      1  0.2975477380314  0.5297032788600  0.2937226362957 1.0
C      1  0.2427265421792  0.5342195122287  0.6291590750616 1.0
C      1  0.5204166510155  0.2580920601872  0.3581844431448 1.0
C      1  0.6485794300530  0.2380173014836  0.4688228859549 1.0
C      1  0.5781959903652  0.2347284228759  0.6277455316970 1.0
C      1  0.4068890835758  0.2480863608130  0.6097698272772 1.0
C      1  0.3765974857161  0.2647340243079  0.4425102056109 1.0
C      1  0.4807677574332  0.7413871583144  0.3578177078940 1.0
C      1  0.3541367499758  0.7538194369686  0.4701608045147 1.0
C      1  0.4223292848720  0.7620465262317  0.6276904109910 1.0
C      1  0.5936683127735  0.7525607518752  0.6084562883011 1.0
C      1  0.6264603089659  0.7409387675363  0.4401272137070 1.0
C      1  0.5725460058006  0.8218965012477  0.4634570771006 1.0
C      1  0.5545505560967  0.8296234365533  0.5573575429124 1.0
C      1  0.4585761113771  0.8340426152657  0.5682066496963 1.0
C      1  0.4191400226393  0.8292926615368  0.4804953843191 1.0
C      1  0.4892514271929  0.8217195472038  0.4171302127633 1.0
C      1  0.4276348140097  0.1814345885703  0.4629653448617 1.0
C      1  0.4458600893240  0.1718311240469  0.5575291334520 1.0
C      1  0.5401731428567  0.1625158909746  0.5685973743108 1.0
C      1  0.5794092982347  0.1665144946480  0.4800143988629 1.0
C      1  0.5088994846895  0.1770657560097  0.4159644426443 1.0
C      1  0.8098930330865  0.2973159231535  0.4448163876831 1.0
C      1  0.6465867805640  0.3013523952085  0.7740132650083 1.0
C      1  0.2884393785566  0.3135752946531  0.7206404392325 1.0
C      1  0.2257989571366  0.3125861454411  0.3625493669288 1.0
C      1  0.5458345426740  0.3047908341168  0.1908109199568 1.0
C      1  0.1906057445049  0.7003881816504  0.4450528450408 1.0
C      1  0.3534974502131  0.6970414926127  0.7724972953081 1.0
C      1  0.7137512616477  0.6872613107630  0.7194735287396 1.0
C      1  0.7748427227258  0.6854088669281  0.3622163544234 1.0
C      1  0.4537076984531  0.6956955258530  0.1896484170989 1.0
C      1  0.7077389250429  0.3785986848230  0.2952675330124 1.0
C      1  0.7554610010147  0.3769279428084  0.6350910977050 1.0
C      1  0.4516999574462  0.3869913351143  0.7789434463025 1.0
C      1  0.2240575704885  0.3972735445985  0.5388718382605 1.0
C      1  0.3762790924158  0.3931681236583  0.2445186254037 1.0
C      1  0.2924702011413  0.6191723604399  0.2953497859459 1.0
C      1  0.2396170508422  0.6239712817395  0.6365447634354 1.0
C      1  0.5493776404229  0.6110788638652  0.7770874251908 1.0
C      1  0.7752780037189  0.6026145338114  0.5373179816330 1.0
C      1  0.6242997598155  0.6071070205839  0.2444988098435 1.0
C      1  0.3702175108330  0.5271347628172  0.7582272499797 1.0
C      1  0.2089174567712  0.5315486384113  0.4529731454707 1.0
C      1  0.4545542444849  0.5255674473542  0.2030798396730 1.0
C      1  0.7598651919317  0.5139036240023  0.3646611556286 1.0
C      1  0.7061278490725  0.5158753597329  0.7026776386760 1.0
C      1  0.6309159493465  0.4718289629686  0.7588350213662 1.0
C      1  0.7901226942809  0.4667795126012  0.4533389419508 1.0
C      1  0.5463359613082  0.4748661807471  0.2032200201928 1.0
C      1  0.2398364837295  0.4842886048579  0.3644425734626 1.0
C      1  0.2938122442335  0.4848417963759  0.7024728156686 1.0
C      1  0.6900976850232  0.3078429936924  0.3438798974722 1.0
C      1  0.7104202028605  0.3011026598712  0.6298242610187 1.0
C      1  0.4468847287994  0.3104364754161  0.7346108641697 1.0
C      1  0.2709898344909  0.3254007506574  0.5181952405459 1.0
C      1  0.4171705972950  0.3262019746515  0.2839124603425 1.0
C      1  0.3131903542149  0.6875458388662  0.3463420742026 1.0
C      1  0.2882984775062  0.6972828857756  0.6304667246293 1.0
C      1  0.5547370212953  0.6869673253076  0.7319285995740 1.0
C      1  0.7302173709771  0.6756743961614  0.5165940486890 1.0
C      1  0.5852376601981  0.6769756413024  0.2806525069185 1.0
C      1  0.4289849154158  0.6001309871922  0.4429143034783 1.0
C      1  0.5362464529056  0.5968395229077  0.4321216645419 1.0
C      1  0.5676392232268  0.6141346232206  0.5240822397951 1.0
C      1  0.4942293976348  0.6263382946339  0.5824416002536 1.0
C      1  0.4117125754263  0.6213488042295  0.5406875992051 1.0
C      1  0.5708490470949  0.3828329376001  0.4471316883561 1.0
C      1  0.4739110101041  0.4166337804154  0.4366724949830 1.0
C      1  0.4347930450409  0.3900416886478  0.5301280837932 1.0
C      1  0.5050229528297  0.3736306317158  0.5864446588713 1.0
C      1  0.5871616760407  0.3689792322827  0.5356455287305 1.0
C      1  0.2679612417707  0.7395287697290  0.4160655180146 1.0
C      1  0.5047279390804  0.7276266550473  0.2589218702667 1.0
C      1  0.7265434928866  0.7218419597877  0.4318307279980 1.0
C      1  0.6354629510733  0.7318268011820  0.7006252638400 1.0
C      1  0.3448949615118  0.7453066784791  0.6950309960573 1.0
C      1  0.7348445690739  0.2549630172197  0.4138205363365 1.0
C      1  0.4956337127079  0.2735903614744  0.2607668439295 1.0
C      1  0.2763084707407  0.2808316995378  0.4329950315719 1.0
C      1  0.3655614665869  0.2669487999809  0.7024446424998 1.0
C      1  0.6549761568408  0.2539573965605  0.6957673576984 1.0
C      1  0.8194200754616  0.3818683119540  0.4516705332179 1.0
C      1  0.6399694692598  0.3856096056333  0.7840200921322 1.0
C      1  0.2757957997521  0.3975216451281  0.7178004854503 1.0
C      1  0.2189134252114  0.3973401568792  0.3539302814986 1.0
C      1  0.5499478089997  0.3893131977744  0.1766332097267 1.0
C      1  0.1786412275439  0.6160493676964  0.4507048563298 1.0
C      1  0.3624000274008  0.6132286515443  0.7840358063393 1.0
C      1  0.7247827265176  0.6028640177680  0.7182876798280 1.0
C      1  0.7817932607222  0.6006085576982  0.3541810965313 1.0
C      1  0.4502901094587  0.6110036881212  0.1764533630945 1.0
C      1  0.4728851996075  0.5190062012214  0.4109709367993 1.0
END
