TITL C-14699-4559-4 -6.682 3375.00 -1187.69946971 0 0 142 (C2v) n - 1
REM
REM Run started: at 2020.12.24 14:31:45 in /rds/project/t2_vol4/rds-t2-cs072/BORA/CARBON/AIRSS/Generating-Clusters/Str-Search/Higher-Symm/C100-200
REM VASP from code version vasp.5.4.4.18Apr17-6-g9f103f2a35 (build Oct 11 2019 16:45:47) gamma-only
REM
REM
REM
REM
REM ./C.cell (533062f00bc710175b3da973d35f2034)
REM AIRSS Version 0.9.1 bugfix July 2018 build 013d7b7c2542+ Fri, 06 Jul 2018 19:26:36 +0100
REM compiler GCC version 4.8.5 20150623 (Red Hat 4.8.5-39)
REM options -cpp -mtune=generic -march=x86-64 -g -O0
REM seed 2118570544 -494673469 1989686988 1719344988 -1441271442 1843453733 62809745 -935458434 -1530206275 -805285431 1717765942 -1937496490
REM
REM C.POTCAR (d86ddea03c3ceb6dc662c8ad6801f873)
REM 
CELL 1.54180   15.00000   15.00000   15.00000   90.00000   90.00000   90.00000
LATT -1
SFAC C  
C      1  0.4181913549126  0.6617726788426  0.2454513728731 1.0
C      1  0.5818087345722  0.3382272858119  0.2454509659925 1.0
C      1  0.4145414827546  0.6754497488436  0.7597721681136 1.0
C      1  0.5854585247714  0.3245508656581  0.7597722073711 1.0
C      1  0.4181918647956  0.3382270924042  0.2454513633366 1.0
C      1  0.5818091341681  0.6617722427403  0.2454509428043 1.0
C      1  0.4145410368544  0.3245514314547  0.7597729279690 1.0
C      1  0.5854581318384  0.6754499073061  0.7597718638841 1.0
C      1  0.6940578674959  0.5482827098726  0.8182919895847 1.0
C      1  0.3059413336253  0.4517184495830  0.8182946408245 1.0
C      1  0.6947464696263  0.5481795035546  0.1758443193872 1.0
C      1  0.3052545348691  0.4518190073318  0.1758460234700 1.0
C      1  0.6940580817925  0.4517182091711  0.8182922240897 1.0
C      1  0.3059412683718  0.5482829550065  0.8182950147306 1.0
C      1  0.6947469624842  0.4518183577133  0.1758451055311 1.0
C      1  0.3052543248557  0.5481801616520  0.1758453836341 1.0
C      1  0.8010225263016  0.3877746834540  0.2881473473930 1.0
C      1  0.1989797588674  0.6122239423105  0.2881483695845 1.0
C      1  0.7997756478890  0.3864455424171  0.7056328708395 1.0
C      1  0.2002209816548  0.6135532431025  0.7056358801876 1.0
C      1  0.8010205855582  0.6122237182325  0.2881470201528 1.0
C      1  0.1989797941419  0.3877757164469  0.2881490590965 1.0
C      1  0.7997756824063  0.6135543049076  0.7056320712803 1.0
C      1  0.2002204822955  0.3864470575088  0.7056365112906 1.0
C      1  0.3131609391035  0.2873291890785  0.5489312153325 1.0
C      1  0.6868378107378  0.7126724800613  0.5489301743133 1.0
C      1  0.3126535764866  0.2915594391726  0.4451873911954 1.0
C      1  0.6873461250459  0.7084407296199  0.4451859554654 1.0
C      1  0.3131612406837  0.7126708423232  0.5489310561724 1.0
C      1  0.6868380725582  0.2873274385145  0.5489303286482 1.0
C      1  0.3126537003899  0.7084407305520  0.4451870946727 1.0
C      1  0.6873461482616  0.2915591931090  0.4451857701594 1.0
C      1  0.4508121232241  0.5483366885620  0.1265106746081 1.0
C      1  0.5491882222770  0.4516627164260  0.1265106075343 1.0
C      1  0.4510235767406  0.5488733278893  0.8668004058572 1.0
C      1  0.5489770088623  0.4511265349761  0.8668013247204 1.0
C      1  0.4508124354235  0.4516629297340  0.1265113195078 1.0
C      1  0.5491884345638  0.5483366929544  0.1265099916598 1.0
C      1  0.4510234381684  0.4511270803825  0.8668003613624 1.0
C      1  0.5489770097006  0.5488735982517  0.8668015381039 1.0
C      1  0.4210675382369  0.5879477617575  0.6046226468039 1.0
C      1  0.5789335256590  0.4120550514678  0.6046231687018 1.0
C      1  0.3968296965276  0.5479273225804  0.3877710840772 1.0
C      1  0.6031718979552  0.4520735754343  0.3877701613257 1.0
C      1  0.4210683549647  0.4120534918877  0.6046231669187 1.0
C      1  0.5789335694609  0.5879451181213  0.6046231933744 1.0
C      1  0.3968291944929  0.4520734149078  0.3877705380392 1.0
C      1  0.6031721500843  0.5479265578665  0.3877708152729 1.0
C      1  0.8270670266552  0.3862146579412  0.3841754641197 1.0
C      1  0.1729350809204  0.6137839849603  0.3841764369691 1.0
C      1  0.8251476310366  0.3857763155233  0.6093576112789 1.0
C      1  0.1748513626878  0.6142220351095  0.6093596228167 1.0
C      1  0.8270658020123  0.6137840361263  0.3841750129618 1.0
C      1  0.1729348600615  0.3862158092470  0.3841766097158 1.0
C      1  0.8251477436695  0.6142229842285  0.6093568295592 1.0
C      1  0.1748510147800  0.3857778817749  0.6093600511687 1.0
C      1  0.5417550992016  0.2185964013753  0.3885219273645 1.0
C      1  0.4582449563442  0.7814036808634  0.3885210242842 1.0
C      1  0.5421436603258  0.2108010030546  0.6101571750904 1.0
C      1  0.4578540277856  0.7891986510181  0.6101576410743 1.0
C      1  0.5417552327279  0.7814030780873  0.3885209635949 1.0
C      1  0.4582448204463  0.2185959680212  0.3885222556571 1.0
C      1  0.5421434279855  0.7891991693881  0.6101559623507 1.0
C      1  0.4578539854292  0.2108025796314  0.6101584107389 1.0
C      1  0.7447300604616  0.6910815512938  0.3025151154812 1.0
C      1  0.2552705353092  0.3089181855995  0.3025173111695 1.0
C      1  0.7460383093732  0.6949465178713  0.6920617221695 1.0
C      1  0.2539609214853  0.3050558042995  0.6920642052089 1.0
C      1  0.7447309772056  0.3089179360268  0.3025153530856 1.0
C      1  0.2552710351476  0.6910806680875  0.3025171078495 1.0
C      1  0.7460379578268  0.3050532858965  0.6920625305226 1.0
C      1  0.2539607601813  0.6949446617656  0.6920634882780 1.0
C      1  0.1518733332931  0.4510476163539  0.4475006893726 1.0
C      1  0.8481276181592  0.5489517337606  0.4474997134537 1.0
C      1  0.1529962096754  0.4510142004730  0.5466506436062 1.0
C      1  0.8470022530566  0.5489851268226  0.5466493015700 1.0
C      1  0.1518731747043  0.5489521735853  0.4475005121716 1.0
C      1  0.8481285333134  0.4510471401677  0.4474999346398 1.0
C      1  0.1529959137496  0.5489856030167  0.5466508050055 1.0
C      1  0.8470023293937  0.4510136903487  0.5466493103974 1.0
C      1  0.2289282008040  0.3054370835398  0.5997426082950 1.0
C      1  0.7710716401586  0.6945662511276  0.5997395922552 1.0
C      1  0.2280300989638  0.3064110597091  0.3942357432559 1.0
C      1  0.7719700229345  0.6935888355100  0.3942340117391 1.0
C      1  0.2289277809994  0.6945634101813  0.5997418887924 1.0
C      1  0.7710716778279  0.3054333044275  0.5997407308262 1.0
C      1  0.2280303279329  0.6935884683697  0.3942356167220 1.0
C      1  0.7719706213110  0.3064106249093  0.3942339736268 1.0
C      1  0.3716826722940  0.2378672887301  0.6195792515015 1.0
C      1  0.6283156846317  0.7621335302983  0.6195778143356 1.0
C      1  0.3735702764103  0.2475927728724  0.3772722186637 1.0
C      1  0.6264301205056  0.7524079015572  0.3772705896914 1.0
C      1  0.3716829070071  0.7621332913582  0.6195790912612 1.0
C      1  0.6283157400151  0.2378672792656  0.6195782928767 1.0
C      1  0.3735699600283  0.7524082877962  0.3772718142898 1.0
C      1  0.6264300027644  0.2475921856943  0.3772707426987 1.0
C      1  0.7779337618415  0.5488261610986  0.2282033770372 1.0
C      1  0.2220676222076  0.4511726270944  0.2282053816314 1.0
C      1  0.7758412477341  0.5490510925405  0.7640880352482 1.0
C      1  0.2241566443868  0.4509507815402  0.7640911853030 1.0
C      1  0.7779344316864  0.4511722671849  0.2282037762830 1.0
C      1  0.2220675566626  0.5488269056723  0.2282050255801 1.0
C      1  0.7758414656605  0.4509491474307  0.7640884340875 1.0
C      1  0.2241557639369  0.5490506809569  0.7640923542277 1.0
C      1  0.6136426715630  0.5973023188740  0.1720441768069 1.0
C      1  0.3863584232202  0.4026973689825  0.1720455118579 1.0
C      1  0.6148089358675  0.6005933009095  0.8261094930237 1.0
C      1  0.3851899600588  0.3994073641762  0.8261104354858 1.0
C      1  0.6136423648423  0.4026971893200  0.1720449004116 1.0
C      1  0.3863579234461  0.5973024225060  0.1720448020041 1.0
C      1  0.6148095140196  0.3994073782704  0.8261095720291 1.0
C      1  0.3851906363559  0.6005937440214  0.8261101696230 1.0
C      1  0.4521731764221  0.3824040972038  0.6865667157841 1.0
C      1  0.5478276963476  0.6175955492762  0.6865659554921 1.0
C      1  0.4543372363079  0.4047464578697  0.3206426723200 1.0
C      1  0.5456632355945  0.5952535169075  0.3206427616656 1.0
C      1  0.4521722897991  0.6175961922233  0.6865657316659 1.0
C      1  0.5478277695315  0.3824048869529  0.6865658180788 1.0
C      1  0.4543374989772  0.5952532886849  0.3206430776916 1.0
C      1  0.5456629174020  0.4047464415754  0.3206425844214 1.0
C      1  0.3560773486095  0.3905229164628  0.4522991861919 1.0
C      1  0.6439240168938  0.6094776005982  0.4522993634086 1.0
C      1  0.3583268495318  0.3804141687539  0.5434052497325 1.0
C      1  0.6416738011288  0.6195869492387  0.5434047453079 1.0
C      1  0.3560777900890  0.6094778172552  0.4522992158671 1.0
C      1  0.6439246578514  0.3905227063630  0.4522994560139 1.0
C      1  0.3583259148623  0.6195857918979  0.5434050179187 1.0
C      1  0.6416735124658  0.3804140661209  0.5434044447457 1.0
C      1  0.3453265347795  0.2852624702854  0.2925313483119 1.0
C      1  0.6546738416882  0.7147373717480  0.2925295518482 1.0
C      1  0.3418091341681  0.2749995284459  0.7054213738467 1.0
C      1  0.6581902190749  0.7250025221361  0.7054204140360 1.0
C      1  0.3453264907809  0.7147373967879  0.2925306075015 1.0
C      1  0.6546747080399  0.2852627336076  0.2925300323532 1.0
C      1  0.3418087563625  0.7250012697737  0.7054206403299 1.0
C      1  0.6581897192702  0.2749977680301  0.7054212473099 1.0
C      1  0.5000002281632  0.7142619110841  0.2152594265566 1.0
C      1  0.4999997122758  0.2702627746197  0.7881206093531 1.0
C      1  0.5000005565276  0.2857374133858  0.2152590156642 1.0
C      1  0.4999998426463  0.7297371698238  0.7881198461929 1.0
C      1  0.5000000418986  0.5446533656517  0.5671800486823 1.0
C      1  0.4999998335151  0.4553466786348  0.5671800602620 1.0
END
