TITL C-141225-8424-1 -8.588 3375.00 -1466.24762775 0 0 180 (C1) n - 1
REM
REM Run started: at 2020.12.23 04:38:24 in /rds/project/t2_vol4/rds-t2-cs072/BORA/CARBON/AIRSS/Generating-Clusters/Str-Search/Higher-Symm/Only-C180
REM VASP from code version vasp.5.4.4.18Apr17-6-g9f103f2a35 (build Oct 11 2019 16:45:47) gamma-only
REM
REM
REM
REM
REM ./C.cell (f712cfaf3acf65fd2d5dcba0fd1fd40b)
REM AIRSS Version 0.9.1 bugfix July 2018 build 013d7b7c2542+ Fri, 06 Jul 2018 19:26:36 +0100
REM compiler GCC version 4.8.5 20150623 (Red Hat 4.8.5-39)
REM options -cpp -mtune=generic -march=x86-64 -g -O0
REM seed 1937099868 -1370057831 739594785 1917459657 -441069144 1532285520 -251206865 1379228497 720775988 -2032412610 -87091317 1165506672
REM
REM C.POTCAR (d86ddea03c3ceb6dc662c8ad6801f873)
REM 
CELL 1.54180   15.00000   15.00000   15.00000   90.00000   90.00000   90.00000
LATT -1
SFAC C  
C      1  0.7564413081095  0.5104184737107  0.2645468795300 1.0
C      1  0.2405116150057  0.5051596455899  0.7408526489356 1.0
C      1  0.6602464242356  0.2549354638372  0.4021867676674 1.0
C      1  0.3364207158198  0.2513950426851  0.5980001191436 1.0
C      1  0.4840834933000  0.6844808478143  0.1824482509620 1.0
C      1  0.5206283130955  0.6840452448599  0.8155341040206 1.0
C      1  0.2900992668755  0.2694172131041  0.2851006953810 1.0
C      1  0.7096760108046  0.2709659805034  0.7115488912483 1.0
C      1  0.0980330952299  0.5126328162186  0.4424029511735 1.0
C      1  0.9070580394146  0.5175391264636  0.5591354561234 1.0
C      1  0.4322297794359  0.2275841015223  0.5888953694874 1.0
C      1  0.5647910402218  0.2291252345790  0.4102925035288 1.0
C      1  0.2938113832531  0.3460849778656  0.8088376076932 1.0
C      1  0.7073849404434  0.3486190067783  0.1927950115195 1.0
C      1  0.3798563704325  0.4665129123392  0.6403074885737 1.0
C      1  0.6147583620434  0.4729189309287  0.3629811281642 1.0
C      1  0.1947168080203  0.3340492853317  0.6752189529971 1.0
C      1  0.8027236707544  0.3391897277760  0.3288766064371 1.0
C      1  0.4413463431968  0.4508291837149  0.5658288793486 1.0
C      1  0.5515338970493  0.4552811625437  0.4358144442817 1.0
C      1  0.2586572254625  0.6441613047847  0.7483962494411 1.0
C      1  0.7423017514249  0.6484566012517  0.2540882701764 1.0
C      1  0.1144127199811  0.6169422367905  0.2575476082947 1.0
C      1  0.8845372251016  0.6238794527148  0.7463200284284 1.0
C      1  0.7407170808929  0.5833871383086  0.7876758197702 1.0
C      1  0.2560654788298  0.5821372550491  0.2030126620483 1.0
C      1  0.5841062001740  0.3730433949428  0.4851887601089 1.0
C      1  0.4092787581866  0.3702928757856  0.5140213804143 1.0
C      1  0.4440973404677  0.3071182190461  0.1851808429832 1.0
C      1  0.5588741205239  0.3068334062696  0.8161931951317 1.0
C      1  0.7081243759289  0.7340916009381  0.2310438409433 1.0
C      1  0.2955421537682  0.7308266344077  0.7648719784819 1.0
C      1  0.1249497112965  0.5839266526432  0.6630573365883 1.0
C      1  0.8757725212556  0.5856819336657  0.3392049700041 1.0
C      1  0.1895420425461  0.6463411290054  0.2039278919234 1.0
C      1  0.8048077802668  0.6497002790057  0.7921177245598 1.0
C      1  0.4586099865905  0.2875385408560  0.5246493046205 1.0
C      1  0.5362624333850  0.2894798490500  0.4731501912459 1.0
C      1  0.8439201493699  0.7102730822099  0.7344097045189 1.0
C      1  0.1557771858534  0.7016066526033  0.2689435017252 1.0
C      1  0.8671093101206  0.7702498570934  0.5903595127794 1.0
C      1  0.1430119755198  0.7637689342978  0.4128921896560 1.0
C      1  0.3389516355194  0.6073586021081  0.2460661598113 1.0
C      1  0.6579203487799  0.6052021306656  0.7425864041978 1.0
C      1  0.2060733158480  0.4979987331739  0.2243687387167 1.0
C      1  0.7938926031688  0.5010487449376  0.7712019524017 1.0
C      1  0.6570633745239  0.4301032842708  0.8280828563948 1.0
C      1  0.3448018521675  0.4290452454271  0.1688185619929 1.0
C      1  0.5582617847185  0.7916261290272  0.5116112063784 1.0
C      1  0.4651227824512  0.7769258259933  0.5073294047723 1.0
C      1  0.5364305797096  0.7187549828436  0.5662939683377 1.0
C      1  0.4329638787581  0.7142567854700  0.4410563663276 1.0
C      1  0.4062329379278  0.0995112288797  0.8533760133574 1.0
C      1  0.5942615221376  0.0980427822283  0.1467946405510 1.0
C      1  0.7258299162818  0.3267181665508  0.7812718652082 1.0
C      1  0.2758956962260  0.3251391265543  0.2148803811484 1.0
C      1  0.6138838060233  0.7993135342914  0.4369617782558 1.0
C      1  0.3986014710469  0.8060769828061  0.5688212619707 1.0
C      1  0.4959707933193  0.6447610558528  0.5974642072612 1.0
C      1  0.4892383636324  0.6488153224899  0.4061210268068 1.0
C      1  0.1026795242723  0.3814596474433  0.3710251280956 1.0
C      1  0.8958431496125  0.3882384078527  0.6331115119884 1.0
C      1  0.2915450787682  0.7271586267167  0.3571196302164 1.0
C      1  0.7170216868085  0.7255127765427  0.6310450491729 1.0
C      1  0.8204659681976  0.3296197119316  0.4983862336162 1.0
C      1  0.1731173553624  0.3238347461954  0.5059482645356 1.0
C      1  0.2389730282223  0.3108493792461  0.7544831171583 1.0
C      1  0.7617847346004  0.3146941542399  0.2481343920249 1.0
C      1  0.4787704568148  0.5987827425823  0.8416684482982 1.0
C      1  0.5247232011523  0.5990608798296  0.1580308990292 1.0
C      1  0.4259668713592  0.4696042406733  0.2143491057574 1.0
C      1  0.5736355211945  0.4686879060135  0.7852524150753 1.0
C      1  0.8813133780357  0.3365313910753  0.5693984195276 1.0
C      1  0.1109872952150  0.3288756311297  0.4356258369655 1.0
C      1  0.3657367916021  0.7126377320610  0.8261310969179 1.0
C      1  0.6378732057658  0.7129502534340  0.1713846182982 1.0
C      1  0.4052718795449  0.6078670209605  0.5671249167393 1.0
C      1  0.5857545359397  0.6138312389011  0.4327816101673 1.0
C      1  0.3282020993706  0.1454009481940  0.4438824554557 1.0
C      1  0.6701842822947  0.1459980081857  0.5565048192254 1.0
C      1  0.2747142006910  0.1578914737337  0.5074073600874 1.0
C      1  0.7231278529421  0.1598033524109  0.4929348929175 1.0
C      1  0.9126029855065  0.7564138138325  0.5237561655978 1.0
C      1  0.0885042824304  0.7555539425153  0.4739016755624 1.0
C      1  0.5515023591362  0.3755710337360  0.7419325740805 1.0
C      1  0.4478044816456  0.3765142625802  0.2592374639784 1.0
C      1  0.2521956219632  0.2082464187561  0.5851368195276 1.0
C      1  0.7444001594745  0.2129813285853  0.4170517206711 1.0
C      1  0.4582915824401  0.1681252976639  0.8443838090943 1.0
C      1  0.5441945512700  0.1679034788308  0.1573134932126 1.0
C      1  0.9051126396586  0.4822276254653  0.6467104907319 1.0
C      1  0.0997686055907  0.4750267221137  0.3554282161070 1.0
C      1  0.5269208187039  0.7827409634237  0.2745727790782 1.0
C      1  0.4775584863831  0.7863135880230  0.7279186030853 1.0
C      1  0.3551055761036  0.3356613990704  0.1548109224988 1.0
C      1  0.6483160237419  0.3368287771387  0.8434738052197 1.0
C      1  0.2523484888708  0.3707242137801  0.4908409718355 1.0
C      1  0.7406841451309  0.3749084433137  0.5113358221753 1.0
C      1  0.5991396553071  0.8040612523258  0.3392740369297 1.0
C      1  0.4052207113392  0.8085361657999  0.6648376554943 1.0
C      1  0.4905115208170  0.1590561671633  0.3995822196601 1.0
C      1  0.5077972492356  0.1586989750311  0.6003505924868 1.0
C      1  0.4364243299943  0.7284325414447  0.2576547938856 1.0
C      1  0.5685481553712  0.7298752206546  0.7388973499760 1.0
C      1  0.4065290317037  0.5497672548457  0.2726255294872 1.0
C      1  0.5878199184444  0.5482026061489  0.7252841751874 1.0
C      1  0.3291279224670  0.7175391491164  0.4522056884893 1.0
C      1  0.7070027137389  0.7100785221121  0.5335955833229 1.0
C      1  0.6741482935736  0.6279685936375  0.4978016900572 1.0
C      1  0.3257630288732  0.6245504936019  0.4992357037886 1.0
C      1  0.3035111294663  0.4225481329118  0.6252416189062 1.0
C      1  0.6908567176304  0.4274625478644  0.3767751076801 1.0
C      1  0.1156380940682  0.5036136595422  0.5236546995851 1.0
C      1  0.8848597268069  0.5067164114326  0.4791152195532 1.0
C      1  0.1256582083286  0.5236763679298  0.2766868441125 1.0
C      1  0.8769057759487  0.5304756953001  0.7244606208868 1.0
C      1  0.8057861206290  0.7503605908184  0.6569865227866 1.0
C      1  0.2000026093522  0.7426932772337  0.3438574620343 1.0
C      1  0.3307681062599  0.5738821539653  0.7555115313336 1.0
C      1  0.6692234391247  0.5778641200857  0.2480162102643 1.0
C      1  0.4497938272456  0.7506302583346  0.8108781700904 1.0
C      1  0.5545490484417  0.7507561928724  0.1891110294937 1.0
C      1  0.0953441131683  0.7318108170754  0.5616862889089 1.0
C      1  0.9116542908752  0.7357880928301  0.4351802187739 1.0
C      1  0.6182899913809  0.6177878282364  0.1679369338067 1.0
C      1  0.3856207410029  0.6178847778311  0.8312306135595 1.0
C      1  0.2957886815328  0.4439766757981  0.4371675477111 1.0
C      1  0.6952581883568  0.4487404237768  0.5632470024556 1.0
C      1  0.1409222421242  0.5049335568904  0.6124982973209 1.0
C      1  0.8573636509808  0.5075941972407  0.3911429042047 1.0
C      1  0.3956092402667  0.1843373151501  0.3908971337548 1.0
C      1  0.6024318928717  0.1845498896462  0.6093314076545 1.0
C      1  0.3226131329630  0.3490565092418  0.5597301322109 1.0
C      1  0.6716025939297  0.3529189860962  0.4404613716768 1.0
C      1  0.5100261781921  0.2361119730002  0.8313017715433 1.0
C      1  0.4933468603928  0.2364813718480  0.1709452107450 1.0
C      1  0.5770139161875  0.5298123982126  0.4987294569842 1.0
C      1  0.4132557623078  0.5248264814518  0.5053578265991 1.0
C      1  0.3979872472055  0.5560898141187  0.6703762560676 1.0
C      1  0.5965345896253  0.5627752821137  0.3341069251953 1.0
C      1  0.4101679268539  0.3479704390093  0.3379357494414 1.0
C      1  0.5864237910490  0.3479400719865  0.6618235341589 1.0
C      1  0.8131635603204  0.2840599181550  0.4071351493522 1.0
C      1  0.1832208885680  0.2785669822112  0.5967426903733 1.0
C      1  0.8437805557438  0.7500164527394  0.3725885162433 1.0
C      1  0.1685838318003  0.7443521865761  0.6185283914667 1.0
C      1  0.3517948170652  0.6995887929894  0.2837123356951 1.0
C      1  0.6480770339168  0.6960583124312  0.7018883729457 1.0
C      1  0.7460394171233  0.4241851277908  0.7886949981821 1.0
C      1  0.2551893530981  0.4222472042978  0.2062383560699 1.0
C      1  0.4740100380436  0.5661710890539  0.3461023517909 1.0
C      1  0.5144257329610  0.5633650660114  0.6571097366708 1.0
C      1  0.7839751300515  0.4457116073819  0.3403808595750 1.0
C      1  0.2119434042749  0.4414520110319  0.6640599283804 1.0
C      1  0.6339838780688  0.2596328754763  0.6633043673816 1.0
C      1  0.3643352412001  0.2587260430258  0.3355095984121 1.0
C      1  0.3616640534395  0.3903974132595  0.8449298170600 1.0
C      1  0.6396876430101  0.3918526218207  0.1552732460580 1.0
C      1  0.7050362925551  0.7768661952469  0.4585695206244 1.0
C      1  0.3136311709169  0.7820766067680  0.5345231894338 1.0
C      1  0.8976275651345  0.6724392867626  0.3673239853570 1.0
C      1  0.1095652191119  0.6711753529942  0.6304538165205 1.0
C      1  0.8088935069456  0.5867812464036  0.2716790753858 1.0
C      1  0.1909995588425  0.5837312781654  0.7317486903609 1.0
C      1  0.5331134630969  0.4888805938954  0.5838081965046 1.0
C      1  0.4578881728400  0.4896162234392  0.4176916289822 1.0
C      1  0.7546055673526  0.7809011083179  0.3786170452275 1.0
C      1  0.2566176902885  0.7760818208206  0.6123515549912 1.0
C      1  0.4245083955024  0.4460178314279  0.8550803218990 1.0
C      1  0.5760938703870  0.4464624780381  0.1459499546587 1.0
C      1  0.6011498258172  0.4105689145273  0.5844706200207 1.0
C      1  0.3920958386643  0.4091897516769  0.4152881807141 1.0
C      1  0.3166747997841  0.5331080437559  0.4752169567852 1.0
C      1  0.6729800779157  0.5362528276168  0.5269647432588 1.0
C      1  0.3128077151510  0.7863274114871  0.6906774784693 1.0
C      1  0.6908797815585  0.7892051574257  0.3060572999993 1.0
C      1  0.4947445474094  0.0889676738890  0.5401363729170 1.0
C      1  0.5049503192758  0.0862034756922  0.4567078871110 1.0
C      1  0.4956532498252  0.5031237995516  0.8417550252945 1.0
C      1  0.5055404557598  0.5041551154803  0.1595030338840 1.0
END
