TITL C-14788-7911-62 -3.484 3375.00 -588.59777658 0 0 73 (C1) n - 1
REM
REM Run started: at 2021.01.04 16:57:18 in /gpfs/home/chem/mssmkc/CARBON/AIRSS/Generating-Clusters/Str-Search/Higher-Symm/C4-100
REM VASP from code version vasp.5.4.4.18Apr17-6-g9f103f2a35 (build Oct 11 2019 16:45:47) gamma-only
REM
REM
REM
REM
REM ./C.cell (6bd13a13d554368a30d355f37ece5b26)
REM AIRSS Version 0.9.1 bugfix July 2018 build 013d7b7c2542+ Fri, 06 Jul 2018 19:26:36 +0100
REM compiler GCC version 6.3.0
REM options -cpp -iprefix /gpfs/warwick/csc/orac/software/Core/GCCcore/6.3.0/bin/../lib/gcc/x86_64-pc-linux-gnu/6.3.0/ -mtune=generic -march=x86-64 -g -O0
REM seed -1913582595 1074377019 -1969890168 -2002494124 -1995869853 -1500451062 703351981 1647361506 191636440 627270157 2126560310 1459075310
REM
REM C.POTCAR (d86ddea03c3ceb6dc662c8ad6801f873)
REM 
CELL 1.54180   15.00000   15.00000   15.00000   90.00000   90.00000   90.00000
LATT -1
SFAC C  
C      1  0.5108307561618  0.5067257259108  0.3646012817404 1.0
C      1  0.4178954168971  0.5123504045253  0.4126578103660 1.0
C      1  0.3811439001032  0.5110818379655  0.5132669820343 1.0
C      1  0.4123206410449  0.4983850304320  0.6139344060250 1.0
C      1  0.5072013505778  0.4905856651297  0.6512564154985 1.0
C      1  0.5593756307915  0.4936482697959  0.5646374651498 1.0
C      1  0.5959151573404  0.5261209166806  0.4163976228397 1.0
C      1  0.7836169688881  0.3287613131095  0.6224576558896 1.0
C      1  0.6931705942125  0.3628620621128  0.4281441037641 1.0
C      1  0.4923523902924  0.3345391843687  0.3016506028461 1.0
C      1  0.3371406929302  0.3606988824520  0.3794914102145 1.0
C      1  0.2940811764714  0.3623890145011  0.4729534710506 1.0
C      1  0.3284468989855  0.3367047049938  0.6418819509796 1.0
C      1  0.5755100333654  0.3441596264429  0.6944005432921 1.0
C      1  0.3329266322669  0.6920957751767  0.4341926139367 1.0
C      1  0.3426017290296  0.7031000743024  0.5894908723206 1.0
C      1  0.4716263516812  0.6771763778523  0.6684937930479 1.0
C      1  0.6273695561691  0.6712173057618  0.6299102408875 1.0
C      1  0.6924664654160  0.6673166607119  0.4796622441722 1.0
C      1  0.5909773317497  0.6643853537573  0.3428755170677 1.0
C      1  0.4413386765257  0.6986848778803  0.3257457915273 1.0
C      1  0.7998352189919  0.4984556457367  0.6212812412703 1.0
C      1  0.7652200657750  0.4850138997130  0.3576973809549 1.0
C      1  0.4902593335843  0.4744348777938  0.2145906925588 1.0
C      1  0.3070905093094  0.4929982247273  0.2962295530034 1.0
C      1  0.2217202951203  0.4997506783026  0.5170829060761 1.0
C      1  0.2890899628154  0.4841361513656  0.7058710755999 1.0
C      1  0.6056731763755  0.4842363222498  0.7678527071527 1.0
C      1  0.7593960659787  0.5681336506517  0.6000947663637 1.0
C      1  0.7408937395442  0.5647902302528  0.3417568928889 1.0
C      1  0.4763402249236  0.5489350210000  0.2765424885734 1.0
C      1  0.3727722982448  0.5569692131295  0.3255027111024 1.0
C      1  0.2917659384237  0.5601106629954  0.5449970878301 1.0
C      1  0.3340725808450  0.5532034379731  0.6506040305160 1.0
C      1  0.5585609365188  0.5461486064801  0.7204901573510 1.0
C      1  0.4901653852752  0.3911074685479  0.2237112310869 1.0
C      1  0.3026042956782  0.4106054061626  0.3053931170531 1.0
C      1  0.2211060318507  0.4188794583509  0.4995313699272 1.0
C      1  0.2819041535805  0.4010315656081  0.6962511764298 1.0
C      1  0.6126539619351  0.3997514920274  0.7610972257353 1.0
C      1  0.8037730310678  0.4099962554497  0.6267973006902 1.0
C      1  0.7606049403278  0.4004035242899  0.3810597573392 1.0
C      1  0.4681379734670  0.7616908342976  0.3935251146546 1.0
C      1  0.3993109867290  0.7631722389691  0.4579418359630 1.0
C      1  0.4068662854449  0.7665678708200  0.5536339682878 1.0
C      1  0.4851293171094  0.7472588097849  0.6019766811564 1.0
C      1  0.5761555466716  0.7279093631545  0.5689390056415 1.0
C      1  0.6245017329985  0.7353479104472  0.4834708754534 1.0
C      1  0.5579158527416  0.7250026238624  0.4133812229887 1.0
C      1  0.6197022628792  0.2884764012850  0.6313503253892 1.0
C      1  0.7105493017488  0.2820410192389  0.5899777081813 1.0
C      1  0.6784126487483  0.2954495882168  0.4961692669543 1.0
C      1  0.4478067056498  0.2636880800322  0.3400265979116 1.0
C      1  0.3768285486311  0.2685282351502  0.3975198180839 1.0
C      1  0.3283177781774  0.2693369120112  0.4941411276703 1.0
C      1  0.3253440984719  0.2647243823516  0.5857992610298 1.0
C      1  0.5148546765916  0.4038284204635  0.3753421343030 1.0
C      1  0.4212135511626  0.4120356040579  0.4175735763063 1.0
C      1  0.3811092422192  0.4100188313971  0.5101471676489 1.0
C      1  0.4087825221594  0.3940198633319  0.6091346794145 1.0
C      1  0.4965384917277  0.3918399715938  0.6616105181415 1.0
C      1  0.5791417520890  0.4116940584478  0.5233284720889 1.0
C      1  0.6044877189973  0.4216922713172  0.4296824167320 1.0
C      1  0.7036159372422  0.6361616423127  0.5738983036494 1.0
C      1  0.6662537964275  0.6092186639304  0.3866817842302 1.0
C      1  0.5129289700099  0.6422313119904  0.2930825522505 1.0
C      1  0.3621062588995  0.6529367277235  0.3508714269428 1.0
C      1  0.3030200952176  0.6553109337666  0.5175473381532 1.0
C      1  0.3774239969445  0.6472655267241  0.6585633481298 1.0
C      1  0.5599543666785  0.6375077806175  0.6904448055002 1.0
C      1  0.5465243413158  0.6570783308120  0.4986882535368 1.0
C      1  0.5641292622625  0.5638269260972  0.5026651998440 1.0
C      1  0.5999510835204  0.3228441091236  0.5454741496085 1.0
END
