TITL C-14724-9579-6 -4.347 3375.00 -735.74486648 0 0 90 (Cs) n - 1
REM
REM Run started: at 2020.11.20 08:35:29 in /rds/project/t2_vol4/rds-t2-cs072/BORA/CARBON/AIRSS/Generating-Clusters/Str-Search/Higher-Symm
REM VASP from code version vasp.5.4.4.18Apr17-6-g9f103f2a35 (build Oct 11 2019 16:45:47) gamma-only
REM
REM
REM
REM
REM ./C.cell (e5ae0387ce4d49c7c0135a1433873289)
REM AIRSS Version 0.9.1 bugfix July 2018 build 013d7b7c2542+ Fri, 06 Jul 2018 19:26:36 +0100
REM compiler GCC version 4.8.5 20150623 (Red Hat 4.8.5-39)
REM options -cpp -mtune=generic -march=x86-64 -g -O0
REM seed -1774724155 8609842 -2083452548 -371195312 584888252 1887287636 285028310 -484459517 -1414059282 -1862472992 -2082319672 -1728068078
REM
REM C.POTCAR (d86ddea03c3ceb6dc662c8ad6801f873)
REM 
CELL 1.54180   15.00000   15.00000   15.00000   90.00000   90.00000   90.00000
LATT -1
SFAC C  
C      1  0.3515520173512  0.1834578137228  0.6000367946105 1.0
C      1  0.3115143795424  0.8298448043005  0.4072774802046 1.0
C      1  0.3115113067388  0.8298408082446  0.5927888767271 1.0
C      1  0.3516029162589  0.1834730503581  0.3998388369937 1.0
C      1  0.7310653137483  0.4402390763578  0.4089903793421 1.0
C      1  0.7568556001776  0.5183810164692  0.5496664987056 1.0
C      1  0.7570239021298  0.5184455935203  0.4504755214792 1.0
C      1  0.7309468473867  0.4401130678398  0.5909897176730 1.0
C      1  0.5857947724016  0.4781254683322  0.6846244212749 1.0
C      1  0.5218644591811  0.6093504833015  0.2693672619329 1.0
C      1  0.5218153862733  0.6092369735347  0.7307144512889 1.0
C      1  0.5858536181908  0.4782802115169  0.3154049914799 1.0
C      1  0.7356776042354  0.6137569293431  0.4519637853406 1.0
C      1  0.7431288296727  0.3554524811282  0.5478479914784 1.0
C      1  0.7432012130691  0.3555093527147  0.4520710839027 1.0
C      1  0.7356329568627  0.6137040166250  0.5482300235381 1.0
C      1  0.4401893552349  0.7004722690001  0.4130923324227 1.0
C      1  0.4703569472518  0.3243645037183  0.6031406493859 1.0
C      1  0.4703458675225  0.3244042336630  0.3967360722762 1.0
C      1  0.4402435398541  0.7004195858047  0.5869501360103 1.0
C      1  0.6447890517944  0.3256663757361  0.6730655243539 1.0
C      1  0.6609580503567  0.6588905920885  0.3097349764299 1.0
C      1  0.6609307783098  0.6586608539150  0.6904312845672 1.0
C      1  0.6447864684640  0.3258711442444  0.3269348115545 1.0
C      1  0.5880150904921  0.5422309051788  0.2361579117251 1.0
C      1  0.6134720269235  0.3935667568894  0.8257082897726 1.0
C      1  0.6136002778500  0.3938960613740  0.1741775267859 1.0
C      1  0.5879118229268  0.5420413813086  0.7638475282446 1.0
C      1  0.6819525391843  0.5830842351553  0.2509672497390 1.0
C      1  0.6762439000906  0.3475629453202  0.7730391744027 1.0
C      1  0.6764262038827  0.3479870650031  0.2269150805242 1.0
C      1  0.6818346847717  0.5828948066101  0.7492245501772 1.0
C      1  0.5608945335361  0.2905772216750  0.3809875989957 1.0
C      1  0.5341174559506  0.7214573175922  0.6088926044285 1.0
C      1  0.5340933070581  0.7215933444846  0.3912839455209 1.0
C      1  0.5608996558457  0.2904923938075  0.6188267663335 1.0
C      1  0.7450970693611  0.5188965117688  0.7673463867948 1.0
C      1  0.7245084262210  0.4337796635575  0.2473311423880 1.0
C      1  0.7243324167714  0.4334944475362  0.7525930203406 1.0
C      1  0.7452894345331  0.5191766674282  0.2326796688015 1.0
C      1  0.6095944305542  0.7184485946351  0.4517507277871 1.0
C      1  0.6151988538950  0.2549052320316  0.5493551418328 1.0
C      1  0.6152012511449  0.2549717072559  0.4504831121861 1.0
C      1  0.6095942894368  0.7183860430518  0.5484404494583 1.0
C      1  0.3622953618958  0.4524633093921  0.4452258507161 1.0
C      1  0.3505107920628  0.5584271672418  0.5524149474197 1.0
C      1  0.3504960780524  0.5584265232690  0.4475489741924 1.0
C      1  0.3623211373675  0.4524620362066  0.5546332430788 1.0
C      1  0.6659747271191  0.4265982082558  0.3350757610764 1.0
C      1  0.5656240274284  0.6820964689509  0.6914074559919 1.0
C      1  0.5656147288901  0.6822020882436  0.3087829896589 1.0
C      1  0.6659862880665  0.4264471787198  0.6649487217838 1.0
C      1  0.6840680931446  0.6729969583229  0.4011156617428 1.0
C      1  0.6956121120087  0.2885104948745  0.5933131360882 1.0
C      1  0.6956432096380  0.2886161126757  0.4065825644440 1.0
C      1  0.6840360572163  0.6729179105534  0.5990835199381 1.0
C      1  0.2853529082430  0.2251508966661  0.6569841234248 1.0
C      1  0.2529464700902  0.7769870466647  0.3561477853077 1.0
C      1  0.2529359770621  0.7769722042688  0.6439230340045 1.0
C      1  0.2853920673698  0.2251882102627  0.3429014917773 1.0
C      1  0.3920428259673  0.2718354355007  0.5887920330742 1.0
C      1  0.3566837104313  0.7433428418103  0.4473573195748 1.0
C      1  0.3567025166155  0.7433658615822  0.5527350262704 1.0
C      1  0.3920455980776  0.2718584081307  0.4111301480346 1.0
C      1  0.2644945978321  0.6048414694369  0.5934122869751 1.0
C      1  0.2829331172314  0.3979824015910  0.4014250571532 1.0
C      1  0.2829722599416  0.3979833717340  0.5985872196824 1.0
C      1  0.2644401464964  0.6048226605269  0.4065461244436 1.0
C      1  0.2068631941827  0.5385259361420  0.3780509469023 1.0
C      1  0.2144030067524  0.4549487062989  0.6235949255010 1.0
C      1  0.2143602170492  0.4549278659404  0.3764015055940 1.0
C      1  0.2069102678082  0.5385413295697  0.6218847322310 1.0
C      1  0.4645548909849  0.5650631649115  0.3294444843235 1.0
C      1  0.4991776662091  0.4776265996332  0.6497737041563 1.0
C      1  0.4992115270888  0.4776680144803  0.3501686404361 1.0
C      1  0.4645498261890  0.5649950324839  0.6705822161567 1.0
C      1  0.4485239270525  0.4170211024663  0.6001696676804 1.0
C      1  0.4189389660597  0.6100566255530  0.3952750593697 1.0
C      1  0.4190052528688  0.6100129946623  0.6046807792917 1.0
C      1  0.4484990975779  0.4170245388711  0.3996937290175 1.0
C      1  0.3056203488904  0.3100490959786  0.3868701033022 1.0
C      1  0.2765523185872  0.6966954120150  0.5978887272237 1.0
C      1  0.2765327942346  0.6966682833713  0.4021658366287 1.0
C      1  0.3056620369299  0.3100435020351  0.6131619765457 1.0
C      1  0.3625672894921  0.1123725263642  0.5421297341287 1.0
C      1  0.3197980973567  0.9059800349962  0.4570753764465 1.0
C      1  0.3197306892204  0.9059856623038  0.5429623015539 1.0
C      1  0.3625579195737  0.1123504854730  0.4576827210988 1.0
C      1  0.5718880947896  0.4676157437246  0.8288035965058 1.0
C      1  0.5720185104154  0.4679280707006  0.1710829808406 1.0
END
