TITL C-14788-7911-74 -1.495 3375.00 -248.08833239 0 0 31 (C1) n - 1
REM
REM Run started: at 2021.01.04 19:08:20 in /gpfs/home/chem/mssmkc/CARBON/AIRSS/Generating-Clusters/Str-Search/Higher-Symm/C4-100
REM VASP from code version vasp.5.4.4.18Apr17-6-g9f103f2a35 (build Oct 11 2019 16:45:47) gamma-only
REM
REM
REM
REM
REM ./C.cell (6bd13a13d554368a30d355f37ece5b26)
REM AIRSS Version 0.9.1 bugfix July 2018 build 013d7b7c2542+ Fri, 06 Jul 2018 19:26:36 +0100
REM compiler GCC version 6.3.0
REM options -cpp -iprefix /gpfs/warwick/csc/orac/software/Core/GCCcore/6.3.0/bin/../lib/gcc/x86_64-pc-linux-gnu/6.3.0/ -mtune=generic -march=x86-64 -g -O0
REM seed 1474538122 2114625687 -825144938 546803335 122360252 -452301432 997959422 281584240 -985303461 100793265 -252626198 -1676537780
REM
REM C.POTCAR (d86ddea03c3ceb6dc662c8ad6801f873)
REM 
CELL 1.54180   15.00000   15.00000   15.00000   90.00000   90.00000   90.00000
LATT -1
SFAC C  
C      1  0.5294148511259  0.6832655259439  0.5811899048718 1.0
C      1  0.4695538602552  0.3231019757686  0.5828344015436 1.0
C      1  0.4340071207128  0.6704103063011  0.5632382077145 1.0
C      1  0.4110587120218  0.3264650790084  0.5040013941371 1.0
C      1  0.4226829532723  0.6795473395777  0.4683636948959 1.0
C      1  0.4656088573234  0.2990629164806  0.4259815768026 1.0
C      1  0.5129904133228  0.6861259662103  0.4310441021627 1.0
C      1  0.5594183011155  0.3010236761869  0.4576368200466 1.0
C      1  0.5786211163168  0.6863146020169  0.4976653754194 1.0
C      1  0.5605129018708  0.3071841111746  0.5491137215493 1.0
C      1  0.4856141812674  0.3789379974376  0.3688562474951 1.0
C      1  0.4949247723016  0.6171071351168  0.3673757489152 1.0
C      1  0.5760046382517  0.3872209089687  0.4064316737053 1.0
C      1  0.6332499542080  0.6106723612974  0.5283324879181 1.0
C      1  0.5929713032401  0.3813129490774  0.6028570093630 1.0
C      1  0.5881481735617  0.6147087679301  0.6164773610251 1.0
C      1  0.5032731339443  0.3912680732445  0.6444963965184 1.0
C      1  0.3947496693023  0.6117917994782  0.6257750260391 1.0
C      1  0.3414536657053  0.3868760410299  0.4861623999409 1.0
C      1  0.4020512211503  0.6084474485251  0.3988546979999 1.0
C      1  0.6444778808497  0.5201070729710  0.5017001197629 1.0
C      1  0.6245764542805  0.4667164341128  0.5845794612084 1.0
C      1  0.5735344854335  0.5273010671871  0.6448775103489 1.0
C      1  0.4907015035439  0.4827696788591  0.6694652087556 1.0
C      1  0.4177527090363  0.5411986690689  0.6632118392237 1.0
C      1  0.3241357787138  0.4590767359748  0.4481092250385 1.0
C      1  0.3724282989509  0.5196791195073  0.3939320416585 1.0
C      1  0.4551654519783  0.4698084597165  0.3632693355136 1.0
C      1  0.5346878710535  0.5320385962201  0.3604752299421 1.0
C      1  0.6037711334435  0.4843162896677  0.4169764551816 1.0
C      1  0.5061147324459  0.4574415959403  0.4563206253027 1.0
END
