TITL C-14788-7911-24 -0.599 3375.00 -86.83116616 0 0 12 (C4v) n - 1
REM
REM Run started: at 2021.01.04 09:52:56 in /gpfs/home/chem/mssmkc/CARBON/AIRSS/Generating-Clusters/Str-Search/Higher-Symm/C4-100
REM VASP from code version vasp.5.4.4.18Apr17-6-g9f103f2a35 (build Oct 11 2019 16:45:47) gamma-only
REM
REM
REM
REM
REM ./C.cell (6bd13a13d554368a30d355f37ece5b26)
REM AIRSS Version 0.9.1 bugfix July 2018 build 013d7b7c2542+ Fri, 06 Jul 2018 19:26:36 +0100
REM compiler GCC version 6.3.0
REM options -cpp -iprefix /gpfs/warwick/csc/orac/software/Core/GCCcore/6.3.0/bin/../lib/gcc/x86_64-pc-linux-gnu/6.3.0/ -mtune=generic -march=x86-64 -g -O0
REM seed 83192946 1950172943 -897190021 -309298725 -327444075 -206729695 1015983939 2030688247 -1942609869 -776111143 1397624110 -86816272
REM
REM C.POTCAR (d86ddea03c3ceb6dc662c8ad6801f873)
REM 
CELL 1.54180   15.00000   15.00000   15.00000   90.00000   90.00000   90.00000
LATT -1
SFAC C  
C      1  0.5298969381135  0.7423219015664  0.5128254586159 1.0
C      1  0.2576712423417  0.5299141263314  0.5128358766215 1.0
C      1  0.4700989810555  0.2576852033742  0.5128234889820 1.0
C      1  0.7423216201615  0.4700760739601  0.5128280565562 1.0
C      1  0.5697114952903  0.4923979551581  0.4907843227496 1.0
C      1  0.5075986236412  0.5697108021588  0.4907860747346 1.0
C      1  0.4302834086507  0.5076032091036  0.4907853892465 1.0
C      1  0.4923995811145  0.4302969991117  0.4907740285507 1.0
C      1  0.6585798111095  0.4824819179978  0.4963937595363 1.0
C      1  0.5175149930882  0.6585881838984  0.4963967505352 1.0
C      1  0.3414129294747  0.5175149113556  0.4963947915711 1.0
C      1  0.4825103759586  0.3414087159840  0.4963720023005 1.0
END
