TITL C-14699-4559-9 -8.462 3375.00 -1470.54258226 0 0 180 (C1) n - 1
REM
REM Run started: at 2020.12.24 20:40:55 in /rds/project/t2_vol4/rds-t2-cs072/BORA/CARBON/AIRSS/Generating-Clusters/Str-Search/Higher-Symm/C100-200
REM VASP from code version vasp.5.4.4.18Apr17-6-g9f103f2a35 (build Oct 11 2019 16:45:47) gamma-only
REM
REM
REM
REM
REM ./C.cell (533062f00bc710175b3da973d35f2034)
REM AIRSS Version 0.9.1 bugfix July 2018 build 013d7b7c2542+ Fri, 06 Jul 2018 19:26:36 +0100
REM compiler GCC version 4.8.5 20150623 (Red Hat 4.8.5-39)
REM options -cpp -mtune=generic -march=x86-64 -g -O0
REM seed 52819844 571024773 -771040090 512326911 322525352 -1287976028 -1756993842 -1474519790 -1650181625 -144658115 -1632081005 1842383810
REM
REM C.POTCAR (d86ddea03c3ceb6dc662c8ad6801f873)
REM 
CELL 1.54180   15.00000   15.00000   15.00000   90.00000   90.00000   90.00000
LATT -1
SFAC C  
C      1  0.4564524438283  0.5692912835184  0.1178654880563 1.0
C      1  0.4201155500027  0.4805942382973  0.1186975586920 1.0
C      1  0.4929673547113  0.4180738867854  0.1188291457512 1.0
C      1  0.5744833724931  0.4680420755221  0.1191257179442 1.0
C      1  0.5517184568836  0.5613846799797  0.1185380203619 1.0
C      1  0.4113251230684  0.7456000324543  0.8080144707772 1.0
C      1  0.2400241931658  0.4921480123753  0.8069433877238 1.0
C      1  0.4271860184304  0.2518802477116  0.8073937989727 1.0
C      1  0.7146454628237  0.3547851694109  0.8072979036263 1.0
C      1  0.7045778379449  0.6606284439479  0.8050944326022 1.0
C      1  0.6679831765233  0.3807516609493  0.2355024509152 1.0
C      1  0.6634810655480  0.6227376752175  0.2351946264353 1.0
C      1  0.4349041006229  0.6950663269347  0.2343153334495 1.0
C      1  0.2934611904635  0.4965107295536  0.2344646116854 1.0
C      1  0.4393144707158  0.3019833862912  0.2354599269127 1.0
C      1  0.7646579906740  0.7232162816653  0.2958312763111 1.0
C      1  0.3710336364510  0.8204567736250  0.2991050088691 1.0
C      1  0.1536582273291  0.4723967113831  0.2971686571925 1.0
C      1  0.4190414016290  0.1617947956421  0.2977560585624 1.0
C      1  0.7952731449855  0.3175539398691  0.2975446496206 1.0
C      1  0.6501819859098  0.4115653201249  0.5362323274605 1.0
C      1  0.6307525461975  0.6162071201185  0.5367721177455 1.0
C      1  0.4271546634868  0.6585977440449  0.5389579171120 1.0
C      1  0.3265800964544  0.4834376214526  0.5348748973853 1.0
C      1  0.4621722396220  0.3300264628308  0.5358978796182 1.0
C      1  0.7679300904527  0.7514117210343  0.5275588617071 1.0
C      1  0.3423427016854  0.8292777371577  0.5305234936156 1.0
C      1  0.1367662043835  0.4519208517738  0.5293285521654 1.0
C      1  0.4339496766941  0.1399892203015  0.5299251274791 1.0
C      1  0.8220087043343  0.3260248682549  0.5295332327373 1.0
C      1  0.5520121607266  0.2758860159911  0.3809003246791 1.0
C      1  0.7281167927897  0.4800132906102  0.3808255844909 1.0
C      1  0.5894418412423  0.7108410912075  0.3816065378827 1.0
C      1  0.3266784737349  0.6495518778174  0.3796153796841 1.0
C      1  0.3034377581971  0.3808232038318  0.3802204844615 1.0
C      1  0.5434306384464  0.8188924841174  0.6064427501589 1.0
C      1  0.2131485750055  0.6369587887162  0.6085310494681 1.0
C      1  0.2811792746323  0.2702150543149  0.6090764814820 1.0
C      1  0.6512174369931  0.2211824971947  0.6095534961823 1.0
C      1  0.8123586187555  0.5572798561220  0.6089757578985 1.0
C      1  0.6493561888220  0.5828908009254  0.6325436125873 1.0
C      1  0.4654347239225  0.6703959986257  0.6340940921384 1.0
C      1  0.3312124324809  0.5215558242824  0.6315440937543 1.0
C      1  0.4280612737740  0.3461609718666  0.6325237429346 1.0
C      1  0.6249525723214  0.3843754471840  0.6329751888588 1.0
C      1  0.7321123885467  0.5519374729411  0.6611791343825 1.0
C      1  0.5207449003099  0.7394156550816  0.6594931673608 1.0
C      1  0.2818219671659  0.5947374041689  0.6605360483499 1.0
C      1  0.3429799214833  0.3224255231688  0.6608638280325 1.0
C      1  0.6210053211313  0.2961912211038  0.6613881248193 1.0
C      1  0.7473085283984  0.2068608787450  0.7204558141253 1.0
C      1  0.8562289290249  0.6450139850775  0.7201023484867 1.0
C      1  0.4685757476896  0.8866765326888  0.7205457058507 1.0
C      1  0.1258664829895  0.5926385285538  0.7216137776487 1.0
C      1  0.2968893247002  0.1746080899587  0.7207317722875 1.0
C      1  0.5753122698227  0.5451888933480  0.6856987318640 1.0
C      1  0.4814654118481  0.5870793744941  0.6862384813553 1.0
C      1  0.4131898537888  0.5098920739753  0.6852575041771 1.0
C      1  0.4649658233454  0.4211301073309  0.6856360527415 1.0
C      1  0.5652669691195  0.4429326156259  0.6860490715934 1.0
C      1  0.4892616567868  0.7024490618670  0.4796671856505 1.0
C      1  0.2886367064355  0.5586178106233  0.4826096466519 1.0
C      1  0.3786816142437  0.3184919511689  0.4834905248586 1.0
C      1  0.6347877895945  0.3287013044272  0.4838035143915 1.0
C      1  0.7046100382332  0.5760329470056  0.4835428674806 1.0
C      1  0.4045613550861  0.8328167647035  0.7584446749477 1.0
C      1  0.1550202894413  0.5146245492150  0.7579292285340 1.0
C      1  0.3795100276458  0.1777241054978  0.7582974050937 1.0
C      1  0.7699550809029  0.2863630086373  0.7578732008179 1.0
C      1  0.7870058173268  0.6916714024523  0.7562631178807 1.0
C      1  0.3150035243528  0.5469353853063  0.8101755240720 1.0
C      1  0.3983371941013  0.3401154527789  0.8102480383525 1.0
C      1  0.6218729166870  0.3547978423549  0.8105711455788 1.0
C      1  0.6763644656185  0.5722385283282  0.8099885504741 1.0
C      1  0.4872330407800  0.6920378103825  0.8095209249538 1.0
C      1  0.4860709176199  0.5920504034691  0.7922145260436 1.0
C      1  0.4094239192117  0.5160267971389  0.7923992355291 1.0
C      1  0.4577544498616  0.4200403105368  0.7924829865839 1.0
C      1  0.5641594764591  0.4360985476879  0.7927475209341 1.0
C      1  0.5814946441418  0.5422762673986  0.7927191575347 1.0
C      1  0.7490114080329  0.7616693949784  0.6089253142269 1.0
C      1  0.3264872425269  0.8151240904090  0.6115394700259 1.0
C      1  0.1461443384622  0.4338390561686  0.6108613877716 1.0
C      1  0.4542250440295  0.1439276823287  0.6113788618749 1.0
C      1  0.8249562049059  0.3468843492111  0.6109108165402 1.0
C      1  0.6857435516928  0.1789356259789  0.3714526395723 1.0
C      1  0.8620652127122  0.5762539163524  0.3699504401365 1.0
C      1  0.5414226243341  0.8670191019663  0.3742547906181 1.0
C      1  0.1613579391044  0.6499242048118  0.3693222448323 1.0
C      1  0.2526025036746  0.2236301914320  0.3708653590412 1.0
C      1  0.7979350139458  0.5350116470703  0.5172659345435 1.0
C      1  0.5794707890288  0.8014539010172  0.5238547571754 1.0
C      1  0.2373664516689  0.6458825663115  0.5164945708369 1.0
C      1  0.2790622161363  0.2963523672180  0.5174307264817 1.0
C      1  0.6253231235578  0.2271141213973  0.5180010013441 1.0
C      1  0.2778341012501  0.5523286056232  0.3836006212245 1.0
C      1  0.3811170965817  0.3046959469497  0.3845681786659 1.0
C      1  0.6483092376940  0.3263096099334  0.3848612850842 1.0
C      1  0.7102112740859  0.5869797414029  0.3844695161023 1.0
C      1  0.4823084951195  0.7238694695469  0.3850478094201 1.0
C      1  0.1305813457716  0.6454133271501  0.6541266013239 1.0
C      1  0.2457108113293  0.1946174285343  0.6546499105201 1.0
C      1  0.7120735482456  0.1637106046651  0.6548498277717 1.0
C      1  0.8852604584218  0.5983156332318  0.6541923415478 1.0
C      1  0.5185878064656  0.8990322450455  0.6534801326273 1.0
C      1  0.2496639892273  0.7175107739136  0.3697101260433 1.0
C      1  0.2154316631187  0.3279282233671  0.3701400846513 1.0
C      1  0.5756052143018  0.1757443843689  0.3708758674895 1.0
C      1  0.8305730000116  0.4710485667776  0.3701402641750 1.0
C      1  0.6305653433653  0.8045392233167  0.3686289899966 1.0
C      1  0.7209290957832  0.6958448259312  0.2203808039772 1.0
C      1  0.3841941277986  0.7733895972372  0.2219388812032 1.0
C      1  0.2040461097215  0.4695094812562  0.2210951884318 1.0
C      1  0.4373418653996  0.2087964095214  0.2215392047621 1.0
C      1  0.7556040825673  0.3490398245255  0.2214445470299 1.0
C      1  0.2215005062013  0.2629485900050  0.4454717778930 1.0
C      1  0.6391547847017  0.1617077222822  0.4463643430340 1.0
C      1  0.8640891025299  0.5273652775610  0.4453354166537 1.0
C      1  0.5940220655512  0.8551098292099  0.4465021208624 1.0
C      1  0.1888374811068  0.6912034361641  0.4442184719300 1.0
C      1  0.3347031676617  0.7952786280982  0.7030344525067 1.0
C      1  0.1678885520757  0.4353443229875  0.7020646760051 1.0
C      1  0.4589593109011  0.1657884361051  0.7024629707486 1.0
C      1  0.8060443312074  0.3583523221537  0.7021452833095 1.0
C      1  0.7309487633621  0.7484703693014  0.6998868749806 1.0
C      1  0.4645028491917  0.5703800455709  0.3325021341480 1.0
C      1  0.4211874918589  0.4877891394075  0.3355611952210 1.0
C      1  0.4869061570610  0.4205965977948  0.3352773639128 1.0
C      1  0.5695240921619  0.4616010215061  0.3359483191554 1.0
C      1  0.5558752180033  0.5549602275214  0.3355555020345 1.0
C      1  0.4687892611062  0.3248102549984  0.3339644894955 1.0
C      1  0.6557488066661  0.4159454149505  0.3343852695898 1.0
C      1  0.6269372258154  0.6219772123699  0.3348382606298 1.0
C      1  0.4224595123922  0.6580108143238  0.3315879997309 1.0
C      1  0.3245795056826  0.4750332276891  0.3335650550032 1.0
C      1  0.3430447376066  0.7058324681584  0.1615661625657 1.0
C      1  0.2573125213678  0.4106974696591  0.1620029753205 1.0
C      1  0.5098680979315  0.2416901740716  0.1624140011039 1.0
C      1  0.7474403203102  0.4276451718875  0.1617697544972 1.0
C      1  0.6429936186835  0.7132809527271  0.1619332576394 1.0
C      1  0.4685801058347  0.5720942945001  0.5138352638602 1.0
C      1  0.4217175309890  0.4921010685622  0.5097150213503 1.0
C      1  0.4834677950631  0.4237248287201  0.5137271286886 1.0
C      1  0.5675149932179  0.4607405366209  0.5150630983711 1.0
C      1  0.5585992231461  0.5526888491108  0.5155819923752 1.0
C      1  0.8415592473445  0.3688385391197  0.3632575598914 1.0
C      1  0.7310504783628  0.7832700867472  0.3612319060583 1.0
C      1  0.3022806356360  0.8064864250344  0.3640514488900 1.0
C      1  0.1463039913210  0.4043479566848  0.3634459822722 1.0
C      1  0.4816815607642  0.1337121077663  0.3639077976625 1.0
C      1  0.7749242210626  0.7383527174969  0.4356020242756 1.0
C      1  0.3580129150368  0.8330759565761  0.4385450759044 1.0
C      1  0.1376289598416  0.4666702902414  0.4371462969576 1.0
C      1  0.4198493791155  0.1447433094634  0.4377390008958 1.0
C      1  0.8123925536268  0.3136845773689  0.4374335547511 1.0
C      1  0.7180869640785  0.4769635208814  0.4888976617049 1.0
C      1  0.5869597668227  0.7036889798458  0.4915465793355 1.0
C      1  0.3358966978731  0.6462334966702  0.4884808710452 1.0
C      1  0.3095971396017  0.3901671995239  0.4884868144380 1.0
C      1  0.5453205246911  0.2850023439178  0.4890543899242 1.0
C      1  0.3533911105239  0.2008988776301  0.3679642363273 1.0
C      1  0.7383244737007  0.2676472499907  0.3682446507393 1.0
C      1  0.7944433238005  0.6539344529358  0.3666593101773 1.0
C      1  0.4453421964390  0.8264478319716  0.3717504459322 1.0
C      1  0.1706236509196  0.5469671208571  0.3668023898483 1.0
C      1  0.7636383772696  0.4276335466220  0.7618194934928 1.0
C      1  0.6508626012243  0.7297200410025  0.7589892498621 1.0
C      1  0.3292479285937  0.7139275336172  0.7620570474185 1.0
C      1  0.2433311685737  0.4044983330924  0.7613148985858 1.0
C      1  0.5116872158475  0.2278237213922  0.7618651329487 1.0
C      1  0.5857850481589  0.2810823015517  0.7521708771318 1.0
C      1  0.7356265555523  0.5146347778366  0.7521984838097 1.0
C      1  0.5594311299930  0.7307188051765  0.7499245079059 1.0
C      1  0.3007595029707  0.6275701964283  0.7518414343176 1.0
C      1  0.3172808166054  0.3511746384484  0.7515218496079 1.0
C      1  0.4160477957903  0.6489030486818  0.1501314890308 1.0
C      1  0.3324463585194  0.4655129459830  0.1507391927568 1.0
C      1  0.4804404104754  0.3300007757094  0.1514863202044 1.0
C      1  0.6543152745409  0.4287558356733  0.1516619048417 1.0
C      1  0.6134497126070  0.6248795868162  0.1515469437807 1.0
END
