TITL C-14788-7911-17 -0.222 3375.00 -33.25063074 0 0 5 (C2v) n - 1
REM
REM Run started: at 2021.01.04 08:57:15 in /gpfs/home/chem/mssmkc/CARBON/AIRSS/Generating-Clusters/Str-Search/Higher-Symm/C4-100
REM VASP from code version vasp.5.4.4.18Apr17-6-g9f103f2a35 (build Oct 11 2019 16:45:47) gamma-only
REM
REM
REM
REM
REM ./C.cell (6bd13a13d554368a30d355f37ece5b26)
REM AIRSS Version 0.9.1 bugfix July 2018 build 013d7b7c2542+ Fri, 06 Jul 2018 19:26:36 +0100
REM compiler GCC version 6.3.0
REM options -cpp -iprefix /gpfs/warwick/csc/orac/software/Core/GCCcore/6.3.0/bin/../lib/gcc/x86_64-pc-linux-gnu/6.3.0/ -mtune=generic -march=x86-64 -g -O0
REM seed 254981066 -796515179 -797704093 1482524671 -753890748 -1717039457 -95744899 872699637 462212205 -519372102 1362068506 1558857588
REM
REM C.POTCAR (d86ddea03c3ceb6dc662c8ad6801f873)
REM 
CELL 1.54180   15.00000   15.00000   15.00000   90.00000   90.00000   90.00000
LATT -1
SFAC C  
C      1  0.4527606290568  0.4548666547944  0.4999994072378 1.0
C      1  0.4575205168997  0.5500222744327  0.5000003488103 1.0
C      1  0.5305287239595  0.6048211698718  0.4999990476085 1.0
C      1  0.5407210846293  0.4981729489013  0.5000007948493 1.0
C      1  0.5184689454547  0.3921168519997  0.5000004014941 1.0
END
