TITL C-141225-8424-7 -9.305 3375.00 -1473.35836701 0 0 180 (C1) n - 1
REM
REM Run started: at 2020.12.23 14:35:17 in /rds/project/t2_vol4/rds-t2-cs072/BORA/CARBON/AIRSS/Generating-Clusters/Str-Search/Higher-Symm/Only-C180
REM VASP from code version vasp.5.4.4.18Apr17-6-g9f103f2a35 (build Oct 11 2019 16:45:47) gamma-only
REM
REM
REM
REM
REM ./C.cell (f712cfaf3acf65fd2d5dcba0fd1fd40b)
REM AIRSS Version 0.9.1 bugfix July 2018 build 013d7b7c2542+ Fri, 06 Jul 2018 19:26:36 +0100
REM compiler GCC version 4.8.5 20150623 (Red Hat 4.8.5-39)
REM options -cpp -mtune=generic -march=x86-64 -g -O0
REM seed 6890113 -1919990706 -1238680476 1657086087 -189131149 -1211412923 1452848287 381440475 -483217414 1955913632 1066452582 -1824410805
REM
REM C.POTCAR (d86ddea03c3ceb6dc662c8ad6801f873)
REM 
CELL 1.54180   15.00000   15.00000   15.00000   90.00000   90.00000   90.00000
LATT -1
SFAC C  
C      1  0.5847463071571  0.3702903020927  0.5227174443163 1.0
C      1  0.5560543019259  0.6577523498623  0.5168634001706 1.0
C      1  0.3154675410916  0.5222597583931  0.5401269484452 1.0
C      1  0.7815643542297  0.3393789280790  0.4438084009627 1.0
C      1  0.4954363865031  0.8450888247828  0.4396621298013 1.0
C      1  0.1998167666253  0.3494674281770  0.4258613088374 1.0
C      1  0.7344821792778  0.2779861558287  0.7946127895900 1.0
C      1  0.5500945984510  0.7508056295973  0.8242035554640 1.0
C      1  0.1916508010586  0.3797562105838  0.7849712771943 1.0
C      1  0.7008904859062  0.6563832566980  0.6953730603203 1.0
C      1  0.2649260822874  0.5815367920692  0.7015987240618 1.0
C      1  0.5547224933769  0.2086991890305  0.6333803390009 1.0
C      1  0.2932446518282  0.2306522493162  0.7098452143891 1.0
C      1  0.8246759318327  0.4615012121128  0.7270091543139 1.0
C      1  0.3822320025810  0.7496688675338  0.7539534408650 1.0
C      1  0.4317997950825  0.9172904860067  0.4237785795141 1.0
C      1  0.2023034188241  0.2468808628271  0.4605910225178 1.0
C      1  0.8661683129510  0.3851732020023  0.4901572664196 1.0
C      1  0.4508338371045  0.5862819800518  0.7977528216098 1.0
C      1  0.3906448156423  0.3520694284970  0.8145662050737 1.0
C      1  0.6877770667182  0.4918695800276  0.8507911142761 1.0
C      1  0.5352886198662  0.7154090500807  0.9944843051277 1.0
C      1  0.3019475754759  0.3862507174853  0.0475165133921 1.0
C      1  0.7037998542824  0.4068452120697  0.0087082570018 1.0
C      1  0.3945539619667  0.4587379157695  0.5297309930026 1.0
C      1  0.6025934913992  0.4650180921548  0.5295296137754 1.0
C      1  0.4658510002249  0.6228755249498  0.5317853955058 1.0
C      1  0.4204651246867  0.8123533728744  0.6102596034080 1.0
C      1  0.2437393360916  0.2822999447880  0.5558650286359 1.0
C      1  0.8139133425273  0.3954316663203  0.5815631595539 1.0
C      1  0.5417137307733  0.3324338599788  0.2217408903551 1.0
C      1  0.6409165991940  0.6198555824132  0.2302785480639 1.0
C      1  0.3503901361763  0.5717849662797  0.2270768840297 1.0
C      1  0.4473388621796  0.7912830496672  0.7028862883596 1.0
C      1  0.2296016356778  0.2792346115375  0.6577049927427 1.0
C      1  0.8277776788087  0.3789284021906  0.6831966059913 1.0
C      1  0.4340382542028  0.4513653941009  0.1597035616731 1.0
C      1  0.5955477810351  0.4707394456307  0.1687259138521 1.0
C      1  0.5001169601083  0.5999532190755  0.1618771696129 1.0
C      1  0.7223548518828  0.2627781344571  0.4039954902789 1.0
C      1  0.5906657090448  0.8241648798265  0.4093014491255 1.0
C      1  0.1730570387452  0.4446123284618  0.3909844339453 1.0
C      1  0.3883126051801  0.2315479847043  0.4660200076346 1.0
C      1  0.7645683315852  0.5350202650183  0.5005879544049 1.0
C      1  0.3197345308698  0.7657351518859  0.4775183741888 1.0
C      1  0.2586994336199  0.6851331455276  0.4740354443604 1.0
C      1  0.4884180652354  0.2323150989293  0.4689267130502 1.0
C      1  0.7250736570672  0.6298770856935  0.4994075693027 1.0
C      1  0.6852236448396  0.2131683197925  0.7325461514339 1.0
C      1  0.6942131226979  0.7539527292869  0.6952270182646 1.0
C      1  0.1797689693331  0.5310786852042  0.6887114540985 1.0
C      1  0.5523027728871  0.7394605934611  0.5513398924334 1.0
C      1  0.2440857582009  0.4540572863601  0.5617567656392 1.0
C      1  0.6553549770036  0.3246749330899  0.5571421450121 1.0
C      1  0.3446160592262  0.5618524631945  0.6346146677438 1.0
C      1  0.4926446499343  0.2837728477576  0.6661410774241 1.0
C      1  0.6529768948916  0.5703973209099  0.6716591119785 1.0
C      1  0.1906258798913  0.3599859647497  0.6945217080227 1.0
C      1  0.7926851954575  0.2970546626316  0.7139479992764 1.0
C      1  0.5406125070750  0.7825200360434  0.7373071981947 1.0
C      1  0.5919664443186  0.4384287535135  0.6846610513979 1.0
C      1  0.4834116442069  0.5655733165066  0.6985766893106 1.0
C      1  0.4167739934085  0.4241915932253  0.6105691217504 1.0
C      1  0.5663220774129  0.7587341057033  0.3374434802194 1.0
C      1  0.2550588557350  0.4513590747451  0.3368224173151 1.0
C      1  0.6855933395756  0.3237192342169  0.3332869973123 1.0
C      1  0.8749493673005  0.4866109483295  0.3557036295965 1.0
C      1  0.3475799652266  0.8604926595148  0.2972070327530 1.0
C      1  0.2851492145363  0.2045160410713  0.3148959956676 1.0
C      1  0.3512069729166  0.9084131782016  0.3886205420689 1.0
C      1  0.2483532488353  0.1871184326092  0.4061875627808 1.0
C      1  0.8969798482158  0.4611670269877  0.4491962340630 1.0
C      1  0.4601564785185  0.2821936140778  0.2484671987313 1.0
C      1  0.7187391734487  0.5682905600189  0.2624748480128 1.0
C      1  0.3549436379461  0.6668230512700  0.2488478203934 1.0
C      1  0.6926201294474  0.2048815641886  0.4760197100634 1.0
C      1  0.6514232473959  0.8267542077376  0.4876259013441 1.0
C      1  0.1339255038991  0.4985614480971  0.4661790271597 1.0
C      1  0.3738429870739  0.3248678303236  0.2454423320185 1.0
C      1  0.7452308533005  0.4803398585448  0.2387862644188 1.0
C      1  0.4195622847205  0.7282702212049  0.2197791314892 1.0
C      1  0.2810145757813  0.7973415229019  0.3275603833476 1.0
C      1  0.3727720867792  0.1633889343384  0.3254892179447 1.0
C      1  0.8479200608777  0.5723635662169  0.3814813725758 1.0
C      1  0.7143169270709  0.4971819183556  0.4158594268355 1.0
C      1  0.3929729503568  0.7177431450040  0.4069351441118 1.0
C      1  0.3575022003071  0.3310257035682  0.4389107910457 1.0
C      1  0.7026049275563  0.4019108047741  0.0914934492124 1.0
C      1  0.5258030652051  0.7215329474604  0.0771389263089 1.0
C      1  0.3567334789083  0.4118662317219  0.1088887363987 1.0
C      1  0.2518692227016  0.4208511377737  0.8273361231663 1.0
C      1  0.7141142472409  0.3333042133589  0.8613372602143 1.0
C      1  0.5431366563006  0.6970323395053  0.8974960047831 1.0
C      1  0.2939238200101  0.7374462073148  0.7241723884222 1.0
C      1  0.3619499574992  0.1699930386973  0.6758564130050 1.0
C      1  0.8159342666121  0.5363012233305  0.6556190573571 1.0
C      1  0.5788443755825  0.5297857406309  0.7246094352519 1.0
C      1  0.4055146277264  0.4918080973600  0.6838549135190 1.0
C      1  0.5316348870416  0.3703960123688  0.7151782672107 1.0
C      1  0.5867214485311  0.5629970130805  0.1710680069185 1.0
C      1  0.4251553342037  0.5481192817227  0.1701403863537 1.0
C      1  0.5225708797437  0.4120534434323  0.1715209192135 1.0
C      1  0.7001762224897  0.4073210716670  0.9113822034091 1.0
C      1  0.5359846857442  0.6020451982913  0.8554548168352 1.0
C      1  0.3411463899599  0.4301391698123  0.8392874424698 1.0
C      1  0.6371581083922  0.3396976933651  0.2514902825663 1.0
C      1  0.5870762902401  0.7001798851774  0.2552332235130 1.0
C      1  0.3100222119269  0.4893783367950  0.2636644452831 1.0
C      1  0.2982083373472  0.2934362394249  0.2941720259747 1.0
C      1  0.8080244774781  0.4393128902618  0.3018607035270 1.0
C      1  0.4229749441988  0.8089352059978  0.2756867128791 1.0
C      1  0.7493606035235  0.5807840152992  0.3552220138532 1.0
C      1  0.3138967906178  0.7016240092254  0.3312195320558 1.0
C      1  0.4555051556239  0.2030138594762  0.3035518087693 1.0
C      1  0.3811936494664  0.6571716951609  0.7995084407160 1.0
C      1  0.3618617791873  0.2719903170098  0.7757873292714 1.0
C      1  0.7563189407498  0.5056543562392  0.7880199931114 1.0
C      1  0.6579415679660  0.4831582264195  0.6108933720557 1.0
C      1  0.4353282751173  0.6090039692344  0.6182473960162 1.0
C      1  0.4368523647149  0.3289689496142  0.5900003410774 1.0
C      1  0.7634992318749  0.7138358522114  0.5388603551893 1.0
C      1  0.1759837054443  0.6643857781372  0.5210067369279 1.0
C      1  0.5368985882450  0.1648704154855  0.5429321788439 1.0
C      1  0.8639455467451  0.5517735492851  0.4861423480454 1.0
C      1  0.2861837835779  0.8382660088517  0.4145290700635 1.0
C      1  0.3414911047590  0.1605738759487  0.4193915685973 1.0
C      1  0.7385180722668  0.7412850920097  0.3839163539245 1.0
C      1  0.1655689516727  0.6207852641452  0.3675345633597 1.0
C      1  0.5775342079703  0.1242647934219  0.3879897824142 1.0
C      1  0.6307285181791  0.6190954332332  0.4696503118103 1.0
C      1  0.3125616640626  0.5980320193807  0.4663042204407 1.0
C      1  0.4971218994240  0.3328583840217  0.5025765178187 1.0
C      1  0.6206944884848  0.1395427552374  0.4845502560702 1.0
C      1  0.7382425163043  0.7912477371032  0.4787807576763 1.0
C      1  0.1277479697225  0.5939260157238  0.4623799718803 1.0
C      1  0.2953706233784  0.6458164091512  0.7681855260262 1.0
C      1  0.4230907681465  0.2327156149581  0.7178708503317 1.0
C      1  0.7467841630752  0.5755781161594  0.7202068859058 1.0
C      1  0.5060004600834  0.6977995396739  0.1768119051568 1.0
C      1  0.3595715297477  0.4157409220632  0.2146849294220 1.0
C      1  0.6787358783343  0.4200933796873  0.1891400562647 1.0
C      1  0.7603674918118  0.7161829744622  0.6372360016095 1.0
C      1  0.1775465998768  0.6155286700544  0.6635589630755 1.0
C      1  0.6068759757907  0.1835749016491  0.7018711405425 1.0
C      1  0.2817750782731  0.3567150648439  0.3695544015224 1.0
C      1  0.7442699316880  0.4021837888093  0.3720947296806 1.0
C      1  0.4676507983123  0.7750492208077  0.3624729644555 1.0
C      1  0.5971717702979  0.8232688716955  0.5744149046000 1.0
C      1  0.1434616345196  0.4403793778879  0.5458107355468 1.0
C      1  0.7201709158779  0.2467244356275  0.5642004059264 1.0
C      1  0.7458578794898  0.2354586217875  0.6593708195887 1.0
C      1  0.6161954217879  0.7994496176790  0.6739341154270 1.0
C      1  0.1771689901005  0.4462499039829  0.6404771885332 1.0
C      1  0.4700430188462  0.3980493793335  0.7844418989010 1.0
C      1  0.6012159247106  0.5416856126976  0.8270484819092 1.0
C      1  0.4119285095089  0.4854892115354  0.7895299601847 1.0
C      1  0.5178371266885  0.1923988655968  0.3780822229946 1.0
C      1  0.7061951467463  0.6538588944283  0.4035790551259 1.0
C      1  0.2573538834964  0.6405526591383  0.3850903728759 1.0
C      1  0.0789666296179  0.6311758898247  0.3702412192428 1.0
C      1  0.6041593597343  0.0528962204607  0.4363018821493 1.0
C      1  0.7940767223490  0.8077147008822  0.3913560711999 1.0
C      1  0.7473053345729  0.3386302755334  0.5379344204420 1.0
C      1  0.4959343307888  0.8182969351881  0.5447227272166 1.0
C      1  0.2140109559397  0.3715640710171  0.5211909579029 1.0
C      1  0.4625928938337  0.4628510376808  0.3909664533023 1.0
C      1  0.5390428720230  0.5142804986086  0.3904369765037 1.0
C      1  0.4563206036558  0.5571202030880  0.3913887781385 1.0
C      1  0.2668057917597  0.7496441376278  0.6359684920632 1.0
C      1  0.3927821751993  0.1143729131932  0.6084216401186 1.0
C      1  0.8703230356782  0.5962870680159  0.5871845935747 1.0
C      1  0.8421469306537  0.6837436018191  0.5938824828627 1.0
C      1  0.1878250974608  0.6914930453400  0.6083112455992 1.0
C      1  0.4659693000863  0.1009093476164  0.5693664287091 1.0
C      1  0.6193504685027  0.5209834367587  0.4464340200555 1.0
C      1  0.4082227913365  0.6248287222035  0.4479221082141 1.0
C      1  0.4298599100216  0.3965439462832  0.4547044067237 1.0
C      1  0.7613715792347  0.4842459907257  0.5866830715888 1.0
C      1  0.3355769018241  0.7863911503627  0.5765937000439 1.0
C      1  0.3470456583851  0.2884228104655  0.5344022741925 1.0
END
