TITL C-14788-7911-26 -2.983 3375.00 -516.06247473 0 0 63 (C1) n - 1
REM
REM Run started: at 2021.01.04 10:09:08 in /gpfs/home/chem/mssmkc/CARBON/AIRSS/Generating-Clusters/Str-Search/Higher-Symm/C4-100
REM VASP from code version vasp.5.4.4.18Apr17-6-g9f103f2a35 (build Oct 11 2019 16:45:47) gamma-only
REM
REM
REM
REM
REM ./C.cell (6bd13a13d554368a30d355f37ece5b26)
REM AIRSS Version 0.9.1 bugfix July 2018 build 013d7b7c2542+ Fri, 06 Jul 2018 19:26:36 +0100
REM compiler GCC version 6.3.0
REM options -cpp -iprefix /gpfs/warwick/csc/orac/software/Core/GCCcore/6.3.0/bin/../lib/gcc/x86_64-pc-linux-gnu/6.3.0/ -mtune=generic -march=x86-64 -g -O0
REM seed 199564125 22638391 1370569531 1826209649 -466269881 739308720 -390883018 785737418 1627751676 1379582935 -160880207 1443944116
REM
REM C.POTCAR (d86ddea03c3ceb6dc662c8ad6801f873)
REM 
CELL 1.54180   15.00000   15.00000   15.00000   90.00000   90.00000   90.00000
LATT -1
SFAC C  
C      1  0.6766717992984  0.3605518610327  0.4118133532557 1.0
C      1  0.6941733586687  0.3866654826995  0.7315781054315 1.0
C      1  0.3664370038626  0.3916271484039  0.7412259660660 1.0
C      1  0.2086595557261  0.3712019953578  0.4511951499380 1.0
C      1  0.4424178563091  0.3857779370584  0.2176950271537 1.0
C      1  0.4348675502058  0.3255160574070  0.4287536633670 1.0
C      1  0.5257447850881  0.3170131045512  0.3887376530687 1.0
C      1  0.5966445109033  0.3164435292925  0.5413551435561 1.0
C      1  0.5118424251254  0.3316876720819  0.5872067513163 1.0
C      1  0.4280042355368  0.3323359797486  0.5313518786908 1.0
C      1  0.3494520582707  0.5774227667398  0.6650490822826 1.0
C      1  0.3244715613856  0.5750266963279  0.4254505348460 1.0
C      1  0.5178020522043  0.5840909137888  0.2900941419651 1.0
C      1  0.7054848987151  0.5734140716695  0.4509016411970 1.0
C      1  0.6005194057667  0.5965459143960  0.6856127560226 1.0
C      1  0.5661745091536  0.5090588541467  0.2545293817901 1.0
C      1  0.7391694480433  0.4935293987234  0.5017261322732 1.0
C      1  0.5789598201608  0.5170030797691  0.7300543487421 1.0
C      1  0.2953060758741  0.5001636592024  0.6450285264291 1.0
C      1  0.2985786128112  0.5042192210868  0.3641227818069 1.0
C      1  0.3905478423971  0.6377428299236  0.3815992365725 1.0
C      1  0.5763223874485  0.6280279888497  0.3546131306793 1.0
C      1  0.6748119672643  0.6375561319864  0.5146830707174 1.0
C      1  0.5054968137587  0.6323301322336  0.6622062072064 1.0
C      1  0.3518196448497  0.6273118595921  0.5734121623346 1.0
C      1  0.6080927900299  0.4253722292688  0.7007332593094 1.0
C      1  0.3325217517464  0.4093106515599  0.6551406255183 1.0
C      1  0.2880466269446  0.4143544363154  0.4083583820932 1.0
C      1  0.5226962933996  0.4235232744512  0.2466183634605 1.0
C      1  0.7192433218330  0.3996372485408  0.4854556916486 1.0
C      1  0.2756894267316  0.4160910962970  0.5105976247017 1.0
C      1  0.3873487829859  0.4073311381726  0.2886652295437 1.0
C      1  0.6490717465780  0.4032331759228  0.3332032830158 1.0
C      1  0.6921126054587  0.4226872093202  0.6381348648156 1.0
C      1  0.4562279089831  0.4171982813850  0.7295534445770 1.0
C      1  0.6578135517668  0.5722166821980  0.3664684854543 1.0
C      1  0.6582624810138  0.5812039179461  0.5998523637556 1.0
C      1  0.4340840426519  0.5809636876239  0.7151421507591 1.0
C      1  0.2813424861884  0.5861422999086  0.5145781598709 1.0
C      1  0.4226780280767  0.5850619192287  0.3065672679440 1.0
C      1  0.6469552112070  0.4965695257943  0.3075256318760 1.0
C      1  0.7216701986674  0.5061732089414  0.5941945814260 1.0
C      1  0.4837551646017  0.5087541552082  0.7517227535672 1.0
C      1  0.2594100112202  0.5053358529563  0.5554242484701 1.0
C      1  0.3641937392873  0.5039624844056  0.2988787528054 1.0
C      1  0.5777744539392  0.5347221740408  0.5510687073851 1.0
C      1  0.5009029084435  0.5649001406508  0.5878119121875 1.0
C      1  0.4204654895252  0.5572163288153  0.5475278045593 1.0
C      1  0.4088604603389  0.5220595458690  0.4652394939069 1.0
C      1  0.4861887920301  0.4835261329911  0.4351843781401 1.0
C      1  0.5624449596795  0.3654182337869  0.3113356903246 1.0
C      1  0.6785687367915  0.3605012059464  0.5650566762191 1.0
C      1  0.5220175955908  0.3796252537896  0.6707857623902 1.0
C      1  0.3479195496667  0.3729177160968  0.5667095254047 1.0
C      1  0.3654472457740  0.3622109948493  0.3727768195745 1.0
C      1  0.4451918731733  0.6918339083715  0.4415858815630 1.0
C      1  0.5421445608467  0.6840239449376  0.4244360916272 1.0
C      1  0.6048755147264  0.7021913250537  0.4977403196552 1.0
C      1  0.4864831556336  0.7152043448605  0.6000845219476 1.0
C      1  0.4156013307218  0.7021350158700  0.5378375680580 1.0
C      1  0.5692182826208  0.7449023606812  0.5722531581589 1.0
C      1  0.6000750704674  0.3074342463320  0.4461053924091 1.0
C      1  0.5612109718308  0.4867247655434  0.4748562051677 1.0
END
