TITL C-14430-655-22 -6.923 3375.00 -1178.13218055 0 0 145 (C1) n - 1
REM
REM Run started: at 2020.12.27 16:37:44 in /gpfs/home/chem/mssmkc/CARBON/AIRSS/Generating-Clusters/Str-Search/Higher-Symm/C100-200
REM VASP from code version vasp.5.4.4.18Apr17-6-g9f103f2a35 (build Oct 11 2019 16:45:47) gamma-only
REM
REM
REM
REM
REM ./C.cell (533062f00bc710175b3da973d35f2034)
REM AIRSS Version 0.9.1 bugfix July 2018 build 013d7b7c2542+ Fri, 06 Jul 2018 19:26:36 +0100
REM compiler GCC version 6.3.0
REM options -cpp -iprefix /gpfs/warwick/csc/orac/software/Core/GCCcore/6.3.0/bin/../lib/gcc/x86_64-pc-linux-gnu/6.3.0/ -mtune=generic -march=x86-64 -g -O0
REM seed -896782066 -115258581 283057891 -2113927557 1812860279 -381765716 -1256283317 -562890375 1515312755 325249472 1217224049 1768796749
REM
REM C.POTCAR (d86ddea03c3ceb6dc662c8ad6801f873)
REM 
CELL 1.54180   15.00000   15.00000   15.00000   90.00000   90.00000   90.00000
LATT -1
SFAC C  
C      1  0.5548297399439  0.6803531248536  0.1867264666308 1.0
C      1  0.6315895783319  0.8538302889241  0.5354748951326 1.0
C      1  0.5526160272289  0.5331612729427  0.8574158738474 1.0
C      1  0.4674853480173  0.1594957339133  0.6834095456225 1.0
C      1  0.5584782458324  0.2646344571713  0.2841307675233 1.0
C      1  0.4522769300576  0.6774259474020  0.1809925925582 1.0
C      1  0.5373591516226  0.8729084174906  0.5604611805980 1.0
C      1  0.4498513834684  0.5273771361439  0.8549454610554 1.0
C      1  0.3756131842348  0.1780650248948  0.6725657153551 1.0
C      1  0.4587326943066  0.2581924695346  0.2844839765419 1.0
C      1  0.2640394027364  0.2522765246421  0.4495438293418 1.0
C      1  0.2793104497976  0.4262761130320  0.2738393532970 1.0
C      1  0.1880886471090  0.6893829996491  0.3741813919094 1.0
C      1  0.2176397671226  0.6511278183883  0.6305457452801 1.0
C      1  0.2042408513376  0.3678247584338  0.7134265689970 1.0
C      1  0.7600235169168  0.2744928402189  0.4600560656580 1.0
C      1  0.7281010782701  0.4453347163712  0.2743233172853 1.0
C      1  0.7962526506798  0.7334375384178  0.3725605657497 1.0
C      1  0.7639178270448  0.6840682318932  0.6349600957162 1.0
C      1  0.8150953696928  0.4076389699349  0.7053179063542 1.0
C      1  0.7016732947564  0.5668831741469  0.7459443368672 1.0
C      1  0.7601824255380  0.3399638436805  0.6616670376188 1.0
C      1  0.7031109234545  0.2860999512225  0.3748002858752 1.0
C      1  0.6979908460179  0.6031983842456  0.2696484924164 1.0
C      1  0.7386661499311  0.7473303944345  0.4559602760250 1.0
C      1  0.3012357575353  0.5443753521862  0.7391629284772 1.0
C      1  0.2617739571493  0.3059988823263  0.6588958172726 1.0
C      1  0.3058251202905  0.2365428263421  0.3558518280123 1.0
C      1  0.3076856842871  0.5896872153371  0.2551885059880 1.0
C      1  0.2375155014596  0.7203092521546  0.4533050635945 1.0
C      1  0.8107162500435  0.4396200323973  0.7966591010314 1.0
C      1  0.7455264913444  0.2215048629468  0.5405783490537 1.0
C      1  0.6813027599171  0.3698462559702  0.2336648806099 1.0
C      1  0.7703199169613  0.7562423206866  0.2829545674637 1.0
C      1  0.7500450907128  0.7792912363894  0.6242789443222 1.0
C      1  0.2200097513615  0.4059260381197  0.8023404292142 1.0
C      1  0.2828200504905  0.2012692887951  0.5352793516920 1.0
C      1  0.3330143077724  0.3497726259308  0.2373318154034 1.0
C      1  0.1927744887857  0.7186520388762  0.2818276705155 1.0
C      1  0.2086278965700  0.7463748983802  0.6250793889845 1.0
C      1  0.5505174715097  0.5624170505741  0.5764460847551 1.0
C      1  0.5414459406660  0.4554465831581  0.5917507865066 1.0
C      1  0.5457501562513  0.4143424422541  0.4962322429139 1.0
C      1  0.5532842134029  0.4908086956549  0.4242589608154 1.0
C      1  0.5569753938398  0.5802067748338  0.4754762158599 1.0
C      1  0.4485443341640  0.5688167347530  0.5705236748129 1.0
C      1  0.4399353884644  0.4627920688633  0.5831331134548 1.0
C      1  0.4458843700179  0.4193127139330  0.4870359144809 1.0
C      1  0.4519564586489  0.4967476833931  0.4184720770876 1.0
C      1  0.4560814905263  0.5925224018041  0.4703100678150 1.0
C      1  0.6095330682119  0.6187614824576  0.2334818540623 1.0
C      1  0.6496206074437  0.8008194874112  0.4620291970908 1.0
C      1  0.6098342562091  0.5684683796666  0.7888280471302 1.0
C      1  0.5324748319446  0.2258113615895  0.6761865123800 1.0
C      1  0.6097596855987  0.2429234703836  0.3586499942734 1.0
C      1  0.3974501347558  0.6123728805115  0.2225619866679 1.0
C      1  0.4690518245999  0.8335054084680  0.5146793711387 1.0
C      1  0.3919637905461  0.5572042625787  0.7851624142614 1.0
C      1  0.3493410102495  0.2664026163556  0.6983785862745 1.0
C      1  0.4050821253848  0.2258949301366  0.3550045546037 1.0
C      1  0.4253552424090  0.3287715007367  0.2236400418090 1.0
C      1  0.4458369220994  0.7651635066281  0.1465285040574 1.0
C      1  0.5492564968186  0.8905198339310  0.6558191942257 1.0
C      1  0.4466583714551  0.4772948276647  0.9370421893524 1.0
C      1  0.3619223311319  0.1696004154378  0.5733779621152 1.0
C      1  0.5872031915475  0.3387872117878  0.2237189967820 1.0
C      1  0.5607305718142  0.7684863678703  0.1540257675099 1.0
C      1  0.6828763133147  0.8439840293505  0.6251250788530 1.0
C      1  0.5575993282647  0.4841777579399  0.9391222644992 1.0
C      1  0.5108232898510  0.1721101317902  0.5983357428763 1.0
C      1  0.7433492118584  0.3398162086193  0.3033693678206 1.0
C      1  0.7742745298934  0.6576471604830  0.2820082223057 1.0
C      1  0.7903769224007  0.7457575414238  0.5419903022895 1.0
C      1  0.7852736460573  0.5173892000437  0.7440007912764 1.0
C      1  0.7949103176937  0.2897113783237  0.5890226862999 1.0
C      1  0.2728380622842  0.2982974983206  0.2948979485820 1.0
C      1  0.2226933954850  0.6255384490853  0.2773420917089 1.0
C      1  0.1883041030074  0.7060022387300  0.5370438964267 1.0
C      1  0.2266035605643  0.4862817533095  0.7466843445150 1.0
C      1  0.2206495360901  0.2509546313477  0.5836910042428 1.0
C      1  0.4573985917538  0.5491983515130  0.2660793350129 1.0
C      1  0.4826517853039  0.7610410884912  0.4558998011989 1.0
C      1  0.4488872449301  0.6049068047497  0.7215830324032 1.0
C      1  0.4213572852465  0.3335327079450  0.6948876346159 1.0
C      1  0.4524729661026  0.2409544140636  0.4458206879435 1.0
C      1  0.5522104871943  0.5518509383753  0.2728194047440 1.0
C      1  0.5742641206690  0.7440785748472  0.4362409819424 1.0
C      1  0.5481890431412  0.6083352485048  0.7231612819417 1.0
C      1  0.5169761660200  0.3192202976178  0.6897523547760 1.0
C      1  0.5501784444484  0.2591203547055  0.4349143092031 1.0
C      1  0.4021972306366  0.6176153490672  0.6420971950302 1.0
C      1  0.3861093843488  0.4080427206097  0.6437441621567 1.0
C      1  0.4052828326147  0.3340464491230  0.4659479172263 1.0
C      1  0.4144120674425  0.5001639697531  0.3290502845950 1.0
C      1  0.4179220532543  0.6849640852726  0.4508170035723 1.0
C      1  0.5933251509101  0.6193185586876  0.6430827008797 1.0
C      1  0.5790254725040  0.3859338511487  0.6552964604143 1.0
C      1  0.5875965777257  0.3274335777291  0.4814550366380 1.0
C      1  0.5954989051784  0.5055669974379  0.3385023686274 1.0
C      1  0.6099229676909  0.6556528124316  0.4466539782420 1.0
C      1  0.3270645152178  0.6756578668787  0.4571781514232 1.0
C      1  0.3040394491756  0.5929578954101  0.6478695034674 1.0
C      1  0.3038210120974  0.3865039445165  0.6123242863153 1.0
C      1  0.3168697090741  0.3392510829360  0.4558780228821 1.0
C      1  0.3181097628682  0.5086167279030  0.3149840126755 1.0
C      1  0.6979446879733  0.6558782114181  0.4635999377843 1.0
C      1  0.6930158659161  0.6076900676661  0.6526804211205 1.0
C      1  0.6702104396707  0.3826500046811  0.6417510618431 1.0
C      1  0.6784848882871  0.3412593797440  0.4562466190475 1.0
C      1  0.6908962604071  0.5191181492370  0.3309856012590 1.0
C      1  0.1454851721153  0.5217043514349  0.4181122808582 1.0
C      1  0.1318754078803  0.5368249042760  0.5150209478657 1.0
C      1  0.1545295959046  0.4502906538666  0.5657648092933 1.0
C      1  0.1412139171580  0.3718735782308  0.4930116096474 1.0
C      1  0.1750647606798  0.4189948316106  0.4084894905472 1.0
C      1  0.8676964871983  0.5744756716855  0.4117191861352 1.0
C      1  0.8461958478758  0.5864018390289  0.5140923526599 1.0
C      1  0.8659417591019  0.4981602378555  0.5640321243598 1.0
C      1  0.8581585114424  0.4270347532017  0.4952537574961 1.0
C      1  0.8337383897643  0.4724051643882  0.4025404291236 1.0
C      1  0.3081550484756  0.5796397770210  0.4767471949435 1.0
C      1  0.2924365856816  0.5424037686616  0.5607207167725 1.0
C      1  0.2584032344939  0.4505589918287  0.5527732739970 1.0
C      1  0.2697436279733  0.4274187421335  0.4537718529608 1.0
C      1  0.2936486270816  0.5140913712299  0.4111854810493 1.0
C      1  0.7429226144762  0.5757560446231  0.4940732603618 1.0
C      1  0.7088488511480  0.5413178584543  0.5804770831927 1.0
C      1  0.6917908474716  0.4513156465751  0.5725260130344 1.0
C      1  0.7043523318574  0.4282575091078  0.4820572007294 1.0
C      1  0.7371411153634  0.5017259636028  0.4240587432348 1.0
C      1  0.8117833093202  0.4137666271922  0.3126063043541 1.0
C      1  0.8352142744575  0.6419796313502  0.3588385886318 1.0
C      1  0.8411887250668  0.6703852695222  0.5711731609046 1.0
C      1  0.8371849185665  0.4873719049179  0.6551199229921 1.0
C      1  0.8301103543156  0.3373007568427  0.5093684449471 1.0
C      1  0.2104089053821  0.3787167026985  0.3165354309979 1.0
C      1  0.1709164679286  0.5942606851312  0.3597056346153 1.0
C      1  0.1566156921010  0.6166565336217  0.5578867205898 1.0
C      1  0.1663821512895  0.4443450365539  0.6706142028610 1.0
C      1  0.1784508931503  0.2888714759458  0.5043051780951 1.0
C      1  0.5033235016492  0.8289507015996  0.1174760728855 1.0
C      1  0.6266162222276  0.8810183336222  0.6915936444262 1.0
C      1  0.5019897012724  0.4541448642797  0.0057371647639 1.0
C      1  0.5061338430043  0.3722841409637  0.1871227070623 1.0
C      1  0.4458245347152  0.1806730640524  0.5290176258047 1.0
END
