TITL C-14430-655-60 -7.951 3375.00 -1370.92389243 0 0 170 (C1) n - 1
REM
REM Run started: at 2020.12.28 17:46:18 in /gpfs/home/chem/mssmkc/CARBON/AIRSS/Generating-Clusters/Str-Search/Higher-Symm/C100-200
REM VASP from code version vasp.5.4.4.18Apr17-6-g9f103f2a35 (build Oct 11 2019 16:45:47) gamma-only
REM
REM
REM
REM
REM ./C.cell (533062f00bc710175b3da973d35f2034)
REM AIRSS Version 0.9.1 bugfix July 2018 build 013d7b7c2542+ Fri, 06 Jul 2018 19:26:36 +0100
REM compiler GCC version 6.3.0
REM options -cpp -iprefix /gpfs/warwick/csc/orac/software/Core/GCCcore/6.3.0/bin/../lib/gcc/x86_64-pc-linux-gnu/6.3.0/ -mtune=generic -march=x86-64 -g -O0
REM seed 18227149 -541091400 1589109531 47863547 -1928538710 -1799971629 -826473558 -953505890 -838455394 -863667671 333523933 -1617253462
REM
REM C.POTCAR (d86ddea03c3ceb6dc662c8ad6801f873)
REM 
CELL 1.54180   15.00000   15.00000   15.00000   90.00000   90.00000   90.00000
LATT -1
SFAC C  
C      1  0.4746407692405  0.6125186747987  0.2697093128890 1.0
C      1  0.4008786817888  0.5404713904596  0.2690627908215 1.0
C      1  0.4029006151770  0.4384412748714  0.2748704031986 1.0
C      1  0.4843159567689  0.3796514366997  0.2767149720331 1.0
C      1  0.5824849297569  0.4108983698592  0.2751428554489 1.0
C      1  0.6237837808669  0.5045176485431  0.2736642681486 1.0
C      1  0.5744178990344  0.5946888813719  0.2700082491040 1.0
C      1  0.4273713820004  0.4209431120393  0.8640499177084 1.0
C      1  0.5225654341907  0.4018128030670  0.8655622686776 1.0
C      1  0.5592563477813  0.4691216052328  0.9199824318777 1.0
C      1  0.6047778626686  0.5410068328177  0.8770274459673 1.0
C      1  0.5449411120474  0.6137676670307  0.8685984752362 1.0
C      1  0.4461182326291  0.5947054452403  0.8638717144428 1.0
C      1  0.3964673737143  0.5154015387926  0.8678013411329 1.0
C      1  0.6981256475293  0.4221088440906  0.6270668218230 1.0
C      1  0.6552142115103  0.5982817703783  0.6818540441331 1.0
C      1  0.5673893244558  0.7016748399262  0.6100410262378 1.0
C      1  0.3783035722258  0.6226340332324  0.6830831729031 1.0
C      1  0.3076578525917  0.5055394520556  0.6238032155733 1.0
C      1  0.3503175692439  0.3596681990083  0.6066980869825 1.0
C      1  0.5508031864171  0.3242283256265  0.6495344354376 1.0
C      1  0.3951315208454  0.3408970492801  0.4142249478078 1.0
C      1  0.5567970300970  0.3272534506700  0.4053922879532 1.0
C      1  0.6882233275438  0.4305190982183  0.4124254305815 1.0
C      1  0.6752469916811  0.5993553004671  0.3949048978719 1.0
C      1  0.5280041807568  0.6928461139899  0.4136877079146 1.0
C      1  0.3773059655762  0.6370013457573  0.3919241080444 1.0
C      1  0.3095794371644  0.4893964215997  0.3993616368625 1.0
C      1  0.8311972997871  0.6582176140450  0.4707562139168 1.0
C      1  0.6051649554674  0.8800366100597  0.4985860554782 1.0
C      1  0.2771593881323  0.7668874049974  0.4728704009008 1.0
C      1  0.1431298758279  0.4855317179293  0.4654045398494 1.0
C      1  0.2362565485217  0.2052069363844  0.5081513371915 1.0
C      1  0.5744121712769  0.1630040982066  0.4571402316137 1.0
C      1  0.8376976381533  0.3405738112192  0.4765749742550 1.0
C      1  0.6146838544946  0.7746610314016  0.2401403472627 1.0
C      1  0.3592395892021  0.7577021284066  0.2499727267405 1.0
C      1  0.2167356940030  0.5392121189932  0.2365268052847 1.0
C      1  0.2823337928321  0.2937229469973  0.2540427398555 1.0
C      1  0.5172677874880  0.1991477026282  0.2569821022081 1.0
C      1  0.7411089275368  0.3276292277591  0.2422385888220 1.0
C      1  0.7867953529129  0.5799564320774  0.2406021886487 1.0
C      1  0.5040937462166  0.7714969874194  0.4742048740177 1.0
C      1  0.2961680865532  0.6697178513841  0.4482159231643 1.0
C      1  0.2193386984870  0.4586866911702  0.4236917851371 1.0
C      1  0.3768904412390  0.2605508725512  0.4789705496157 1.0
C      1  0.6009817813643  0.2632141680012  0.4775005329186 1.0
C      1  0.7720909036921  0.4270663489868  0.4724586019053 1.0
C      1  0.7333570422408  0.6741806947355  0.4396086951879 1.0
C      1  0.5988635661452  0.5550319666006  0.4463393317098 1.0
C      1  0.5248702885473  0.6129079487389  0.4822160126002 1.0
C      1  0.4445037346481  0.5672451125106  0.4368492090620 1.0
C      1  0.3852793084816  0.4984567979078  0.4726364705744 1.0
C      1  0.4363339949127  0.4105268285591  0.4759419141553 1.0
C      1  0.5292578837508  0.4221477309457  0.4412572672391 1.0
C      1  0.6142072919351  0.4627026193578  0.4835202927699 1.0
C      1  0.1789175493186  0.4063960119829  0.6278317592995 1.0
C      1  0.2763263027302  0.2140564336310  0.5962013202568 1.0
C      1  0.6725420934146  0.2299291695545  0.6189989779849 1.0
C      1  0.8458921871536  0.3624638463252  0.5771254001784 1.0
C      1  0.7368314202649  0.7319814533004  0.6349577894180 1.0
C      1  0.5677463278556  0.8656138225788  0.5896254194868 1.0
C      1  0.2205328689276  0.6508987462320  0.6367617097711 1.0
C      1  0.8685089960429  0.5739937216981  0.4933422644322 1.0
C      1  0.6921192733087  0.8408706308134  0.5086880320854 1.0
C      1  0.3412236133857  0.8315248766189  0.5013755942886 1.0
C      1  0.1483703522518  0.5714155597798  0.5118377763679 1.0
C      1  0.1637831518195  0.2698851381907  0.5141315876762 1.0
C      1  0.4990988477611  0.1311941593864  0.5146934528189 1.0
C      1  0.7759303679029  0.2567473496539  0.4929994871191 1.0
C      1  0.5203113565550  0.1164234436525  0.6022010466153 1.0
C      1  0.7632684462886  0.2377672866535  0.5859130022728 1.0
C      1  0.8495094636507  0.6348165590752  0.5626333918166 1.0
C      1  0.7112481596369  0.8238255491152  0.6039298027730 1.0
C      1  0.2824188550592  0.7939782983178  0.5643402609557 1.0
C      1  0.1512834285241  0.5819226516100  0.6037091605282 1.0
C      1  0.1598045794461  0.3087757733671  0.6081422598565 1.0
C      1  0.4071979302539  0.4394311053275  0.1692459927821 1.0
C      1  0.4874150223526  0.3852096118306  0.1728438899371 1.0
C      1  0.5777748681082  0.4124169664640  0.1722374746546 1.0
C      1  0.6168931343757  0.5011051227213  0.1687569377313 1.0
C      1  0.5697374434112  0.5831586313165  0.1669673539749 1.0
C      1  0.4753763111953  0.6035406238309  0.1643450006927 1.0
C      1  0.4086298560425  0.5345940029573  0.1677580149022 1.0
C      1  0.5759487922146  0.2948380463244  0.7325056187283 1.0
C      1  0.7195785614432  0.3879823637495  0.7172449869041 1.0
C      1  0.7172040850058  0.5718627326989  0.7491874757022 1.0
C      1  0.5785766825490  0.7740060492388  0.7970093495093 1.0
C      1  0.3771170973146  0.6961940898372  0.7454779319773 1.0
C      1  0.2249141198765  0.5086128700708  0.8115698824745 1.0
C      1  0.2976183198136  0.3175337017116  0.8037143933011 1.0
C      1  0.6868374971434  0.7175433835777  0.2796375663637 1.0
C      1  0.4477504823344  0.7818046562922  0.2924262922987 1.0
C      1  0.2535252693718  0.6215030896911  0.2801691864301 1.0
C      1  0.2444184589750  0.3755072638612  0.2940903940377 1.0
C      1  0.4296097387699  0.2174992057650  0.3019827832311 1.0
C      1  0.6700889348323  0.2708555042807  0.2833378260948 1.0
C      1  0.7919780976502  0.4889525753421  0.2845139514029 1.0
C      1  0.6208218567692  0.6570782588682  0.3338224882999 1.0
C      1  0.4541077476379  0.6865874137652  0.3420892477659 1.0
C      1  0.3298548656321  0.5716141581380  0.3320902367027 1.0
C      1  0.3354303677445  0.4058981654211  0.3447633223902 1.0
C      1  0.4684734537939  0.3087342882297  0.3504416828975 1.0
C      1  0.6314173053491  0.3537101312556  0.3435248580697 1.0
C      1  0.7018045005790  0.5077137550892  0.3428971202546 1.0
C      1  0.2937259074977  0.5956405643087  0.6516103320893 1.0
C      1  0.2735850600799  0.4182166551587  0.6276036895437 1.0
C      1  0.3470627218399  0.2727571783715  0.5753767252973 1.0
C      1  0.6034095512978  0.2772977879026  0.5751458673802 1.0
C      1  0.7688252167174  0.4201801284620  0.5702594922239 1.0
C      1  0.6556000817558  0.6858872282403  0.6473668540775 1.0
C      1  0.5329395110279  0.7786085623000  0.5709174979724 1.0
C      1  0.2002729697634  0.6332919575169  0.4540611215866 1.0
C      1  0.1326430443184  0.3204477832267  0.4415042623599 1.0
C      1  0.4177056804467  0.1667571448878  0.4673988248735 1.0
C      1  0.6998319513687  0.2437287914950  0.4429309186845 1.0
C      1  0.8516315889573  0.4889829426883  0.4463308296932 1.0
C      1  0.7286368341739  0.7758731911212  0.4464680877839 1.0
C      1  0.4284044099871  0.8380003152801  0.4552936850628 1.0
C      1  0.2201610833657  0.4570929153965  0.2408315074770 1.0
C      1  0.3505311013258  0.2483602887539  0.2511359266429 1.0
C      1  0.5907765616631  0.2322262194180  0.2365028068828 1.0
C      1  0.7731990548006  0.4032242218443  0.2372536884140 1.0
C      1  0.7471098989339  0.6517954516466  0.2330350154135 1.0
C      1  0.5333928542712  0.7866585462734  0.2414990545805 1.0
C      1  0.2999864254862  0.7012941665379  0.2390444521079 1.0
C      1  0.3402397699523  0.3894705181490  0.8420229454683 1.0
C      1  0.5866095666913  0.3640157033346  0.8057281054311 1.0
C      1  0.6659741836358  0.4191307036840  0.7930459997866 1.0
C      1  0.6752505465849  0.5099481713237  0.8175600253756 1.0
C      1  0.5304552337640  0.7032665471122  0.8316797285782 1.0
C      1  0.4361597860530  0.6819052417118  0.8213473549459 1.0
C      1  0.3043758157625  0.4830602629544  0.8456949386145 1.0
C      1  0.8663598347101  0.4694350816988  0.3506062111632 1.0
C      1  0.7441577036961  0.7519664179555  0.3548708804618 1.0
C      1  0.4552515728606  0.8579643351430  0.3631098395162 1.0
C      1  0.2041757652947  0.6571177493188  0.3591160065144 1.0
C      1  0.1831753484429  0.3776005730298  0.3765412461818 1.0
C      1  0.3864706797296  0.1574298078378  0.3760383053204 1.0
C      1  0.6855061521527  0.2035822862618  0.3567344073481 1.0
C      1  0.2571453457993  0.7452979932324  0.6433720656798 1.0
C      1  0.1426397376913  0.4997466149070  0.6612983480411 1.0
C      1  0.2174958840711  0.2553596722673  0.6628915470731 1.0
C      1  0.5659385808903  0.1390428325649  0.6713137976465 1.0
C      1  0.8208589434216  0.2956193233997  0.6411106562907 1.0
C      1  0.8103595654530  0.6643271044904  0.6444732231012 1.0
C      1  0.6376489019782  0.8564054004909  0.6571610119943 1.0
C      1  0.3919137430271  0.5052189908746  0.5780870684776 1.0
C      1  0.4296099208598  0.4118308665965  0.5773908831032 1.0
C      1  0.5197006148743  0.4148215172469  0.6275915325965 1.0
C      1  0.6129160382939  0.4581613692366  0.5865913991186 1.0
C      1  0.5891984670201  0.5456481360988  0.6347233297415 1.0
C      1  0.5285672120645  0.6144663699845  0.5857409150454 1.0
C      1  0.4480394496422  0.5687610750918  0.6356082736343 1.0
C      1  0.1676511443621  0.5063119293178  0.7489354418210 1.0
C      1  0.2513688987105  0.2813206530479  0.7450771326587 1.0
C      1  0.6202879593532  0.2055082971360  0.7040060711833 1.0
C      1  0.7826150232429  0.3223364726468  0.7201070517907 1.0
C      1  0.7963758627495  0.6033365835355  0.7154722033340 1.0
C      1  0.6129723165494  0.8248742624591  0.7413416865164 1.0
C      1  0.3174146848235  0.7573954718077  0.7138985660117 1.0
C      1  0.8215253224761  0.7412323674827  0.4108679035356 1.0
C      1  0.5272920183437  0.8618600172986  0.4352200061220 1.0
C      1  0.1996350369736  0.7307290820974  0.4174465768965 1.0
C      1  0.0928922212384  0.4020061239267  0.4212149690585 1.0
C      1  0.3160617587464  0.1886642608046  0.4445709370904 1.0
C      1  0.6208180953891  0.1412647169272  0.3808568079283 1.0
C      1  0.8910601485032  0.4029223952358  0.4096119186665 1.0
C      1  0.5211648571794  0.5127607013303  0.3950516896327 1.0
C      1  0.5113756968720  0.5012406838260  0.6834505169452 1.0
END
