TITL C-14430-655-36 -5.967 3375.00 -1043.08449126 0 0 127 (C1) n - 1
REM
REM Run started: at 2020.12.28 01:29:42 in /gpfs/home/chem/mssmkc/CARBON/AIRSS/Generating-Clusters/Str-Search/Higher-Symm/C100-200
REM VASP from code version vasp.5.4.4.18Apr17-6-g9f103f2a35 (build Oct 11 2019 16:45:47) gamma-only
REM
REM
REM
REM
REM ./C.cell (533062f00bc710175b3da973d35f2034)
REM AIRSS Version 0.9.1 bugfix July 2018 build 013d7b7c2542+ Fri, 06 Jul 2018 19:26:36 +0100
REM compiler GCC version 6.3.0
REM options -cpp -iprefix /gpfs/warwick/csc/orac/software/Core/GCCcore/6.3.0/bin/../lib/gcc/x86_64-pc-linux-gnu/6.3.0/ -mtune=generic -march=x86-64 -g -O0
REM seed -2093252838 621102472 -1969466034 1759864595 -1707645858 1109632576 -1219402024 -1661533377 1773631620 -603783909 -1469971022 758258142
REM
REM C.POTCAR (d86ddea03c3ceb6dc662c8ad6801f873)
REM 
CELL 1.54180   15.00000   15.00000   15.00000   90.00000   90.00000   90.00000
LATT -1
SFAC C  
C      1  0.6650923121306  0.3800102680268  0.5478992069381 1.0
C      1  0.4634478562899  0.3750069375558  0.6989155629227 1.0
C      1  0.3155967516863  0.3737793005680  0.5597702763890 1.0
C      1  0.3875084191130  0.3748488709398  0.3550225074683 1.0
C      1  0.5975131319988  0.3836492948728  0.3552373386099 1.0
C      1  0.4430523909033  0.3076683954841  0.3016210138412 1.0
C      1  0.6737147610587  0.3183542269649  0.3779931135889 1.0
C      1  0.6706755186681  0.3044389431756  0.6150544193474 1.0
C      1  0.3671624579323  0.3374336796666  0.7076635505063 1.0
C      1  0.2909666464003  0.3022434372150  0.4908163498829 1.0
C      1  0.2037186539023  0.6021952601293  0.3928510646184 1.0
C      1  0.4988941490428  0.6082894916103  0.2037477347239 1.0
C      1  0.8171380728108  0.6229162659037  0.4224245771759 1.0
C      1  0.6569485714316  0.5990231992225  0.7452764794925 1.0
C      1  0.3139066727717  0.6369685017519  0.7259154979133 1.0
C      1  0.7028038557232  0.3171088302120  0.4761792647774 1.0
C      1  0.5389734282366  0.3069489600473  0.7011558861914 1.0
C      1  0.3340458518568  0.3005116526207  0.6245716553298 1.0
C      1  0.3233384738017  0.3055060939733  0.3931986117865 1.0
C      1  0.5456577390192  0.3169436919353  0.2975969848954 1.0
C      1  0.6457098700866  0.4416495330303  0.2928897216508 1.0
C      1  0.7393818560539  0.4361400873526  0.5759444869967 1.0
C      1  0.4734267852716  0.4356704581908  0.7782344126695 1.0
C      1  0.2416664726821  0.4311003027094  0.5923709981994 1.0
C      1  0.3369461100266  0.4260980651755  0.2871277423660 1.0
C      1  0.1730654086844  0.7088858173965  0.5109435533696 1.0
C      1  0.3743734142358  0.7093082745676  0.2149840993197 1.0
C      1  0.7543046000191  0.7201318643638  0.3145978369984 1.0
C      1  0.7700474848397  0.7014694755927  0.6921077666806 1.0
C      1  0.4302199194448  0.7343634053660  0.7830435430021 1.0
C      1  0.5469745532392  0.4230369013483  0.4344150024234 1.0
C      1  0.5690870043880  0.4187168740222  0.5390692831350 1.0
C      1  0.4731750501650  0.4213877370750  0.6001876120119 1.0
C      1  0.3984769131684  0.4212826165674  0.5252699392039 1.0
C      1  0.4415890673651  0.4213897131102  0.4263761975111 1.0
C      1  0.3066571607904  0.3908949779003  0.7481001227185 1.0
C      1  0.2328295922171  0.3419581553786  0.4216299681001 1.0
C      1  0.4890269547168  0.3525117942486  0.2245230469842 1.0
C      1  0.7564812465709  0.3647614341517  0.4078517103492 1.0
C      1  0.6299640473781  0.3421541874023  0.6972083217580 1.0
C      1  0.4953411435357  0.6446509444711  0.2999702657182 1.0
C      1  0.7748336247685  0.7024979491419  0.4628880984019 1.0
C      1  0.6157669019210  0.6477162305534  0.6631051265004 1.0
C      1  0.3720907770466  0.6696278486895  0.6479148665040 1.0
C      1  0.2916519872467  0.6469156928545  0.4236747001539 1.0
C      1  0.3356991578728  0.8031376401290  0.4862032617924 1.0
C      1  0.4674309998536  0.7904594440555  0.3672302216987 1.0
C      1  0.6396699779890  0.8014005485551  0.4266231766904 1.0
C      1  0.6482946116028  0.8073712963402  0.6031958347215 1.0
C      1  0.4689412901771  0.8141654262476  0.6080948391941 1.0
C      1  0.3094175498740  0.5379108744803  0.2139688578132 1.0
C      1  0.7035003048765  0.5556150312249  0.2508363493851 1.0
C      1  0.8058904877797  0.5332452864383  0.6402488972201 1.0
C      1  0.4693184380639  0.5615563804691  0.8376544002845 1.0
C      1  0.1642671092112  0.5430002360000  0.5771200560433 1.0
C      1  0.6192795788113  0.2513415382460  0.3197845471963 1.0
C      1  0.6944425494038  0.2436805189108  0.5482075832446 1.0
C      1  0.5166293499564  0.2201287403039  0.6734287897362 1.0
C      1  0.3219058355335  0.2346841663324  0.5622360463384 1.0
C      1  0.3866970853835  0.2356454885656  0.3489143966242 1.0
C      1  0.2126596590367  0.5084513987473  0.3659500205847 1.0
C      1  0.5331266052821  0.5185303202572  0.1954609055573 1.0
C      1  0.8094624451055  0.5293326603869  0.4544115310630 1.0
C      1  0.6244943791895  0.5081114996108  0.7641471219172 1.0
C      1  0.2777351666938  0.5476778067270  0.7202729837986 1.0
C      1  0.6675832277792  0.4315767581050  0.7200183606303 1.0
C      1  0.3181048856632  0.4790170930157  0.7778217343672 1.0
C      1  0.1999610562848  0.4337671377706  0.4317815742276 1.0
C      1  0.4699231752273  0.4417010664525  0.1972448192161 1.0
C      1  0.7755428369489  0.4573896172726  0.3908802039386 1.0
C      1  0.3970375381288  0.5254451128539  0.5142801248332 1.0
C      1  0.4481600260868  0.5241394810501  0.4250200737650 1.0
C      1  0.5476895716552  0.5285034356506  0.4450811309404 1.0
C      1  0.5569479665489  0.5205461796655  0.5463069454980 1.0
C      1  0.4660159583111  0.5270246211956  0.5904921463548 1.0
C      1  0.5395124253867  0.5014343935869  0.7990238181743 1.0
C      1  0.2304000234763  0.5114520356480  0.6447882708757 1.0
C      1  0.2675588598576  0.4916685603319  0.2931385023400 1.0
C      1  0.6188140973521  0.5069273335566  0.2292469334078 1.0
C      1  0.8007368142058  0.5031300488398  0.5438142104302 1.0
C      1  0.5221799160737  0.1307726628852  0.3868580012302 1.0
C      1  0.6782856833165  0.1536046002703  0.4228495488211 1.0
C      1  0.5821306128221  0.1151567550203  0.5449164202824 1.0
C      1  0.4505613544194  0.1632619606286  0.6327568231988 1.0
C      1  0.4222550245094  0.1272675641268  0.4833845799002 1.0
C      1  0.8089922029565  0.6119008657534  0.6872047132862 1.0
C      1  0.4430485766781  0.6490147022313  0.8354467178900 1.0
C      1  0.1371422620123  0.6244423193551  0.5438041981152 1.0
C      1  0.3317376662693  0.6229874012219  0.1871997650458 1.0
C      1  0.7462254358797  0.6366369482063  0.2669557622699 1.0
C      1  0.5695356530267  0.6717389508439  0.3594802835298 1.0
C      1  0.7141913632223  0.6879880319813  0.5366051683638 1.0
C      1  0.5169630230678  0.6681725722225  0.6664265610087 1.0
C      1  0.3264401835608  0.6665978465518  0.5614673290040 1.0
C      1  0.3681709390748  0.6546291947484  0.3638152038842 1.0
C      1  0.4220267577602  0.6457136527478  0.1652130945775 1.0
C      1  0.8149191360578  0.6472955979347  0.3306771997422 1.0
C      1  0.7427938947113  0.6335827334552  0.7530132159213 1.0
C      1  0.3588201258168  0.6766265220710  0.7996715326636 1.0
C      1  0.1424311054605  0.6419444257723  0.4503569869885 1.0
C      1  0.4273059253903  0.1642273919167  0.3904885964395 1.0
C      1  0.6068558708816  0.1674944512246  0.3610176588901 1.0
C      1  0.6631546212267  0.1572914186513  0.5141536601786 1.0
C      1  0.5402206946286  0.1416336016249  0.6249985988029 1.0
C      1  0.3847907891499  0.1617250530597  0.5609309124717 1.0
C      1  0.7295875481312  0.4810473154440  0.3099386834312 1.0
C      1  0.7451715170931  0.4581642686446  0.6662604957089 1.0
C      1  0.4047064355227  0.4885373767343  0.8169916875055 1.0
C      1  0.1812651576603  0.4615000367562  0.5235449113070 1.0
C      1  0.3758427683086  0.4629463117037  0.2104398117692 1.0
C      1  0.4212041653060  0.7200845395237  0.3078220343155 1.0
C      1  0.7262891654889  0.7571000532181  0.3992657181267 1.0
C      1  0.6919736066652  0.7204904900684  0.6290149746855 1.0
C      1  0.4477581734617  0.7425389476569  0.6793577488438 1.0
C      1  0.2746567255115  0.7247462924383  0.4969268200912 1.0
C      1  0.5625801964676  0.7681479199880  0.3790292129747 1.0
C      1  0.6243741900556  0.8322679682092  0.5152040269028 1.0
C      1  0.5595854471091  0.8307337197873  0.5871825888694 1.0
C      1  0.4121208607942  0.8285928039298  0.5342962333618 1.0
C      1  0.4148395985339  0.8229773025682  0.4382649968145 1.0
C      1  0.4297648348064  0.5900030553377  0.3572420570965 1.0
C      1  0.6009208094185  0.6103046632478  0.4218895791963 1.0
C      1  0.6146033557676  0.5888628770847  0.5799317120922 1.0
C      1  0.4545273036204  0.6073735561358  0.6435100782090 1.0
C      1  0.3309461138632  0.5960840474909  0.5064886458953 1.0
C      1  0.5159546671842  0.0992485895672  0.4768679180415 1.0
C      1  0.6459218360073  0.6329810204005  0.5061445432261 1.0
END
