TITL C-14788-7911-84 -0.945 3375.00 -149.92826370 0 0 20 (C5v) n - 1
REM
REM Run started: at 2021.01.04 20:15:35 in /gpfs/home/chem/mssmkc/CARBON/AIRSS/Generating-Clusters/Str-Search/Higher-Symm/C4-100
REM VASP from code version vasp.5.4.4.18Apr17-6-g9f103f2a35 (build Oct 11 2019 16:45:47) gamma-only
REM
REM
REM
REM
REM ./C.cell (6bd13a13d554368a30d355f37ece5b26)
REM AIRSS Version 0.9.1 bugfix July 2018 build 013d7b7c2542+ Fri, 06 Jul 2018 19:26:36 +0100
REM compiler GCC version 6.3.0
REM options -cpp -iprefix /gpfs/warwick/csc/orac/software/Core/GCCcore/6.3.0/bin/../lib/gcc/x86_64-pc-linux-gnu/6.3.0/ -mtune=generic -march=x86-64 -g -O0
REM seed 1471759647 -682234942 -2138268344 -1872381560 -2110453038 1280429302 -276552160 -2060355323 -23478117 1928717285 -1156421924 -1707772569
REM
REM C.POTCAR (d86ddea03c3ceb6dc662c8ad6801f873)
REM 
CELL 1.54180   15.00000   15.00000   15.00000   90.00000   90.00000   90.00000
LATT -1
SFAC C  
C      1  0.5070689581911  0.3937954162231  0.6389172447438 1.0
C      1  0.3701327514196  0.3939081901881  0.5498142998583 1.0
C      1  0.4125489618008  0.3937806129143  0.3919733489833 1.0
C      1  0.5759709442857  0.3938500867441  0.3833593076108 1.0
C      1  0.6343436964596  0.3938139139745  0.5358791584233 1.0
C      1  0.5522549114278  0.6385965449371  0.5645982330104 1.0
C      1  0.4544357049742  0.6386050692851  0.5698753542954 1.0
C      1  0.4195390006580  0.6384866067107  0.4783848189574 1.0
C      1  0.4957420517965  0.6383852744498  0.4167680270336 1.0
C      1  0.5779050287766  0.6384603935045  0.4699947980931 1.0
C      1  0.4954889324689  0.5363047361812  0.4133220733695 1.0
C      1  0.5809790461288  0.5363679396865  0.4688683833154 1.0
C      1  0.5544162366390  0.5367335570688  0.5673161365015 1.0
C      1  0.4526652539814  0.5364722066817  0.5729410430580 1.0
C      1  0.4162666380507  0.5364770070966  0.4776391622463 1.0
C      1  0.3729877877951  0.4313423345660  0.4659846837563 1.0
C      1  0.4932712915185  0.4312498946791  0.3687572869521 1.0
C      1  0.6231112651534  0.4313666400839  0.4527907051679 1.0
C      1  0.5827475684095  0.4306929883214  0.6023152835958 1.0
C      1  0.4281238700648  0.4313105867035  0.6105007510275 1.0
END
