TITL C-140850-2242-9 -11.676 3375.00 -2169.64693144 0 0 262 (Ci) n - 1
REM
REM Run started: at 2020.11.26 10:30:45 in /rds/project/t2_vol4/rds-t2-cs072/BORA/CARBON/AIRSS/Generating-Clusters/Str-Search/Higher-Symm
REM VASP from code version vasp.5.4.4.18Apr17-6-g9f103f2a35 (build Oct 11 2019 16:45:47) gamma-only
REM
REM
REM
REM
REM ./C.cell (e5ae0387ce4d49c7c0135a1433873289)
REM AIRSS Version 0.9.1 bugfix July 2018 build 013d7b7c2542+ Fri, 06 Jul 2018 19:26:36 +0100
REM compiler GCC version 4.8.5 20150623 (Red Hat 4.8.5-39)
REM options -cpp -mtune=generic -march=x86-64 -g -O0
REM seed 1795400142 -1455103909 1022400639 -24149464 -1669861145 2050709479 869952440 1015394142 633606579 -515649180 -1338990090 -500499780
REM
REM C.POTCAR (d86ddea03c3ceb6dc662c8ad6801f873)
REM 
CELL 1.54180   15.00000   15.00000   15.00000   90.00000   90.00000   90.00000
LATT -1
SFAC C  
C      1  0.2521376670389  0.1579967852181  0.6434137530616 1.0
C      1  0.7478616845346  0.8420029766431  0.3565887878434 1.0
C      1  0.4802621380489  0.1547598730693  0.7856474497168 1.0
C      1  0.5197371032787  0.8452402593645  0.2143529949931 1.0
C      1  0.4318501992454  0.2957335267421  0.6513447449656 1.0
C      1  0.5681490649452  0.7042655508001  0.3486547352209 1.0
C      1  0.4578248438918  0.0546077019050  0.6039642599827 1.0
C      1  0.5421730789103  0.9453895816961  0.3960310913995 1.0
C      1  0.2886185535205  0.7436877120127  0.5022576120249 1.0
C      1  0.7113807122106  0.2563118515108  0.4977409812326 1.0
C      1  0.6955545499065  0.1040683849017  0.6500756889912 1.0
C      1  0.3044421136452  0.8959329891992  0.3499228199058 1.0
C      1  0.9565688445893  0.5178404402634  0.3666996899265 1.0
C      1  0.0434325970544  0.4821590285709  0.6332983077359 1.0
C      1  0.3121974254007  0.4647053464141  0.8345763589949 1.0
C      1  0.6878034040828  0.5352952144857  0.1654241726581 1.0
C      1  0.2097104258977  0.7921354164903  0.4508683093297 1.0
C      1  0.7902874299268  0.2078649688106  0.5491306809154 1.0
C      1  0.1070957928094  0.6567275769282  0.5920558055416 1.0
C      1  0.8929048835623  0.3432712405343  0.4079439408501 1.0
C      1  0.3623445385521  0.8591888528876  0.6938469162071 1.0
C      1  0.6376574726412  0.1408109860652  0.3061487450284 1.0
C      1  0.8789297395804  0.6576263204853  0.5475783645943 1.0
C      1  0.1210690458085  0.3423737730352  0.4524227210498 1.0
C      1  0.8922486171496  0.5285948981362  0.2055292723858 1.0
C      1  0.1077544742844  0.4714142616904  0.7944667591178 1.0
C      1  0.1240498930773  0.2885250584644  0.6122633082618 1.0
C      1  0.8759496573404  0.7114773152304  0.3877396677583 1.0
C      1  0.1233049329190  0.4369492776549  0.4149747739484 1.0
C      1  0.8766958477753  0.5630510498269  0.5850250533052 1.0
C      1  0.3906207167312  0.2761766204847  0.3045417362884 1.0
C      1  0.6093797395643  0.7238242176571  0.6954593754307 1.0
C      1  0.6801023847100  0.4349953958553  0.3487883946615 1.0
C      1  0.3198987698153  0.5650045724840  0.6512099648035 1.0
C      1  0.7130035010790  0.3754957798448  0.7952913700375 1.0
C      1  0.2869966316013  0.6245041852971  0.2047094299685 1.0
C      1  0.7464650656987  0.4525196326267  0.1869743726546 1.0
C      1  0.2535384424656  0.5474827284374  0.8130238685443 1.0
C      1  0.6333617508497  0.4177237869592  0.7514198968326 1.0
C      1  0.3666384761826  0.5822765526767  0.2485812920576 1.0
C      1  0.4829766197751  0.3988948201008  0.6762824004690 1.0
C      1  0.5170236902772  0.6011052705077  0.3237188894824 1.0
C      1  0.7363957253127  0.2782781498524  0.3940968193186 1.0
C      1  0.2636037562152  0.7217200526107  0.6059020591170 1.0
C      1  0.4291386188524  0.4684220258675  0.7401291001272 1.0
C      1  0.5708617328625  0.5315789334772  0.2598717989167 1.0
C      1  0.5110268447995  0.8229462848454  0.5849656630396 1.0
C      1  0.4889730356302  0.1770517997311  0.4150285351947 1.0
C      1  0.7514031336246  0.5965530802586  0.6905358902941 1.0
C      1  0.2485966844190  0.4034471819102  0.3094657834959 1.0
C      1  0.4337057018229  0.2975578439604  0.1689241147124 1.0
C      1  0.5662956149516  0.7024412165608  0.8310777329665 1.0
C      1  0.2450135901278  0.5471520046714  0.1476515999992 1.0
C      1  0.7549872989402  0.4528474758772  0.8523498702231 1.0
C      1  0.4462156597393  0.6008063480450  0.8411988236472 1.0
C      1  0.5537841569787  0.3991950485212  0.1588031399895 1.0
C      1  0.1333306316345  0.5809100820789  0.3191863240171 1.0
C      1  0.8666681210069  0.4190895825387  0.6808131726436 1.0
C      1  0.6121252663409  0.9775069701862  0.5683486593503 1.0
C      1  0.3878732798294  0.0224930193259  0.4316496398818 1.0
C      1  0.6344942985150  0.9735434367551  0.3743447836322 1.0
C      1  0.3655032998176  0.0264552229907  0.6256530268693 1.0
C      1  0.6248544672949  0.2204852959684  0.5267224800236 1.0
C      1  0.3751434541658  0.7795146547354  0.4732742355736 1.0
C      1  0.7572322996765  0.1707879009936  0.6358818409386 1.0
C      1  0.2427647931876  0.8292130097995  0.3641171332315 1.0
C      1  0.2391028695411  0.6944671089769  0.2675826944021 1.0
C      1  0.7608968957561  0.3055327345854  0.7324180629271 1.0
C      1  0.2889032771759  0.3650010038683  0.5900683708715 1.0
C      1  0.7110969835611  0.6349986639451  0.4099316158438 1.0
C      1  0.2509590723608  0.1490558565688  0.4350552635428 1.0
C      1  0.7490393120543  0.8509437715643  0.5649470165855 1.0
C      1  0.2980561624096  0.2207475428141  0.2034306682338 1.0
C      1  0.7019445938184  0.7792512907233  0.7965719978429 1.0
C      1  0.8397624336598  0.7183057859092  0.2370593136180 1.0
C      1  0.1602347182107  0.2816997743128  0.7629399087255 1.0
C      1  0.6788135161386  0.2750031189383  0.2211401116173 1.0
C      1  0.3211897494089  0.7249970483426  0.7788568201361 1.0
C      1  0.3650222197739  0.4220475234490  0.0767837877630 1.0
C      1  0.6349778893501  0.5779519860898  0.9232170255036 1.0
C      1  0.7264836961773  0.5906609499020  0.3195937653741 1.0
C      1  0.2735166814125  0.4093392339666  0.6804062520780 1.0
C      1  0.5639480400185  0.6453206145299  0.1556579381170 1.0
C      1  0.4360521841590  0.3546796585550  0.8443422218870 1.0
C      1  0.1951003357444  0.4723665637697  0.6607245130596 1.0
C      1  0.8049011911254  0.5276343020848  0.3392750846841 1.0
C      1  0.6109976799925  0.4423601698007  0.9083548827174 1.0
C      1  0.3890031274415  0.5576395242206  0.0916457779099 1.0
C      1  0.4149719809484  0.8695347971770  0.4642097553621 1.0
C      1  0.5850259101616  0.1304647572800  0.5357864014857 1.0
C      1  0.5166624941955  0.4178251478870  0.3900625582625 1.0
C      1  0.4833395760347  0.5821731438182  0.6099389800402 1.0
C      1  0.7062525859319  0.8092717800414  0.2690306955819 1.0
C      1  0.2937454516567  0.1907288800629  0.7309710659394 1.0
C      1  0.5787354390955  0.6544669844096  0.7405238780362 1.0
C      1  0.4212642111377  0.3455317432832  0.2594772811021 1.0
C      1  0.8960781591043  0.5640525180277  0.2973826695661 1.0
C      1  0.1039226125062  0.4359500793893  0.7026165348360 1.0
C      1  0.8380984248631  0.5866039417661  0.8718632372569 1.0
C      1  0.1619036382253  0.4133943556775  0.1281392592705 1.0
C      1  0.8269826352913  0.3368591263899  0.6608419620970 1.0
C      1  0.1730156560189  0.6631411404953  0.3391579623167 1.0
C      1  0.3732895483689  0.2583947344764  0.7276904097365 1.0
C      1  0.6267097383993  0.7416045871100  0.2723102428182 1.0
C      1  0.4140829660935  0.4520406148979  0.8464626418092 1.0
C      1  0.5859177872076  0.5479600847684  0.1535379578254 1.0
C      1  0.5937892080046  0.3859647496071  0.3281854170869 1.0
C      1  0.4062120658837  0.6140350906487  0.6718136798580 1.0
C      1  0.7678032857157  0.4447500761596  0.2910287180962 1.0
C      1  0.2321993884014  0.5552506952957  0.7089703597019 1.0
C      1  0.3601421744324  0.3331696404321  0.1070527642683 1.0
C      1  0.6398589060769  0.6668300604306  0.8929492878291 1.0
C      1  0.6071868102483  0.3744870943297  0.8395705831915 1.0
C      1  0.3928139217262  0.6255127048252  0.1604303227123 1.0
C      1  0.3846965802183  0.4993477678050  0.3009211565275 1.0
C      1  0.6153034302459  0.5006519496037  0.6990793655740 1.0
C      1  0.0228486017148  0.4189202864719  0.5644484253735 1.0
C      1  0.9771492065581  0.5810775177480  0.4355527554572 1.0
C      1  0.8078044683387  0.5208792653580  0.4444533507032 1.0
C      1  0.1921964706366  0.4791207734915  0.5555455469160 1.0
C      1  0.3550486148142  0.4698564546454  0.6678001056321 1.0
C      1  0.6449521150200  0.5301435266701  0.3321999229899 1.0
C      1  0.1059076997619  0.6628968503841  0.4951331950305 1.0
C      1  0.8940911771252  0.3371033850846  0.5048667770027 1.0
C      1  0.6096919955389  0.8316482156704  0.2377331026905 1.0
C      1  0.3903075351857  0.1683514316850  0.7622676212742 1.0
C      1  0.6611456791645  0.1486329914409  0.7337469722722 1.0
C      1  0.3388521011322  0.8513677498121  0.2662522743397 1.0
C      1  0.5806342219311  0.1546248728266  0.7792508369329 1.0
C      1  0.4193640166373  0.8453754266466  0.2207494574133 1.0
C      1  0.8765569775522  0.4811809561839  0.7497306261330 1.0
C      1  0.1234431495464  0.5188186424624  0.2502696096707 1.0
C      1  0.2162788938485  0.3368010060226  0.2580386194507 1.0
C      1  0.7837222909351  0.6631984143774  0.7419628220247 1.0
C      1  0.3513237294902  0.2647885969004  0.3955310394351 1.0
C      1  0.6486761609579  0.7352105453417  0.6044710514973 1.0
C      1  0.6600198349491  0.8943761329431  0.5720762283453 1.0
C      1  0.3399788544565  0.1056237002349  0.4279263591675 1.0
C      1  0.5088865592814  0.9821731772263  0.5497274289076 1.0
C      1  0.4911111848349  0.0178264759054  0.4502672746274 1.0
C      1  0.4448518526820  0.4823670258178  0.0755054198939 1.0
C      1  0.5551486691436  0.5176327324678  0.9244954965166 1.0
C      1  0.0542634708651  0.5727659329770  0.5968659073261 1.0
C      1  0.9457363075904  0.4272326390709  0.4031328996688 1.0
C      1  0.4096545026653  0.7532202645782  0.8077396954131 1.0
C      1  0.5903489763333  0.2467790712124  0.1922548946423 1.0
C      1  0.2977467626826  0.0856386163457  0.6190521439137 1.0
C      1  0.7022519211870  0.9143606351317  0.3809486800165 1.0
C      1  0.6426485103856  0.0620257456602  0.5808133431966 1.0
C      1  0.3573491793321  0.9379745148059  0.4191845644453 1.0
C      1  0.4995620808499  0.8589717098078  0.4051338374621 1.0
C      1  0.5004362422802  0.1410267443718  0.5948635636364 1.0
C      1  0.4687664861272  0.6950309610243  0.8471430737167 1.0
C      1  0.5312354034865  0.3049699722442  0.1528571420493 1.0
C      1  0.8044474202526  0.3547750401677  0.2754655036008 1.0
C      1  0.1955551539301  0.6452257839453  0.7245330397594 1.0
C      1  0.8337085201759  0.5033905051390  0.8298370087140 1.0
C      1  0.1662929231394  0.4966083515137  0.1701639785136 1.0
C      1  0.2069650940779  0.3434610771170  0.1558381040126 1.0
C      1  0.7930366955798  0.6565373714408  0.8441634359211 1.0
C      1  0.3354710149960  0.9276341965352  0.6340438219589 1.0
C      1  0.6645232077985  0.0723662659476  0.3659567630305 1.0
C      1  0.8723422312404  0.5007107954890  0.5112646399779 1.0
C      1  0.1276616895687  0.4992914901799  0.4887331712829 1.0
C      1  0.2602154200945  0.9038889617238  0.5751346097139 1.0
C      1  0.7397791210675  0.0961125037805  0.4248699865291 1.0
C      1  0.8252481629986  0.7317438800795  0.5642816182132 1.0
C      1  0.1747511090510  0.2682560826393  0.4357208399235 1.0
C      1  0.4459936499230  0.5104502004442  0.5512867071570 1.0
C      1  0.5540076494913  0.4895488591846  0.4487141198674 1.0
C      1  0.8923153470237  0.5105548260629  0.6618964505266 1.0
C      1  0.1076810164783  0.4894450914773  0.3381029835500 1.0
C      1  0.4391527994341  0.8371712891262  0.7580188854464 1.0
C      1  0.5608508398932  0.1628285565509  0.2419775870268 1.0
C      1  0.2083109419829  0.8655178039621  0.5223858076303 1.0
C      1  0.7916833594007  0.1344792998011  0.4776126009930 1.0
C      1  0.4641956036797  0.8947955336899  0.5490361865233 1.0
C      1  0.5358067501265  0.1052020986896  0.4509572596395 1.0
C      1  0.5317227852007  0.4746990727490  0.1093966651364 1.0
C      1  0.4682777930840  0.5253019747671  0.8906044490685 1.0
C      1  0.5293214374582  0.8577778533512  0.7537168954719 1.0
C      1  0.4706818604865  0.1422235280577  0.2462880435014 1.0
C      1  0.7394767155766  0.3431261133589  0.2051021225078 1.0
C      1  0.2605250925433  0.6568756116952  0.7948967450694 1.0
C      1  0.6047326369078  0.4756294528957  0.5218948291146 1.0
C      1  0.3952683958006  0.5243705846434  0.4781066726823 1.0
C      1  0.1604913460120  0.5182945651920  0.8368749585148 1.0
C      1  0.8395108523979  0.4817084107948  0.1631269371286 1.0
C      1  0.5710254659390  0.2826911278660  0.5675286088258 1.0
C      1  0.4289728629246  0.7173090656382  0.4324686050113 1.0
C      1  0.7056673219436  0.3761134728256  0.4256413911212 1.0
C      1  0.2943325878835  0.6238862627930  0.5743573121264 1.0
C      1  0.9178707495446  0.6585417555293  0.4571396114199 1.0
C      1  0.0821281698498  0.3414590371148  0.5428613108646 1.0
C      1  0.1136563270682  0.3308695290505  0.6986861780749 1.0
C      1  0.8863428284549  0.6691328214592  0.3013168325110 1.0
C      1  0.2403262061750  0.2467506039959  0.2779286466081 1.0
C      1  0.7596746839249  0.7532492044978  0.7220738062942 1.0
C      1  0.3094319979640  0.5077086742980  0.0920480774573 1.0
C      1  0.6905688559899  0.4922915090609  0.9079530696744 1.0
C      1  0.5252893020075  0.2649265726543  0.4026801501185 1.0
C      1  0.4747109563521  0.7350716672677  0.5973144493282 1.0
C      1  0.7370687850331  0.5756794182502  0.4762359397270 1.0
C      1  0.2629323065715  0.4243198902337  0.5237640354992 1.0
C      1  0.6657645090187  0.5588746664934  0.5494403721650 1.0
C      1  0.3342367409274  0.4411253356139  0.4505606471866 1.0
C      1  0.4668849542002  0.7718906892967  0.1860892240608 1.0
C      1  0.5331142348811  0.2281095883928  0.8139120610026 1.0
C      1  0.3057172180584  0.6460453788209  0.4865097475508 1.0
C      1  0.6942819032120  0.3539539333020  0.5134889507634 1.0
C      1  0.4800046325281  0.3411036551264  0.4332336748713 1.0
C      1  0.5199977254336  0.6588936872647  0.5667654397371 1.0
C      1  0.3096716619657  0.4523642072981  0.3527750137777 1.0
C      1  0.6903285173605  0.5476357451240  0.6472264705743 1.0
C      1  0.1526171848030  0.7077404111145  0.4275902325757 1.0
C      1  0.8473792559784  0.2922601638193  0.5724108967139 1.0
C      1  0.3855832162857  0.6182499753609  0.4294972237924 1.0
C      1  0.6144169926370  0.3817500115451  0.5705029687042 1.0
C      1  0.4745407094545  0.6841961539855  0.1620722373487 1.0
C      1  0.5254593541243  0.3158040153486  0.8379292288816 1.0
C      1  0.3957433633434  0.1779097668131  0.4151672892433 1.0
C      1  0.6042557773617  0.8220901560378  0.5848351162138 1.0
C      1  0.5757858682466  0.5689011236253  0.3987994755571 1.0
C      1  0.4242150641516  0.4310979414198  0.6012012684270 1.0
C      1  0.3987063188241  0.2109101256552  0.2255363173986 1.0
C      1  0.6012946170464  0.7890891272529  0.7744656906681 1.0
C      1  0.6128418837172  0.6576761058962  0.5357395068153 1.0
C      1  0.3871599846047  0.3423227243562  0.4642614024913 1.0
C      1  0.2921504056739  0.3882852095892  0.7823126586340 1.0
C      1  0.7078500517873  0.6117155743478  0.2176877435515 1.0
C      1  0.4518374186174  0.5662660616099  0.7478831456898 1.0
C      1  0.5481623258822  0.4337353218195  0.2521184537018 1.0
C      1  0.7504699256303  0.7660268149121  0.6233178350157 1.0
C      1  0.2495289660779  0.2339726499202  0.3766845886342 1.0
C      1  0.0586665631372  0.5730737453867  0.4940915912782 1.0
C      1  0.9413329954511  0.4269256012099  0.5059080049076 1.0
C      1  0.6178426777478  0.6566030618840  0.4302230793636 1.0
C      1  0.3821575900444  0.3433968677626  0.5697777552511 1.0
C      1  0.1917299751703  0.1946014427453  0.4968820970709 1.0
C      1  0.8082687808184  0.8053988790070  0.5031208697302 1.0
C      1  0.2811669366865  0.2840237824513  0.1327156772201 1.0
C      1  0.7188347127205  0.7159748731486  0.8672864729676 1.0
C      1  0.5016096827828  0.7636592736201  0.3884894749584 1.0
C      1  0.4983884791072  0.2363396094410  0.6115077792335 1.0
C      1  0.5447971777145  0.5707226144677  0.7063256011689 1.0
C      1  0.4552036993864  0.4292771456004  0.2936746562626 1.0
C      1  0.7850689665925  0.7791409702764  0.2179464985084 1.0
C      1  0.2149336111105  0.2208587087080  0.7820549285501 1.0
C      1  0.3260688971428  0.7628121533878  0.6805555169345 1.0
C      1  0.6739318780843  0.2371871411470  0.3194420511235 1.0
C      1  0.6388216098370  0.6761264688339  0.2026572782332 1.0
C      1  0.3611787642647  0.3238740179831  0.7973427644790 1.0
C      1  0.4146803480202  0.5916810288850  0.3335247547547 1.0
C      1  0.5853203015955  0.4083183457907  0.6664760194129 1.0
C      1  0.2680444267657  0.7802953943291  0.2823222071138 1.0
C      1  0.7319544617671  0.2197047638835  0.7176781326287 1.0
C      1  0.4068340042603  0.7106393512197  0.6551900442202 1.0
C      1  0.5931671249342  0.2893608577265  0.3448073751501 1.0
C      1  0.8158773555010  0.7897297840437  0.4092504899095 1.0
C      1  0.1841208022372  0.2102706015794  0.5907524868996 1.0
C      1  0.8252868212039  0.3071976591903  0.3543855581130 1.0
C      1  0.1747134229543  0.6928020528108  0.6456132082449 1.0
END
