TITL C-14788-7911-63 -2.372 3375.00 -376.59441837 0 0 48 (C2) n - 1
REM
REM Run started: at 2021.01.04 17:03:44 in /gpfs/home/chem/mssmkc/CARBON/AIRSS/Generating-Clusters/Str-Search/Higher-Symm/C4-100
REM VASP from code version vasp.5.4.4.18Apr17-6-g9f103f2a35 (build Oct 11 2019 16:45:47) gamma-only
REM
REM
REM
REM
REM ./C.cell (6bd13a13d554368a30d355f37ece5b26)
REM AIRSS Version 0.9.1 bugfix July 2018 build 013d7b7c2542+ Fri, 06 Jul 2018 19:26:36 +0100
REM compiler GCC version 6.3.0
REM options -cpp -iprefix /gpfs/warwick/csc/orac/software/Core/GCCcore/6.3.0/bin/../lib/gcc/x86_64-pc-linux-gnu/6.3.0/ -mtune=generic -march=x86-64 -g -O0
REM seed 900769067 -1368084165 281278325 1314315958 -1522504339 -2116537096 -37400543 86658050 -314715567 1845173197 1669894851 -292305626
REM
REM C.POTCAR (d86ddea03c3ceb6dc662c8ad6801f873)
REM 
CELL 1.54180   15.00000   15.00000   15.00000   90.00000   90.00000   90.00000
LATT -1
SFAC C  
C      1  0.5959222089418  0.3091254081225  0.4276900271347 1.0
C      1  0.5959247756453  0.6908757160459  0.5723111866792 1.0
C      1  0.2894381074377  0.6268499745702  0.5335310204326 1.0
C      1  0.2894366612390  0.3731505559313  0.4664667741324 1.0
C      1  0.6718681972472  0.6326457384602  0.5666783358685 1.0
C      1  0.6718661393418  0.3673532771422  0.4333223240547 1.0
C      1  0.3952597245461  0.4981078969354  0.4524665305228 1.0
C      1  0.3952596291562  0.5018915987043  0.5475332337812 1.0
C      1  0.2787738453130  0.6401100004656  0.4425241799099 1.0
C      1  0.2787726969839  0.3598901386133  0.5574742418336 1.0
C      1  0.6968581487290  0.4510463989256  0.5853610923393 1.0
C      1  0.6968588689543  0.5489523926009  0.4146401587523 1.0
C      1  0.5623410685310  0.5198048364177  0.4626992482175 1.0
C      1  0.5623403304372  0.4801958089641  0.5373019695405 1.0
C      1  0.5503286043618  0.6474966858617  0.3614969190399 1.0
C      1  0.5503277287051  0.3525037120264  0.6385041249801 1.0
C      1  0.4298624578244  0.3069517810109  0.3951244632177 1.0
C      1  0.4298647052026  0.6930484192328  0.6048742644490 1.0
C      1  0.4928119724864  0.5481066134460  0.7428258479188 1.0
C      1  0.4928126122808  0.4518936419638  0.2571724789558 1.0
C      1  0.3505645763233  0.6785803469010  0.5825834297663 1.0
C      1  0.3505622459507  0.3214192970592  0.4174140131677 1.0
C      1  0.5189671384010  0.6778133989645  0.6313645986602 1.0
C      1  0.5189652367969  0.3221878002283  0.3686355809657 1.0
C      1  0.5577923991920  0.8152367993489  0.4404891405007 1.0
C      1  0.5577916362912  0.1847640007393  0.5595114932668 1.0
C      1  0.3012461356568  0.4369652390996  0.6049131271907 1.0
C      1  0.3012468260051  0.5630340760900  0.3950861147296 1.0
C      1  0.6025808422259  0.5731574761966  0.4002760840556 1.0
C      1  0.6025799878694  0.4268425862853  0.5997249432261 1.0
C      1  0.5813768958904  0.2524864815930  0.5020334002128 1.0
C      1  0.5813791580447  0.7475143118237  0.4979669471511 1.0
C      1  0.5581736045457  0.7272468419958  0.4053071898635 1.0
C      1  0.5581724485631  0.2727528841949  0.5946940100475 1.0
C      1  0.2930702387469  0.4797931784828  0.4523998906555 1.0
C      1  0.2930700957287  0.5202066043099  0.5475992960765 1.0
C      1  0.4529703657659  0.4691948007375  0.7158423455577 1.0
C      1  0.4529716608185  0.5308055216130  0.2841573042874 1.0
C      1  0.4680292849982  0.3903887110316  0.6754251506992 1.0
C      1  0.4680306813933  0.6096110058293  0.3245754950330 1.0
C      1  0.5192285936909  0.6135537756221  0.6992168892628 1.0
C      1  0.5192278634529  0.3864466044281  0.3007830423371 1.0
C      1  0.3975857139721  0.4475598680652  0.6349633074352 1.0
C      1  0.3975864637017  0.5524394711147  0.3650366065894 1.0
C      1  0.7230478673698  0.5922976093730  0.4965886783108 1.0
C      1  0.7230467142892  0.4077007024732  0.5034131616707 1.0
C      1  0.7119035521203  0.5459647328687  0.5777919305250 1.0
C      1  0.7119030888308  0.4540352780898  0.4222084069951 1.0
END
