TITL C-14452-9665-10 -5.918 3375.00 -1050.24004808 0 0 132 (C2h) n - 1
REM
REM Run started: at 2020.12.13 20:02:54 in /gpfs/home/chem/mssmkc/CARBON/AIRSS/Generating-Clusters/Str-Search/Higher-Symm
REM VASP from code version vasp.5.4.4.18Apr17-6-g9f103f2a35 (build Oct 11 2019 16:45:47) gamma-only
REM
REM
REM
REM
REM ./C.cell (e5ae0387ce4d49c7c0135a1433873289)
REM AIRSS Version 0.9.1 bugfix July 2018 build 013d7b7c2542+ Fri, 06 Jul 2018 19:26:36 +0100
REM compiler GCC version 6.3.0
REM options -cpp -iprefix /gpfs/warwick/csc/orac/software/Core/GCCcore/6.3.0/bin/../lib/gcc/x86_64-pc-linux-gnu/6.3.0/ -mtune=generic -march=x86-64 -g -O0
REM seed 1000665433 145214237 89933382 954373897 -79860749 1496537621 -1075190754 -1255511749 1392384278 -1280943970 -1500719384 -1952362216
REM
REM C.POTCAR (d86ddea03c3ceb6dc662c8ad6801f873)
REM 
CELL 1.54180   15.00000   15.00000   15.00000   90.00000   90.00000   90.00000
LATT -1
SFAC C  
C      1  0.3358943788856  0.4133346037440  0.8078567982046 1.0
C      1  0.6641056800574  0.5866653157804  0.8078567922137 1.0
C      1  0.3358944220242  0.4133348019829  0.1921431975809 1.0
C      1  0.6641056090944  0.5866652957932  0.1921432698776 1.0
C      1  0.2694723611510  0.5272571293419  0.7048841566740 1.0
C      1  0.7305277170795  0.4727427238034  0.7048842572238 1.0
C      1  0.2694723196612  0.5272572545049  0.2951157637299 1.0
C      1  0.7305276679748  0.4727427865037  0.2951159165287 1.0
C      1  0.5748945171954  0.5459852895442  0.7968086087253 1.0
C      1  0.4251055114349  0.4540146786295  0.7968086881758 1.0
C      1  0.5748944077943  0.5459852843388  0.2031913686994 1.0
C      1  0.4251051272854  0.4540158576228  0.2031910662509 1.0
C      1  0.5160887883980  0.3103925265977  0.8292501388957 1.0
C      1  0.4839112969065  0.6896074663616  0.8292501284962 1.0
C      1  0.5160886947291  0.3103925585612  0.1707499218930 1.0
C      1  0.4839114383551  0.6896079670884  0.1707498164853 1.0
C      1  0.5913569638673  0.4465748364093  0.1944258413572 1.0
C      1  0.4086423137889  0.5534253667175  0.1944239956725 1.0
C      1  0.5913570143592  0.4465749350357  0.8055741554291 1.0
C      1  0.4086430136905  0.5534250431945  0.8055741773558 1.0
C      1  0.7489527875916  0.3006876258706  0.5473016873971 1.0
C      1  0.2510473041466  0.6993122939479  0.5473017435838 1.0
C      1  0.7489527391495  0.3006876191381  0.4526983153319 1.0
C      1  0.2510472504366  0.6993122901916  0.4526983698796 1.0
C      1  0.5505499392987  0.5810662455634  0.4503405411834 1.0
C      1  0.4494500806654  0.4189336975896  0.4503405070613 1.0
C      1  0.5505499671395  0.5810662287888  0.5496595046719 1.0
C      1  0.4494500896926  0.4189336768093  0.5496595120901 1.0
C      1  0.3582959265593  0.6795072081146  0.7050181223435 1.0
C      1  0.6417041369764  0.3204926732857  0.7050181478212 1.0
C      1  0.3582959058674  0.6795074766808  0.2949820035099 1.0
C      1  0.6417040997203  0.3204927269368  0.2949819492385 1.0
C      1  0.3377922850965  0.7142634786381  0.6035928491829 1.0
C      1  0.6622078024355  0.2857364462856  0.6035927804646 1.0
C      1  0.3377922884552  0.7142634608722  0.3964073149330 1.0
C      1  0.6622077579140  0.2857364495602  0.3964072276126 1.0
C      1  0.4301180516307  0.2621775986365  0.1807914086566 1.0
C      1  0.5698821180252  0.7378223625434  0.1807913605470 1.0
C      1  0.4301181153430  0.2621777457041  0.8192087704586 1.0
C      1  0.5698819397758  0.7378223390611  0.8192086405333 1.0
C      1  0.4258902344489  0.7243534026888  0.2452066847145 1.0
C      1  0.5741098196916  0.2756467369992  0.2452066443405 1.0
C      1  0.4258901667487  0.7243532028766  0.7547934127137 1.0
C      1  0.5741098657357  0.2756467222555  0.7547934260923 1.0
C      1  0.5211440812714  0.7228226911755  0.7361168317792 1.0
C      1  0.4788559299777  0.2771772691699  0.7361169008534 1.0
C      1  0.5211441078428  0.7228226739633  0.2638832515618 1.0
C      1  0.4788559473145  0.2771772226867  0.2638832398814 1.0
C      1  0.2000808672332  0.5950999716843  0.3214374921796 1.0
C      1  0.7999190438298  0.4048998216073  0.3214375091396 1.0
C      1  0.2000809984063  0.5951001226042  0.6785625684439 1.0
C      1  0.7999192347459  0.4048998951408  0.6785625149351 1.0
C      1  0.4104114250076  0.1674189985577  0.4487912595240 1.0
C      1  0.5895885775354  0.8325808872627  0.4487912987880 1.0
C      1  0.4104114582552  0.1674190345431  0.5512087664454 1.0
C      1  0.5895886081808  0.8325809141285  0.5512088110748 1.0
C      1  0.3269690711804  0.3095099015045  0.5917388854333 1.0
C      1  0.6730309684503  0.6904900265753  0.5917389699445 1.0
C      1  0.3269690806359  0.3095098923750  0.4082610862941 1.0
C      1  0.6730309600768  0.6904900249793  0.4082611781496 1.0
C      1  0.2470749957692  0.3883323259323  0.8371290647679 1.0
C      1  0.7529250433153  0.6116674050963  0.8371292922633 1.0
C      1  0.2470750578684  0.3883325402886  0.1628708458976 1.0
C      1  0.7529250117773  0.6116675898070  0.1628710070016 1.0
C      1  0.3417284544930  0.5923739050452  0.7433872766080 1.0
C      1  0.6582716033451  0.4076259641857  0.7433873442217 1.0
C      1  0.3417279828326  0.5923745641333  0.2566122150166 1.0
C      1  0.6582715828314  0.4076259889551  0.2566128047346 1.0
C      1  0.4600404095140  0.4599887183690  0.6952769334240 1.0
C      1  0.5399595927268  0.5400112035461  0.6952769168246 1.0
C      1  0.4600401338380  0.4599892337936  0.3047226928080 1.0
C      1  0.5399594059032  0.5400112462706  0.3047229809181 1.0
C      1  0.4929856241643  0.8244811566347  0.5486815800030 1.0
C      1  0.5070144273134  0.1755187771484  0.5486815150027 1.0
C      1  0.4929856072013  0.8244811507998  0.4513185491024 1.0
C      1  0.5070144088812  0.1755187540116  0.4513184906058 1.0
C      1  0.2191641247041  0.6172300115522  0.4087115913715 1.0
C      1  0.7808358504225  0.3827699243171  0.4087116029541 1.0
C      1  0.2191641866023  0.6172299982301  0.5912884549353 1.0
C      1  0.7808359338074  0.3827698993082  0.5912884629452 1.0
C      1  0.5421318237624  0.6466176615150  0.3201697087464 1.0
C      1  0.4578681359551  0.3533823734721  0.3201695828175 1.0
C      1  0.5421317955577  0.6466176945490  0.6798303115370 1.0
C      1  0.4578681914007  0.3533822442036  0.6798303448768 1.0
C      1  0.4031797693545  0.6610647056734  0.5488400021821 1.0
C      1  0.5968202582640  0.3389351868013  0.5488399593156 1.0
C      1  0.4031797962197  0.6610647242873  0.4511601226560 1.0
C      1  0.5968202629619  0.3389352122309  0.4511600717562 1.0
C      1  0.5541271603250  0.4283236863388  0.4453346911938 1.0
C      1  0.4458728547235  0.5716762368058  0.4453347584235 1.0
C      1  0.5541271771119  0.4283236812086  0.5546653208395 1.0
C      1  0.4458728654225  0.5716762283754  0.5546653590892 1.0
C      1  0.3018109431401  0.4788581379408  0.6120790145851 1.0
C      1  0.6981891033523  0.5211417585796  0.6120791015154 1.0
C      1  0.3018109651520  0.4788581839301  0.3879209496599 1.0
C      1  0.6981890807975  0.5211417838747  0.3879210450874 1.0
C      1  0.2566392808102  0.5397381562065  0.4542424355789 1.0
C      1  0.7433607038862  0.4602617514003  0.4542425255696 1.0
C      1  0.2566393173897  0.5397381698418  0.5457575407682 1.0
C      1  0.7433607411127  0.4602617601865  0.5457576127064 1.0
C      1  0.4127736214271  0.7652912200407  0.4450984199625 1.0
C      1  0.5872264182436  0.2347086932869  0.4450983362478 1.0
C      1  0.4127736142510  0.7652912323417  0.5549017343392 1.0
C      1  0.5872264272472  0.2347087115444  0.5549016551574 1.0
C      1  0.1897710041884  0.3725185882002  0.5414506822333 1.0
C      1  0.8102290539686  0.6274813960206  0.5414508061035 1.0
C      1  0.1897709819273  0.3725185301414  0.4585492523131 1.0
C      1  0.8102290353596  0.6274813330106  0.4585493876661 1.0
C      1  0.5928520874192  0.5093614873386  0.3937683219356 1.0
C      1  0.4071478946450  0.4906384951105  0.3937682931340 1.0
C      1  0.5928521357704  0.5093614681934  0.6062317098404 1.0
C      1  0.4071479088900  0.4906384238191  0.6062317127680 1.0
C      1  0.3315661700422  0.2209373260899  0.4502899681436 1.0
C      1  0.6684338588913  0.7790626033906  0.4502899734823 1.0
C      1  0.3315661686183  0.2209373167792  0.5497100955723 1.0
C      1  0.6684338634108  0.7790625938237  0.5497101028904 1.0
C      1  0.5129446572218  0.4068825299050  0.8342234810972 1.0
C      1  0.4870553897268  0.5931174798364  0.8342234577571 1.0
C      1  0.5129445717432  0.4068826638685  0.1657765710444 1.0
C      1  0.4870550414469  0.5931178959277  0.1657760710510 1.0
C      1  0.7375704119310  0.5463683572965  0.2300031469219 1.0
C      1  0.2624295260129  0.4536316568813  0.2300030286107 1.0
C      1  0.7375704712195  0.5463682425371  0.7699970580248 1.0
C      1  0.2624295829766  0.4536315619268  0.7699969212739 1.0
C      1  0.7327438795122  0.6198094211030  0.4030980001784 1.0
C      1  0.2672561606924  0.3801905109882  0.4030978969497 1.0
C      1  0.7327438755505  0.6198094158301  0.5969021524738 1.0
C      1  0.2672561540460  0.3801905012466  0.5969020668169 1.0
C      1  0.4172473248835  0.3418475202265  0.3989914059495 1.0
C      1  0.5827527317633  0.6581524481097  0.3989914427543 1.0
C      1  0.4172472870707  0.3418474656186  0.6010086084696 1.0
C      1  0.5827527496706  0.6581524361674  0.6010086102678 1.0
END
