TITL C-14788-7911-25 -3.372 3375.00 -537.90325091 0 0 69 (D2d) n - 1
REM
REM Run started: at 2021.01.04 09:59:09 in /gpfs/home/chem/mssmkc/CARBON/AIRSS/Generating-Clusters/Str-Search/Higher-Symm/C4-100
REM VASP from code version vasp.5.4.4.18Apr17-6-g9f103f2a35 (build Oct 11 2019 16:45:47) gamma-only
REM
REM
REM
REM
REM ./C.cell (6bd13a13d554368a30d355f37ece5b26)
REM AIRSS Version 0.9.1 bugfix July 2018 build 013d7b7c2542+ Fri, 06 Jul 2018 19:26:36 +0100
REM compiler GCC version 6.3.0
REM options -cpp -iprefix /gpfs/warwick/csc/orac/software/Core/GCCcore/6.3.0/bin/../lib/gcc/x86_64-pc-linux-gnu/6.3.0/ -mtune=generic -march=x86-64 -g -O0
REM seed -1754442330 -502760096 -1256701854 1494120164 -1444064192 -948666306 -1970688927 -1514988082 -1702541165 695738506 -506544344 -1875115121
REM
REM C.POTCAR (d86ddea03c3ceb6dc662c8ad6801f873)
REM 
CELL 1.54180   15.00000   15.00000   15.00000   90.00000   90.00000   90.00000
LATT -1
SFAC C  
C      1  0.5692658849492  0.4990489841843  0.7068539999284 1.0
C      1  0.4277951569428  0.4996080262948  0.7067941771510 1.0
C      1  0.5692301225569  0.4994425678259  0.2941656275327 1.0
C      1  0.4277093211711  0.4989532371082  0.2941660308990 1.0
C      1  0.4982616438640  0.5700800725184  0.7068638093563 1.0
C      1  0.4988411100052  0.4286046421547  0.7068118432884 1.0
C      1  0.4987599510653  0.5699152164212  0.2942191120076 1.0
C      1  0.4982267526026  0.4284140360931  0.2941117195819 1.0
C      1  0.8046870080182  0.4459519919938  0.6065055071253 1.0
C      1  0.1920545777008  0.5518212618882  0.6067383403914 1.0
C      1  0.8046439422675  0.5520688314640  0.3944519824344 1.0
C      1  0.1920561200044  0.4463177247838  0.3940031851488 1.0
C      1  0.4449356307080  0.8055354882780  0.6067501370522 1.0
C      1  0.5509914031153  0.1930272696324  0.6064641799063 1.0
C      1  0.5511132573224  0.8053692898397  0.3944441774194 1.0
C      1  0.4451311845982  0.1927940877833  0.3940079620952 1.0
C      1  0.2817676544610  0.5630447148191  0.6273412537600 1.0
C      1  0.7148791436109  0.4353738727300  0.6271263082266 1.0
C      1  0.2817319597068  0.4351313357557  0.3732684693626 1.0
C      1  0.7150070692068  0.5631776917572  0.3734294855848 1.0
C      1  0.5622816474346  0.2826590481161  0.6273394118267 1.0
C      1  0.4344500512048  0.7157163049100  0.6272476308810 1.0
C      1  0.4343406018828  0.2825752194848  0.3733512998789 1.0
C      1  0.5624854480138  0.7158234447167  0.3733740280872 1.0
C      1  0.5235192742993  0.8469343154167  0.4641825706433 1.0
C      1  0.4723899417290  0.1512939981377  0.4639199612733 1.0
C      1  0.5232245246368  0.1514567986307  0.5368056730339 1.0
C      1  0.4725311535647  0.8469533326645  0.5369091258700 1.0
C      1  0.8463937736396  0.5246838004941  0.4641564784595 1.0
C      1  0.1504749468014  0.4735629652963  0.4638761669710 1.0
C      1  0.1506751620185  0.5243369934113  0.5368392861050 1.0
C      1  0.8462915119280  0.4735001199486  0.5367620350336 1.0
C      1  0.6856240429839  0.5769540278412  0.6230646069833 1.0
C      1  0.3120806767919  0.4209938197460  0.6229055270017 1.0
C      1  0.6859295393951  0.4214698353719  0.3775736191767 1.0
C      1  0.3113900448076  0.5772827615667  0.3777419269120 1.0
C      1  0.5761894974956  0.6864470891980  0.6230641655411 1.0
C      1  0.4202316797066  0.3129407891535  0.6229897776954 1.0
C      1  0.4203720979956  0.6861876352852  0.3776529565684 1.0
C      1  0.5761063258156  0.3117226522332  0.3776956059655 1.0
C      1  0.6585207087395  0.5038671610294  0.6763246686397 1.0
C      1  0.3386236585222  0.4944577565261  0.6760071196411 1.0
C      1  0.6586047272022  0.4945678354327  0.3244677767423 1.0
C      1  0.3384585487129  0.5039168276740  0.3247834433708 1.0
C      1  0.5030618955888  0.6592860290988  0.6762697884973 1.0
C      1  0.4936922004446  0.3394089987241  0.6761041905263 1.0
C      1  0.4937420142314  0.6592299839666  0.3246952365626 1.0
C      1  0.5030213382250  0.3391324273673  0.3245846228306 1.0
C      1  0.4122161153110  0.2922852706853  0.5413565300637 1.0
C      1  0.5845866618372  0.7061278931181  0.5413537420771 1.0
C      1  0.4119072522220  0.7061306238491  0.4593142743291 1.0
C      1  0.5845983504643  0.2922510028113  0.4594240030506 1.0
C      1  0.2913345805239  0.4131241850289  0.5412749021242 1.0
C      1  0.7052924274255  0.5855564313214  0.5413760814169 1.0
C      1  0.7053335870149  0.4124720134042  0.4592322179137 1.0
C      1  0.2912616944596  0.5853049691096  0.4594318089599 1.0
C      1  0.5887397047270  0.6640154153619  0.4560172627972 1.0
C      1  0.4080099614182  0.3342652217543  0.4560510394932 1.0
C      1  0.5886495465240  0.3343740930795  0.5447498886399 1.0
C      1  0.4079970190654  0.6639424359180  0.5446209919342 1.0
C      1  0.6631066202172  0.5894788023130  0.4560542135903 1.0
C      1  0.3332873868149  0.4087793449671  0.4559748667431 1.0
C      1  0.3333336425322  0.5895173355668  0.5447170157496 1.0
C      1  0.6629884067935  0.4089306419992  0.5445590026707 1.0
C      1  0.5659022564545  0.5668050315559  0.4555769439927 1.0
C      1  0.4305798428353  0.5667775798386  0.5449875885092 1.0
C      1  0.5658578932352  0.4316073651930  0.5449740305791 1.0
C      1  0.4305491349547  0.4314968238614  0.4554672886063 1.0
C      1  0.4982121874802  0.4991896044952  0.5002828977890 1.0
END
