TITL C-146068-9018-5 -10.845 3375.00 -1827.15541343 0 0 220 (C2v) n - 1
REM
REM Run started: at 2020.12.13 10:52:54 in /rds/project/t2_vol4/rds-t2-cs072/BORA/CARBON/AIRSS/Generating-Clusters/Str-Search/Higher-Symm/C200-350
REM VASP from code version vasp.5.4.4.18Apr17-6-g9f103f2a35 (build Oct 11 2019 16:45:47) gamma-only
REM
REM
REM
REM
REM ./C.cell (8a36a0f86d45ee02852e7beefdfb7796)
REM AIRSS Version 0.9.1 bugfix July 2018 build 013d7b7c2542+ Fri, 06 Jul 2018 19:26:36 +0100
REM compiler GCC version 4.8.5 20150623 (Red Hat 4.8.5-39)
REM options -cpp -mtune=generic -march=x86-64 -g -O0
REM seed -556407507 -160326402 -881060083 1356252683 -780643797 -1464016979 1694526741 917742998 1904217961 1736085741 258195803 -908848855
REM
REM C.POTCAR (d86ddea03c3ceb6dc662c8ad6801f873)
REM 
CELL 1.54180   15.00000   15.00000   15.00000   90.00000   90.00000   90.00000
LATT -1
SFAC C  
C      1  0.5953708322692  0.2861253320152  0.4451147956534 1.0
C      1  0.4046285277862  0.2861247185715  0.5548895037802 1.0
C      1  0.4046295085016  0.2861245417345  0.4451159443057 1.0
C      1  0.5953709938989  0.2861253953880  0.5548885109794 1.0
C      1  0.6385349370137  0.3795732464864  0.4487514547522 1.0
C      1  0.3614646828448  0.3795729738372  0.5512528526660 1.0
C      1  0.3614647648201  0.3795721862535  0.4487522183026 1.0
C      1  0.6385349329068  0.3795736513300  0.5512519123246 1.0
C      1  0.1962957901554  0.7743890025407  0.3879923063651 1.0
C      1  0.8036977612335  0.7743941230874  0.6119992165121 1.0
C      1  0.8037044155076  0.7743915978404  0.3879902289325 1.0
C      1  0.1963009456510  0.7743923202503  0.6119997314367 1.0
C      1  0.2622969876962  0.7738236998473  0.7563072042707 1.0
C      1  0.7376993880601  0.7738165345305  0.2436856397370 1.0
C      1  0.7377015016218  0.7738247143781  0.7563069011837 1.0
C      1  0.2623002929688  0.7738142821659  0.2436868315274 1.0
C      1  0.3655264374317  0.5671202483420  0.3178994404666 1.0
C      1  0.6344721349220  0.5671302481104  0.6820991870696 1.0
C      1  0.6344731206901  0.5671211768050  0.3178986590655 1.0
C      1  0.3655270705491  0.5671297662598  0.6821003470668 1.0
C      1  0.5850722397296  0.8156482608088  0.7008694814178 1.0
C      1  0.4149266768199  0.8156425871334  0.2991253670561 1.0
C      1  0.4149260645183  0.8156476233209  0.7008699423553 1.0
C      1  0.5850727593673  0.8156433531753  0.2991252738053 1.0
C      1  0.5494219163652  0.5562929216547  0.0953630218166 1.0
C      1  0.4505786934284  0.5562958765545  0.9046305532293 1.0
C      1  0.4505775615078  0.5562911627974  0.0953635353606 1.0
C      1  0.5494215761610  0.5562957874236  0.9046304049575 1.0
C      1  0.3976253745529  0.3969812488336  0.1279620311894 1.0
C      1  0.6023772147510  0.3969906545592  0.8720396916554 1.0
C      1  0.6023771390128  0.3969864610184  0.1279622657045 1.0
C      1  0.3976241162355  0.3969903087090  0.8720409537235 1.0
C      1  0.3916762355809  0.1399033218516  0.5970100666555 1.0
C      1  0.6083214236215  0.1399045487010  0.4029980386743 1.0
C      1  0.6083237406486  0.1399047266292  0.5970091425983 1.0
C      1  0.3916784986341  0.1399039844166  0.4029991480092 1.0
C      1  0.2490059622554  0.6213540616749  0.7936775496124 1.0
C      1  0.7509937955888  0.6213437573287  0.2063192482309 1.0
C      1  0.7509935349699  0.6213546676476  0.7936768327278 1.0
C      1  0.2490065598338  0.6213414168493  0.2063207543613 1.0
C      1  0.6586668224542  0.5832207292792  0.2316698896073 1.0
C      1  0.3413317427281  0.5832303111204  0.7683325516058 1.0
C      1  0.3413330370821  0.5832194656379  0.2316700612527 1.0
C      1  0.6586679380710  0.5832303508845  0.7683321625617 1.0
C      1  0.3600248210859  0.8203307050981  0.5458406362028 1.0
C      1  0.6399765828982  0.8203302602651  0.4541513968654 1.0
C      1  0.6399740961507  0.8203315889364  0.5458396227099 1.0
C      1  0.3600240807140  0.8203291644719  0.4541525867329 1.0
C      1  0.5540378304711  0.3081106419727  0.1441143371105 1.0
C      1  0.4459637215096  0.3081138978612  0.8558910832797 1.0
C      1  0.4459639711455  0.3081088699963  0.1441149037012 1.0
C      1  0.5540378044769  0.3081147909212  0.8558900375645 1.0
C      1  0.6051525658757  0.1723046586180  0.7648427907871 1.0
C      1  0.3948492913771  0.1722968713873  0.2351648996050 1.0
C      1  0.3948478111983  0.1723036654000  0.7648445694016 1.0
C      1  0.6051519825827  0.1722999721256  0.2351640783977 1.0
C      1  0.4078515033258  0.5903578449623  0.4480489103791 1.0
C      1  0.5921479520666  0.5903608773962  0.5519524808935 1.0
C      1  0.5921478608441  0.5903582905889  0.4480486509159 1.0
C      1  0.4078513963452  0.5903605077867  0.5519527701951 1.0
C      1  0.8073429340371  0.4021309033403  0.3934295104097 1.0
C      1  0.1926555535935  0.4021321156014  0.6065716097090 1.0
C      1  0.1926578591469  0.4021292564777  0.3934303596521 1.0
C      1  0.8073444607058  0.4021338417686  0.6065697333099 1.0
C      1  0.6977532195838  0.2955542326390  0.7913719901578 1.0
C      1  0.3022514347023  0.2955444548736  0.2086343217121 1.0
C      1  0.3022486518327  0.2955532056589  0.7913740739383 1.0
C      1  0.6977510641179  0.2955489622171  0.2086313071120 1.0
C      1  0.6997407837794  0.3812996054358  0.1665676143673 1.0
C      1  0.3002600325706  0.3813067666135  0.8334355928939 1.0
C      1  0.3002607442783  0.3812964087946  0.1665688939149 1.0
C      1  0.6997418333069  0.3813067195026  0.8334328251384 1.0
C      1  0.4502636188867  0.3862114512894  0.7840478186035 1.0
C      1  0.5497366906626  0.3862087794218  0.2159559598062 1.0
C      1  0.5497365544253  0.3862122754326  0.7840471515542 1.0
C      1  0.4502637964129  0.3862068584195  0.2159557802173 1.0
C      1  0.5548112495511  0.4610273902931  0.0598378632726 1.0
C      1  0.4451888984614  0.4610292290666  0.9401605547028 1.0
C      1  0.4451899867911  0.4610262186105  0.0598379729554 1.0
C      1  0.5548121782484  0.4610297840302  0.9401601230793 1.0
C      1  0.2514272375353  0.2566299381972  0.4029719387586 1.0
C      1  0.7485747681334  0.2566333081016  0.5970337941672 1.0
C      1  0.7485734599297  0.2566313074158  0.4029706828487 1.0
C      1  0.2514258668734  0.2566323927326  0.5970354436329 1.0
C      1  0.4211666202074  0.3687028281976  0.3095909853699 1.0
C      1  0.5788336847783  0.3687056148850  0.6904103727760 1.0
C      1  0.5788335570960  0.3687031372024  0.3095911260527 1.0
C      1  0.4211659371985  0.3687052013008  0.6904116119842 1.0
C      1  0.8701248926064  0.4657546123999  0.4459899064944 1.0
C      1  0.1298746425114  0.4657530878821  0.5540086688766 1.0
C      1  0.1298749732544  0.4657517466826  0.4459904341483 1.0
C      1  0.8701256307751  0.4657578232225  0.5540051917395 1.0
C      1  0.1060548537021  0.6391481171424  0.4525815179923 1.0
C      1  0.8939440686363  0.6391510270593  0.5474176392872 1.0
C      1  0.8939442532333  0.6391503052458  0.4525812564902 1.0
C      1  0.1060553165168  0.6391492897228  0.5474183562963 1.0
C      1  0.6003722228854  0.6041146586443  0.8462174669158 1.0
C      1  0.3996321733111  0.6041077875133  0.1537866529664 1.0
C      1  0.3996274984718  0.6041144879139  0.8462179249292 1.0
C      1  0.6003670775748  0.6041092328155  0.1537857950841 1.0
C      1  0.5569150742428  0.7829957982699  0.4026783918154 1.0
C      1  0.4430863670349  0.7829992415856  0.5973157732689 1.0
C      1  0.4430849531963  0.7829955714495  0.4026784757401 1.0
C      1  0.5569125258592  0.7829996957779  0.5973153880398 1.0
C      1  0.4474718341022  0.2778116648721  0.3527076672115 1.0
C      1  0.5525277763016  0.2778124870385  0.6472972937097 1.0
C      1  0.5525281265130  0.2778120432043  0.3527071279381 1.0
C      1  0.4474723403932  0.2778122400016  0.6472980844097 1.0
C      1  0.4534081045786  0.7551738746129  0.7756313622781 1.0
C      1  0.5465891651281  0.7551687576288  0.2243679559204 1.0
C      1  0.5465908088024  0.7551738268125  0.7756309751215 1.0
C      1  0.4534104113553  0.7551683107520  0.2243681516003 1.0
C      1  0.2062316669152  0.5228600119948  0.2306822209347 1.0
C      1  0.7937661509720  0.5228714832477  0.7693166169970 1.0
C      1  0.7937689793194  0.5228639565230  0.2306802132830 1.0
C      1  0.2062344232568  0.5228693377656  0.7693182070116 1.0
C      1  0.1824336809643  0.6516799163930  0.2736528048329 1.0
C      1  0.8175609750497  0.6516874860797  0.7263384682489 1.0
C      1  0.8175665710955  0.6516828095810  0.2736520861644 1.0
C      1  0.1824380644252  0.6516860086624  0.7263396118076 1.0
C      1  0.2968128394153  0.7125997992097  0.1799922461872 1.0
C      1  0.7031886486880  0.7126140502900  0.8200037132094 1.0
C      1  0.7031867553408  0.7126013342157  0.1799920608582 1.0
C      1  0.2968100451486  0.7126138041355  0.8200043536241 1.0
C      1  0.3916588212022  0.7013765760476  0.8260774989737 1.0
C      1  0.6083386977111  0.7013687418193  0.1739231248016 1.0
C      1  0.6083400927007  0.7013766086623  0.8260768966014 1.0
C      1  0.3916606431846  0.7013675325709  0.1739230803537 1.0
C      1  0.2840776952863  0.8192279046735  0.6079966835158 1.0
C      1  0.7159214069780  0.8192294493241  0.3919945230811 1.0
C      1  0.7159207052977  0.8192298067497  0.6079966026689 1.0
C      1  0.2840780519737  0.8192252108048  0.3919948814102 1.0
C      1  0.1476560621412  0.5586010959905  0.5937978669627 1.0
C      1  0.8523466518351  0.5586013788721  0.4062004198133 1.0
C      1  0.8523433355725  0.5586027441426  0.5937967393389 1.0
C      1  0.1476528309175  0.5585993181226  0.4062007396900 1.0
C      1  0.9018298712506  0.3795186629075  0.4092927036472 1.0
C      1  0.0981705732972  0.3795188495078  0.5907073519009 1.0
C      1  0.0981710607020  0.3795158576305  0.4092945152010 1.0
C      1  0.9018292369037  0.3795214581711  0.5907060717004 1.0
C      1  0.5862973769152  0.1857214294535  0.3203617561065 1.0
C      1  0.4137010359322  0.1857239259851  0.6796437403681 1.0
C      1  0.4137029334491  0.1857203739358  0.3203634124987 1.0
C      1  0.5862995355102  0.1857238175647  0.6796416273477 1.0
C      1  0.4585941804438  0.9047796739318  0.7060216040554 1.0
C      1  0.5414091270083  0.9047760958808  0.2939710313272 1.0
C      1  0.5414036488258  0.9047801215252  0.7060216825947 1.0
C      1  0.4585886850314  0.9047761850079  0.2939706945471 1.0
C      1  0.1458977520636  0.7312779167816  0.5475306980114 1.0
C      1  0.8541024456342  0.7312783472751  0.4524616715686 1.0
C      1  0.8541007849656  0.7312797222785  0.5475302145833 1.0
C      1  0.1458960779370  0.7312756838800  0.4524630358498 1.0
C      1  0.7399524031148  0.3527006081198  0.4481409022486 1.0
C      1  0.2600462685746  0.3527013982518  0.5518613506369 1.0
C      1  0.2600482862788  0.3526995873530  0.4481419380811 1.0
C      1  0.7399533450018  0.3527021409154  0.5518601143462 1.0
C      1  0.3192511448774  0.5842371571999  0.4032313270673 1.0
C      1  0.6807475383893  0.5842439399039  0.5967685354074 1.0
C      1  0.6807479721080  0.5842382800669  0.4032306132099 1.0
C      1  0.3192519562833  0.5842434213266  0.5967690249537 1.0
C      1  0.4450682534979  0.5264565981288  0.6274400729021 1.0
C      1  0.5549306979525  0.5264531216743  0.3725629349573 1.0
C      1  0.5549313780590  0.5264566882246  0.6274397761500 1.0
C      1  0.4450687537363  0.5264527218085  0.3725633119682 1.0
C      1  0.7459753572691  0.2954510605015  0.7019740248184 1.0
C      1  0.2540279412568  0.2954441364007  0.2980278652928 1.0
C      1  0.2540264388406  0.2954499201992  0.7019772120916 1.0
C      1  0.7459728253069  0.2954470982904  0.2980265966611 1.0
C      1  0.4494151258638  0.6858937913490  0.5532571530756 1.0
C      1  0.5505850013247  0.6858906835186  0.4467386635736 1.0
C      1  0.5505840434449  0.6858941092630  0.5532570538986 1.0
C      1  0.4494142183428  0.6858904386397  0.4467387196222 1.0
C      1  0.3182397685703  0.8167908564921  0.3047797535911 1.0
C      1  0.6817574437977  0.8167997961085  0.6952180366379 1.0
C      1  0.6817594457233  0.8167927831655  0.3047780862575 1.0
C      1  0.3182412490611  0.8167988857238  0.6952181768394 1.0
C      1  0.7790488236264  0.3821029334106  0.3006585741521 1.0
C      1  0.2209518052127  0.3821059259510  0.6993433495287 1.0
C      1  0.2209523728287  0.3821003288276  0.3006580720903 1.0
C      1  0.7790487401849  0.3821078780307  0.6993409028563 1.0
C      1  0.6187500707864  0.2451811824844  0.8167639801263 1.0
C      1  0.3812526014184  0.2451704239516  0.1832406709515 1.0
C      1  0.3812522779373  0.2451796767188  0.8167670184892 1.0
C      1  0.6187491226951  0.2451738076327  0.1832409883615 1.0
C      1  0.1650054755347  0.2339716701654  0.4519773336351 1.0
C      1  0.8349954916600  0.2339745663416  0.5480277691020 1.0
C      1  0.8349948641906  0.2339733927094  0.4519759441319 1.0
C      1  0.1650055805585  0.2339728269914  0.5480304057016 1.0
C      1  0.7581417851376  0.5758729327252  0.5495833350479 1.0
C      1  0.2418555734475  0.5758692037378  0.4504142527048 1.0
C      1  0.2418574950072  0.5758713957719  0.5495839776743 1.0
C      1  0.7581437167877  0.5758708468426  0.4504136254816 1.0
C      1  0.1595404020284  0.5668109982390  0.3051808080706 1.0
C      1  0.8404548419076  0.5668172877851  0.6948123748182 1.0
C      1  0.8404596740786  0.5668142740928  0.3051807235527 1.0
C      1  0.1595449531995  0.5668155114114  0.6948135846809 1.0
C      1  0.5500236278317  0.0884799677710  0.4507457494741 1.0
C      1  0.4499749591147  0.0884789189192  0.5492651918535 1.0
C      1  0.4499754110742  0.0884797802424  0.4507464823436 1.0
C      1  0.5500248118388  0.0884787473230  0.5492639960369 1.0
C      1  0.8103319540594  0.7408332859443  0.7027233609264 1.0
C      1  0.1896631028541  0.7408245320841  0.2972701830447 1.0
C      1  0.1896666042559  0.7408320292469  0.7027238403065 1.0
C      1  0.8103368838974  0.7408263587951  0.2972683381315 1.0
C      1  0.0882770223339  0.2988670149020  0.5491880312835 1.0
C      1  0.9117218044231  0.2988685589834  0.4508144030881 1.0
C      1  0.9117236279449  0.2988689453621  0.5491868900129 1.0
C      1  0.0882799665529  0.2988652890966  0.4508153662698 1.0
C      1  0.5920845313500  0.4304332248439  0.6231678161351 1.0
C      1  0.4079152299844  0.4304303651282  0.3768359282310 1.0
C      1  0.4079153105850  0.4304326509200  0.6231684460591 1.0
C      1  0.5920846701747  0.4304311344683  0.3768354587461 1.0
C      1  0.6669541261798  0.2105326886959  0.5522974167078 1.0
C      1  0.3330468402035  0.2105313773457  0.4477087920224 1.0
C      1  0.3330459283199  0.2105316720005  0.5522992601932 1.0
C      1  0.6669536133295  0.2105322697959  0.4477075833313 1.0
C      1  0.7603988369891  0.4356426634696  0.7775403821619 1.0
C      1  0.2396011555803  0.4356297616727  0.2224552676497 1.0
C      1  0.2396023585867  0.4356395696286  0.7775455472374 1.0
C      1  0.7604002860235  0.4356325879777  0.2224547819500 1.0
END
