TITL C-14838-7414-5 -8.811 3375.00 -1541.00826198 0 0 189 (Cs) n - 1
REM
REM Run started: at 2020.12.24 16:22:17 in /rds/project/t2_vol4/rds-t2-cs072/BORA/CARBON/AIRSS/Generating-Clusters/Str-Search/Higher-Symm/C100-200
REM VASP from code version vasp.5.4.4.18Apr17-6-g9f103f2a35 (build Oct 11 2019 16:45:47) gamma-only
REM
REM
REM
REM
REM ./C.cell (533062f00bc710175b3da973d35f2034)
REM AIRSS Version 0.9.1 bugfix July 2018 build 013d7b7c2542+ Fri, 06 Jul 2018 19:26:36 +0100
REM compiler GCC version 4.8.5 20150623 (Red Hat 4.8.5-39)
REM options -cpp -mtune=generic -march=x86-64 -g -O0
REM seed 2093940157 -1569266267 1442494886 366588055 182552318 168460484 1917693393 -824277571 2069582 -635563592 194486984 1877518143
REM
REM C.POTCAR (d86ddea03c3ceb6dc662c8ad6801f873)
REM 
CELL 1.54180   15.00000   15.00000   15.00000   90.00000   90.00000   90.00000
LATT -1
SFAC C  
C      1  0.3303581772075  0.5959422344912  0.6936118708285 1.0
C      1  0.3316362297387  0.4053577227767  0.3077874676017 1.0
C      1  0.6874090315875  0.5851567016405  0.6925489673377 1.0
C      1  0.6759899952614  0.3952273318711  0.3044920753981 1.0
C      1  0.3316714814357  0.4053584965739  0.6926466279611 1.0
C      1  0.3303213802920  0.5959324253057  0.3068246843216 1.0
C      1  0.6760210790224  0.3952077098297  0.6959324461844 1.0
C      1  0.6873814621350  0.5851729435587  0.3078601825823 1.0
C      1  0.1307046964927  0.4453110725545  0.6059156539068 1.0
C      1  0.1287226297949  0.5471066242529  0.3945065494372 1.0
C      1  0.8672717950065  0.4364583251805  0.6060341979891 1.0
C      1  0.8633444187131  0.5381463182340  0.3937971969911 1.0
C      1  0.1287328146912  0.5471585058455  0.6059949539965 1.0
C      1  0.1307168262917  0.4452675123629  0.3945810321092 1.0
C      1  0.8634131004625  0.5381337640781  0.6065565918639 1.0
C      1  0.8672422571304  0.4364696459255  0.3942891845812 1.0
C      1  0.3535770519985  0.7068799166344  0.4216349878122 1.0
C      1  0.3644730150799  0.2975878516847  0.5798533106704 1.0
C      1  0.6399743160079  0.7648319916341  0.4472220730254 1.0
C      1  0.6406832809228  0.2874533109858  0.5800661404349 1.0
C      1  0.3644472839806  0.2975452216387  0.4206077479339 1.0
C      1  0.3536128744488  0.7068959595437  0.5787479758719 1.0
C      1  0.6406663743155  0.2874816084152  0.4203305414047 1.0
C      1  0.6399942072860  0.7648255677324  0.5532442650380 1.0
C      1  0.8374619207646  0.5336037857566  0.2978700561267 1.0
C      1  0.8345879199276  0.4400684201699  0.6999504413692 1.0
C      1  0.1694790917375  0.5430313137428  0.3038257732767 1.0
C      1  0.1708842308973  0.4505159568152  0.6963513637488 1.0
C      1  0.8345651746635  0.4400514801465  0.3003813383074 1.0
C      1  0.8375080771821  0.5336096698341  0.7024935333928 1.0
C      1  0.1708524521133  0.4504875471508  0.3041410569664 1.0
C      1  0.1694851709067  0.5430583983517  0.6966951070829 1.0
C      1  0.6234105511400  0.3883170049302  0.4514556288469 1.0
C      1  0.6109087105994  0.5766029573922  0.5496903348495 1.0
C      1  0.3866429261016  0.3959190551580  0.4521184421097 1.0
C      1  0.3827074597532  0.6087051922310  0.5485461610558 1.0
C      1  0.6108821068710  0.5765859320771  0.4507383939794 1.0
C      1  0.6233991449201  0.3883086391906  0.5489564357664 1.0
C      1  0.3826850788863  0.6086915288589  0.4518492902400 1.0
C      1  0.3866520112387  0.3959364635655  0.5483250849782 1.0
C      1  0.2350476869790  0.3899526618883  0.7388929753573 1.0
C      1  0.2320751699381  0.6049857745489  0.2615277086082 1.0
C      1  0.7702441042912  0.3793623382522  0.7430749156310 1.0
C      1  0.7741765552967  0.5913244390801  0.2513202503281 1.0
C      1  0.2321395996210  0.6050178355340  0.7389215745101 1.0
C      1  0.2349987443963  0.3899030998136  0.2616411297842 1.0
C      1  0.7742202334689  0.5913033045033  0.7490639398075 1.0
C      1  0.7702028625356  0.3793957590264  0.2573065612349 1.0
C      1  0.5333132472911  0.7789856454722  0.3176911282175 1.0
C      1  0.5468499295647  0.2499505687807  0.7141023766881 1.0
C      1  0.4414271267758  0.7624698514125  0.2911633172973 1.0
C      1  0.4540629630774  0.2532637415380  0.7140429182915 1.0
C      1  0.5468123812098  0.2499419146920  0.2862893909031 1.0
C      1  0.5333200531972  0.7790054280450  0.6827981546391 1.0
C      1  0.4540208990210  0.2532326172422  0.2863949935426 1.0
C      1  0.4414372235000  0.7624974065549  0.7091937714585 1.0
C      1  0.6035449634654  0.3232635787961  0.3303493785892 1.0
C      1  0.5739696511160  0.7261798963185  0.6159730078890 1.0
C      1  0.4023461318673  0.3311254171622  0.3306818081805 1.0
C      1  0.3961852031228  0.6788339317202  0.6671615296199 1.0
C      1  0.5739060570168  0.7261687918468  0.3845480825212 1.0
C      1  0.6035648016910  0.3232649562229  0.6700452520020 1.0
C      1  0.3961522886715  0.6788001007088  0.3332525235726 1.0
C      1  0.4023802458698  0.3311588183504  0.6697701292374 1.0
C      1  0.4505609888390  0.3755224059190  0.8726945871107 1.0
C      1  0.4476793913208  0.6172099178472  0.1286239986858 1.0
C      1  0.5482697748318  0.3728538257102  0.8737510062223 1.0
C      1  0.5463338462668  0.6142604583345  0.1273253705131 1.0
C      1  0.4477782656555  0.6172194397218  0.8717444494001 1.0
C      1  0.4505155000974  0.3755081857492  0.1277428569936 1.0
C      1  0.5464368159666  0.6141895876370  0.8731317434795 1.0
C      1  0.5482065467540  0.3728868449625  0.1266420342045 1.0
C      1  0.7709840370408  0.2850586193304  0.7055944211668 1.0
C      1  0.7390090177027  0.6724209347594  0.3040617074624 1.0
C      1  0.2321170858497  0.2958830041853  0.7038059482479 1.0
C      1  0.2234941777970  0.6997387414496  0.2950162415927 1.0
C      1  0.7390536683426  0.6724304518867  0.6963260439683 1.0
C      1  0.7709241868188  0.2851107063725  0.2947287870642 1.0
C      1  0.2235500117027  0.6997791793043  0.7054185917709 1.0
C      1  0.2320342740271  0.2958120463525  0.2966678217454 1.0
C      1  0.6807852668639  0.4446161904032  0.3903724201728 1.0
C      1  0.6755599678863  0.5343059277960  0.6104975286075 1.0
C      1  0.3314120549294  0.4563827561703  0.3928791752742 1.0
C      1  0.3320802825793  0.5461981792155  0.6082118969156 1.0
C      1  0.6755056021250  0.5343065120340  0.3899091781254 1.0
C      1  0.6807936421573  0.4445918829026  0.6100260343455 1.0
C      1  0.3320470544865  0.5461744614220  0.3922293985709 1.0
C      1  0.3314419101050  0.4563992438285  0.6075446141326 1.0
C      1  0.3150604604040  0.4457699645804  0.2195794658093 1.0
C      1  0.3142628320792  0.5509305927136  0.7810239106336 1.0
C      1  0.6854730773541  0.4393608391994  0.2171686234054 1.0
C      1  0.6885006695871  0.5434717410691  0.7835013953635 1.0
C      1  0.3142134000830  0.5509076852783  0.2194229573774 1.0
C      1  0.3150852091226  0.4457910939881  0.7808446538611 1.0
C      1  0.6884575788085  0.5434866676397  0.2169213551412 1.0
C      1  0.6855530227927  0.4393106199870  0.7832601030286 1.0
C      1  0.8548650887148  0.3610530651697  0.5523504074484 1.0
C      1  0.8351336940709  0.6089754860678  0.4486040976205 1.0
C      1  0.1456823311425  0.3707253545338  0.5520912631224 1.0
C      1  0.1403183332354  0.6221655081646  0.4478568280214 1.0
C      1  0.8351244096995  0.6089506364255  0.5518141682581 1.0
C      1  0.8548696567425  0.3610615238171  0.4479933002687 1.0
C      1  0.1403267292648  0.6222076908305  0.5526254448412 1.0
C      1  0.1456680837976  0.3706811703317  0.4483975477711 1.0
C      1  0.6220798845027  0.8268224382183  0.2977174994092 1.0
C      1  0.6223758328856  0.1826039884134  0.7043933561710 1.0
C      1  0.3582887838101  0.8172779335042  0.2948355893768 1.0
C      1  0.3760156086020  0.1892420308480  0.7031615644999 1.0
C      1  0.6223173294292  0.1826023374664  0.2959409460932 1.0
C      1  0.6220797740797  0.8268351268070  0.7027400971410 1.0
C      1  0.3759632020655  0.1891943005049  0.2972868772194 1.0
C      1  0.3583173455359  0.8173012140692  0.7055140914203 1.0
C      1  0.4035143400609  0.2064957705986  0.5483664687406 1.0
C      1  0.3882734565727  0.7991073907526  0.4532831455663 1.0
C      1  0.5969635352024  0.1987351621906  0.5484703396815 1.0
C      1  0.6403630166380  0.8678535307696  0.4507411903325 1.0
C      1  0.3883017410974  0.7991164694945  0.5470837769261 1.0
C      1  0.4034942127230  0.2064860585708  0.4521048244453 1.0
C      1  0.6403950566109  0.8678784664207  0.5497112879734 1.0
C      1  0.5969583985163  0.1987176416188  0.4518662003704 1.0
C      1  0.3911496319548  0.5439476823640  0.1526718262180 1.0
C      1  0.3928389775386  0.4501554510662  0.8473319103172 1.0
C      1  0.6077066563894  0.5396793528722  0.1517553492074 1.0
C      1  0.6072261312762  0.4467405087222  0.8489716311695 1.0
C      1  0.3927711256868  0.4501233136476  0.1530580912358 1.0
C      1  0.3912242146013  0.5439849120401  0.8477210535213 1.0
C      1  0.6071006877423  0.4467897272848  0.1514982212012 1.0
C      1  0.6077876842284  0.5396326912776  0.8487081512338 1.0
C      1  0.7827891996477  0.6791856293359  0.3982102222370 1.0
C      1  0.8014626625528  0.2907380403950  0.6060715022398 1.0
C      1  0.1927782545518  0.6934081168575  0.3946120495093 1.0
C      1  0.2019627929462  0.3021908853534  0.6042580810438 1.0
C      1  0.8014450084468  0.2908038303921  0.3942941989387 1.0
C      1  0.7828824779752  0.6792205700581  0.6022098626821 1.0
C      1  0.2018942218571  0.3020948932963  0.3962430276577 1.0
C      1  0.1928061359247  0.6934547124957  0.6058370760367 1.0
C      1  0.5530779186452  0.6332434382792  0.6069192987613 1.0
C      1  0.5523165236715  0.3909798711795  0.3826965733648 1.0
C      1  0.4560344445877  0.6167300410642  0.6165142632354 1.0
C      1  0.4578636659931  0.3964382265136  0.3838114097393 1.0
C      1  0.5523140241110  0.3909949698264  0.6177223970956 1.0
C      1  0.5530241087798  0.6332094598687  0.3935263049733 1.0
C      1  0.4578698227162  0.3965083870548  0.6166678153112 1.0
C      1  0.4560029224815  0.6166842065731  0.3839005230186 1.0
C      1  0.6395642756726  0.8883583584278  0.3634156738067 1.0
C      1  0.6097225451067  0.1471026825541  0.6218039183202 1.0
C      1  0.3742462145726  0.8497633612386  0.3777363040998 1.0
C      1  0.3882952335443  0.1544571023343  0.6206107297023 1.0
C      1  0.6097154673662  0.1470728411471  0.3785328618540 1.0
C      1  0.6395985539964  0.8883783473329  0.6370434643126 1.0
C      1  0.3882964848223  0.1544486399705  0.3798476863333 1.0
C      1  0.3742622640016  0.8497999031688  0.6226112568369 1.0
C      1  0.3281707406217  0.2656789172537  0.1698205995822 1.0
C      1  0.3248104237260  0.7289276206181  0.8295657652659 1.0
C      1  0.6698491988451  0.2602029046661  0.1685804965218 1.0
C      1  0.6557203728380  0.7304669340038  0.8253784035861 1.0
C      1  0.3247247206307  0.7288671176614  0.1708360513595 1.0
C      1  0.3282053256731  0.2656889154931  0.8306113541252 1.0
C      1  0.6556886001025  0.7305037850984  0.1750404402982 1.0
C      1  0.6699242746519  0.2602044842335  0.8317868476007 1.0
C      1  0.2721259111406  0.2849578896670  0.4518385832893 1.0
C      1  0.2604761769327  0.7160876265964  0.5485017425810 1.0
C      1  0.7323846616835  0.2701845316946  0.4519307161661 1.0
C      1  0.7347428997595  0.7324274293701  0.5474895882982 1.0
C      1  0.2604575567589  0.7160863637572  0.4519152402894 1.0
C      1  0.2721476906383  0.2849802468353  0.5486370781235 1.0
C      1  0.7347243599955  0.7324312721720  0.4529594470945 1.0
C      1  0.7323803892138  0.2702037162290  0.5484286122225 1.0
C      1  0.3945418360986  0.2989204241175  0.8690961929127 1.0
C      1  0.3935066670156  0.6946112016907  0.1366960694354 1.0
C      1  0.6029516112084  0.2953849703078  0.8685299889618 1.0
C      1  0.5956778481735  0.6914115118701  0.1306977652574 1.0
C      1  0.3935721827997  0.6946341526662  0.8636724051151 1.0
C      1  0.3945293086431  0.2989148696664  0.1314055250096 1.0
C      1  0.5957352796564  0.6913505537499  0.8697644848344 1.0
C      1  0.6028884818454  0.2954301957729  0.1318349455758 1.0
C      1  0.2945168807298  0.2342039014375  0.7473089803112 1.0
C      1  0.2835467059838  0.7628064898960  0.2500147147199 1.0
C      1  0.7046564181008  0.2260224469723  0.7497087168715 1.0
C      1  0.6866363476164  0.7556992167750  0.2559087000189 1.0
C      1  0.2836101136783  0.7628623435223  0.7503815234136 1.0
C      1  0.2944576873997  0.2341801387700  0.2531204133272 1.0
C      1  0.6866906122513  0.7557215557297  0.7445474439837 1.0
C      1  0.7046148445560  0.2260088754379  0.2506335249080 1.0
C      1  0.5095213739663  0.5572526746724  0.3329500019450 1.0
C      1  0.5095774947662  0.5573312377248  0.6675171564175 1.0
C      1  0.5102501632420  0.4697741871758  0.3465714135119 1.0
C      1  0.5102824360299  0.4698383305809  0.6538598575930 1.0
C      1  0.5487612742695  0.5185542231522  0.5002264558564 1.0
END
