TITL C-146652-2435-3 -11.744 3375.00 -2871.06861185 0 0 349 (Cs) n - 1
REM
REM Run started: at 2020.11.25 11:18:52 in /rds/project/t2_vol4/rds-t2-cs072/BORA/CARBON/AIRSS/Generating-Clusters/Str-Search/Higher-Symm
REM VASP from code version vasp.5.4.4.18Apr17-6-g9f103f2a35 (build Oct 11 2019 16:45:47) gamma-only
REM
REM
REM
REM
REM ./C.cell (e5ae0387ce4d49c7c0135a1433873289)
REM AIRSS Version 0.9.1 bugfix July 2018 build 013d7b7c2542+ Fri, 06 Jul 2018 19:26:36 +0100
REM compiler GCC version 4.8.5 20150623 (Red Hat 4.8.5-39)
REM options -cpp -mtune=generic -march=x86-64 -g -O0
REM seed 809007899 2057488469 321455814 1820721911 -976202768 155265173 1275869522 1317262498 -1907155859 796265642 -1024066707 1219538098
REM
REM C.POTCAR (d86ddea03c3ceb6dc662c8ad6801f873)
REM 
CELL 1.54180   15.00000   15.00000   15.00000   90.00000   90.00000   90.00000
LATT -1
SFAC C  
C      1  0.3026741537822  0.2227438522966  0.6751316301411 1.0
C      1  0.7285696537682  0.2401435645662  0.3172701261675 1.0
C      1  0.3026805222941  0.7771477525591  0.6751261478521 1.0
C      1  0.7290074925894  0.7593434494978  0.3173028862774 1.0
C      1  0.4442794222532  0.3575377163044  0.4709390327286 1.0
C      1  0.5543856106623  0.3521790650437  0.5437786375948 1.0
C      1  0.4443178131730  0.6423479745099  0.4709332666402 1.0
C      1  0.5544075197294  0.6476707363050  0.5437669713478 1.0
C      1  0.3928811706956  0.9476374158794  0.3299570327629 1.0
C      1  0.6042454511325  0.9485262535176  0.6628772028009 1.0
C      1  0.3928812239763  0.0522303675654  0.3299555547894 1.0
C      1  0.6042338609656  0.0513425124275  0.6628754207158 1.0
C      1  0.6153804667002  0.3208282328160  0.1843077163683 1.0
C      1  0.3815076904101  0.3179531682892  0.8088816899933 1.0
C      1  0.6154199563821  0.6790084104533  0.1842834585735 1.0
C      1  0.3815423691776  0.6819516575993  0.8088768548710 1.0
C      1  0.1603389525664  0.4098067974766  0.2358043899120 1.0
C      1  0.8270300697921  0.3862372342722  0.7885880380599 1.0
C      1  0.1603921233574  0.5901849463634  0.2357871455298 1.0
C      1  0.8270436016717  0.6136324334991  0.7885991091674 1.0
C      1  0.5346265543800  0.6073007948505  0.7240707306882 1.0
C      1  0.4671768520545  0.6047059902518  0.2815143268037 1.0
C      1  0.5346113236508  0.3925941307752  0.7240722026734 1.0
C      1  0.4671532875895  0.3951744883758  0.2815184701096 1.0
C      1  0.6301266007224  0.0451267485640  0.3287338512241 1.0
C      1  0.3645321375055  0.0449824512607  0.6636149038054 1.0
C      1  0.6301490551355  0.9547322357486  0.3287149672845 1.0
C      1  0.3645318414339  0.9549115822366  0.6635999482158 1.0
C      1  0.5569974899742  0.0506087941720  0.2602702839485 1.0
C      1  0.4383651755409  0.0500976195263  0.7309459470861 1.0
C      1  0.5570106062935  0.9492457758756  0.2602704214364 1.0
C      1  0.4383505465908  0.9497449323473  0.7309208875062 1.0
C      1  0.3300625137482  0.4542677740168  0.5817926499007 1.0
C      1  0.6922081471455  0.4450985620831  0.3791337959278 1.0
C      1  0.3300727383707  0.5456407401895  0.5817844856223 1.0
C      1  0.6921697810533  0.5547238194353  0.3791317537250 1.0
C      1  0.2642160569386  0.7684835793131  0.3761614463135 1.0
C      1  0.7354134556570  0.7823757741640  0.6176420700440 1.0
C      1  0.2641479308387  0.2314068228074  0.3761743218776 1.0
C      1  0.7353907973007  0.2175236820011  0.6176257966181 1.0
C      1  0.2602812843334  0.4517097138632  0.7465233392212 1.0
C      1  0.7170316039356  0.4014698453201  0.2858830208317 1.0
C      1  0.2602913295818  0.5482088320832  0.7465196422739 1.0
C      1  0.7169528959568  0.5983349374223  0.2859519645933 1.0
C      1  0.0425663153227  0.5898711514293  0.6918742648603 1.0
C      1  0.9621659682718  0.6059316832049  0.2970037275906 1.0
C      1  0.0425520281539  0.4100667519555  0.6918817980354 1.0
C      1  0.9620813775920  0.3941849447321  0.2970407750722 1.0
C      1  0.5521170153879  0.4478173164660  0.2952964632777 1.0
C      1  0.4488550516229  0.4488963133962  0.7163228215293 1.0
C      1  0.5521150728616  0.5520229244255  0.2953028166392 1.0
C      1  0.4488633428702  0.5510011954877  0.7163157942774 1.0
C      1  0.1604155473137  0.2368885117449  0.3410884657436 1.0
C      1  0.8395834666711  0.2260177553145  0.6585491802324 1.0
C      1  0.1604896699799  0.7630612195128  0.3410934587007 1.0
C      1  0.8395994037008  0.7738640954954  0.6585587142163 1.0
C      1  0.2935842020669  0.2244837032238  0.5753917624366 1.0
C      1  0.7068723013492  0.2287689271490  0.4163223344332 1.0
C      1  0.2936304265135  0.7754315659945  0.5753953280632 1.0
C      1  0.7069346193048  0.7710398754620  0.4162920883197 1.0
C      1  0.4827890563575  0.8945455687509  0.7958043546437 1.0
C      1  0.5153147563809  0.8930003698677  0.1929971793155 1.0
C      1  0.4828079638844  0.1052702183175  0.7958579139077 1.0
C      1  0.5153006765547  0.1068548146576  0.1929869381945 1.0
C      1  0.7727197746658  0.4489012325453  0.9359179265019 1.0
C      1  0.2290262230099  0.4492679983949  0.0810547715815 1.0
C      1  0.7727524236672  0.5509484922813  0.9359297978022 1.0
C      1  0.2290467837399  0.5506742870222  0.0810475661703 1.0
C      1  0.6044318146882  0.4202378895797  0.1964743509451 1.0
C      1  0.4043188249932  0.4168219356536  0.8101645228366 1.0
C      1  0.6044567125516  0.5796054397800  0.1964431052033 1.0
C      1  0.4043347682352  0.5830726232300  0.8101503398196 1.0
C      1  0.5256680970720  0.2882713350688  0.0330560884090 1.0
C      1  0.4753152277591  0.2851267637965  0.9605056427571 1.0
C      1  0.5257073432374  0.7116060503884  0.0330484685707 1.0
C      1  0.4753549417164  0.7147382361660  0.9604950236480 1.0
C      1  0.4982287748008  0.7085108677221  0.2878492678032 1.0
C      1  0.5007348240708  0.7120459764922  0.7109947297071 1.0
C      1  0.4981935486160  0.2913560702550  0.2878733545237 1.0
C      1  0.5007033282761  0.2878484789884  0.7109993320165 1.0
C      1  0.2947264780893  0.2403519633498  0.1429635747458 1.0
C      1  0.7061494490970  0.2300897447709  0.8502613787540 1.0
C      1  0.2947643028593  0.7595445026289  0.1429552384436 1.0
C      1  0.7061922378228  0.7697839394205  0.8502654029623 1.0
C      1  0.8594546994840  0.6843396451078  0.6053827998589 1.0
C      1  0.1378785176738  0.6785200856481  0.4037648677486 1.0
C      1  0.8594439945316  0.3155582260681  0.6053710008857 1.0
C      1  0.1378372909434  0.3214294109601  0.4037681380265 1.0
C      1  0.8736571325782  0.1598922585462  0.4205481485694 1.0
C      1  0.1222358013084  0.1706931760601  0.5819346513076 1.0
C      1  0.8737121634122  0.8400334448749  0.4205881495070 1.0
C      1  0.1222707612457  0.8292245687828  0.5819386316484 1.0
C      1  0.6209760487741  0.6628010354523  0.8421186225270 1.0
C      1  0.3743493963411  0.6395190596511  0.1404084349496 1.0
C      1  0.6209266567307  0.3370547078569  0.8421040306833 1.0
C      1  0.3743291658119  0.3603670301765  0.1404119903853 1.0
C      1  0.3204853565416  0.7008182246321  0.8948598854094 1.0
C      1  0.6806230137683  0.7006174813468  0.1059767853339 1.0
C      1  0.3204378293415  0.2990928386014  0.8948669706939 1.0
C      1  0.6805418362593  0.2992422057047  0.1059809704911 1.0
C      1  0.8383808628065  0.6279263655339  0.1285723374089 1.0
C      1  0.1748907259656  0.6144923050223  0.8939766193955 1.0
C      1  0.8383169021026  0.3719350554459  0.1285806849214 1.0
C      1  0.1748783520796  0.3854530933047  0.8939999475383 1.0
C      1  0.1681004499264  0.7813662590251  0.2455892771975 1.0
C      1  0.8316393778251  0.7965571125234  0.7526896653037 1.0
C      1  0.1680297876980  0.2185932393052  0.2455780209027 1.0
C      1  0.8316108585521  0.2033269982254  0.7526841458211 1.0
C      1  0.5676908215838  0.2275117304208  0.6679431074280 1.0
C      1  0.4301377349018  0.2324169189322  0.3288734958252 1.0
C      1  0.5677338215862  0.7723722874801  0.6679494821958 1.0
C      1  0.4301722056372  0.7674616750958  0.3288441741710 1.0
C      1  0.2119057462537  0.2044879319179  0.1761544465097 1.0
C      1  0.7863093685103  0.1889326350328  0.8213943333074 1.0
C      1  0.2119735507911  0.7954735640935  0.1761576086551 1.0
C      1  0.7863399312380  0.8109585280564  0.8214012376445 1.0
C      1  0.6896213789927  0.5454818966871  0.7170973043931 1.0
C      1  0.3090407522507  0.5453087194043  0.2934384602814 1.0
C      1  0.6896193702421  0.4544136060823  0.7170964057383 1.0
C      1  0.3090278739078  0.4545721188285  0.2934271438895 1.0
C      1  0.5137356789027  0.7023471075668  0.1862518789741 1.0
C      1  0.4655038312680  0.7368496257810  0.8025324351206 1.0
C      1  0.5136950122782  0.2975084115031  0.1862710282606 1.0
C      1  0.4654490587837  0.2630209605265  0.8025342398760 1.0
C      1  0.4569955162803  0.8306563329057  0.8608727574437 1.0
C      1  0.5354293147028  0.8408069246639  0.1171821556473 1.0
C      1  0.4569562483206  0.1692448433087  0.8608300724049 1.0
C      1  0.5354032338500  0.1590554009084  0.1171740308713 1.0
C      1  0.9263629772101  0.5904974448531  0.5049529689868 1.0
C      1  0.9924991329458  0.5854505059120  0.4485360851661 1.0
C      1  0.9263700911756  0.4094377119939  0.5049739297995 1.0
C      1  0.9925019102510  0.4145522374445  0.4485530428981 1.0
C      1  0.6096167925629  0.2332194354235  0.4027998555074 1.0
C      1  0.3853091256405  0.2192834498704  0.6068198487795 1.0
C      1  0.6096823398497  0.7666746746176  0.4026970591396 1.0
C      1  0.3853647791977  0.7806042870987  0.6067820438359 1.0
C      1  0.7653359513573  0.8687269171296  0.5418477806815 1.0
C      1  0.2261514408635  0.8694433919443  0.4579391517513 1.0
C      1  0.7653344013516  0.1311522074587  0.5418530046349 1.0
C      1  0.2261007981956  0.1304994786145  0.4579008481089 1.0
C      1  0.5867282710155  0.2830812905855  0.3293022315289 1.0
C      1  0.4222984133006  0.3001098680702  0.6462709859301 1.0
C      1  0.5867759338490  0.7168433975594  0.3292430197618 1.0
C      1  0.4223403832164  0.6997864648611  0.6462639733755 1.0
C      1  0.6748604405130  0.4502032587563  0.9565800754236 1.0
C      1  0.3276151125738  0.4415454083084  0.0953018208670 1.0
C      1  0.6748942835369  0.5497273695715  0.9565969310345 1.0
C      1  0.3276308773932  0.5583590824012  0.0952943931865 1.0
C      1  0.3814400300238  0.7386093937657  0.9715644309340 1.0
C      1  0.6201409065822  0.7355046707130  0.0226563649291 1.0
C      1  0.3813977575647  0.2612770491278  0.9715641554439 1.0
C      1  0.6200956116740  0.2643641329298  0.0226550900125 1.0
C      1  0.7005638128346  0.5519315949626  0.1973477189503 1.0
C      1  0.3113025654392  0.5501411417929  0.8336773673274 1.0
C      1  0.7005393104463  0.4478955407354  0.1973264197697 1.0
C      1  0.3112913630549  0.4497751524139  0.8336831686901 1.0
C      1  0.7733985625364  0.3939744855700  0.4228708128038 1.0
C      1  0.2541571357035  0.3906181246407  0.5871381840986 1.0
C      1  0.7733340558299  0.6059269012812  0.4228775629669 1.0
C      1  0.2541786456823  0.6093020121761  0.5871385735994 1.0
C      1  0.1109947914279  0.4079371645552  0.8484096852945 1.0
C      1  0.9188823042638  0.3761415394769  0.1428720786531 1.0
C      1  0.1110311450644  0.5920196214036  0.8484127314817 1.0
C      1  0.9189604812763  0.6238326290982  0.1428286526966 1.0
C      1  0.7170114306784  0.3137694445880  0.5701311402673 1.0
C      1  0.2836945235088  0.3224859488267  0.4350192704026 1.0
C      1  0.7170155465994  0.6861365975024  0.5701699409857 1.0
C      1  0.2837322492592  0.6774238627318  0.4350218229880 1.0
C      1  0.2907975492070  0.0466318339473  0.3162178110937 1.0
C      1  0.7056092802397  0.0469019558646  0.6818581261725 1.0
C      1  0.2907924168435  0.9532577525003  0.3162210261411 1.0
C      1  0.7056264302841  0.9529630145695  0.6818902201753 1.0
C      1  0.6208037715817  0.8231368832233  0.0790363733804 1.0
C      1  0.3726841168559  0.8248967535133  0.9152191783863 1.0
C      1  0.6207719387854  0.1767084639566  0.0789869124789 1.0
C      1  0.3726259212456  0.1750040696211  0.9151961191175 1.0
C      1  0.5281691370316  0.4547349565506  0.1436979531133 1.0
C      1  0.4860759747195  0.4535379472256  0.8609085324522 1.0
C      1  0.5281784390159  0.5451165688294  0.1436940248918 1.0
C      1  0.4860834924949  0.5463538469060  0.8609027799297 1.0
C      1  0.9547410601222  0.3007387317523  0.3423733000640 1.0
C      1  0.0218014656982  0.3184153928250  0.6377224487267 1.0
C      1  0.9548921700510  0.6993044669380  0.3423975580636 1.0
C      1  0.0218170852684  0.6815067695672  0.6377078875354 1.0
C      1  0.8296642164838  0.6023625813017  0.8803823645400 1.0
C      1  0.1522224331362  0.5540685712262  0.1441627181812 1.0
C      1  0.8296233735780  0.3974671240515  0.8803782396359 1.0
C      1  0.1521907023078  0.4459076788678  0.1441765296348 1.0
C      1  0.4589324398276  0.6372368483602  0.5716385377433 1.0
C      1  0.5370485937342  0.6312142879802  0.4535840262581 1.0
C      1  0.4589049969954  0.3626415232662  0.5716445784582 1.0
C      1  0.5370227079372  0.3686766562973  0.4536093050661 1.0
C      1  0.7441529170787  0.6119281810388  0.1148823331557 1.0
C      1  0.2707775695816  0.6086683711697  0.9109443190738 1.0
C      1  0.7440875549841  0.3879056248414  0.1148572453204 1.0
C      1  0.2707522081919  0.3912615204428  0.9109544547663 1.0
C      1  0.7054918179727  0.8034704352242  0.1292124363751 1.0
C      1  0.2883054842318  0.7981790814138  0.8695354244479 1.0
C      1  0.7054597439276  0.1963559241681  0.1291813519280 1.0
C      1  0.2882485671138  0.2017453986559  0.8695326818631 1.0
C      1  0.4635514679362  0.0870833252520  0.2650155526257 1.0
C      1  0.5335260031313  0.0832059171698  0.7261651257239 1.0
C      1  0.4635657395605  0.9127615574694  0.2650264058455 1.0
C      1  0.5335016557664  0.9166057228650  0.7261094446873 1.0
C      1  0.2233834978583  0.4103808460460  0.3006577647504 1.0
C      1  0.7635555936057  0.3909736281992  0.7208999673558 1.0
C      1  0.2234147372287  0.5895368004600  0.3006562204287 1.0
C      1  0.7635485887013  0.6089338277095  0.7209162919479 1.0
C      1  0.5906037753846  0.9069956693345  0.4836780553069 1.0
C      1  0.4062013073846  0.9101216261224  0.5103407674300 1.0
C      1  0.5905593160771  0.0928572318196  0.4836956940038 1.0
C      1  0.4061623666628  0.0897888390667  0.5103409296025 1.0
C      1  0.5611512782895  0.5979807432786  0.8219205710662 1.0
C      1  0.4629811592787  0.6131744637219  0.1753938404360 1.0
C      1  0.5611317652441  0.4019016114331  0.8219245668790 1.0
C      1  0.4629614021049  0.3866908005658  0.1754003935328 1.0
C      1  0.6603962953837  0.9445816596544  0.4249332795279 1.0
C      1  0.3328085653907  0.9459011693225  0.5675666552063 1.0
C      1  0.6603637591799  0.0552660171770  0.4249590214511 1.0
C      1  0.3327849333611  0.0540078909600  0.5675714203754 1.0
C      1  0.6729019247481  0.2809968160241  0.7774038116833 1.0
C      1  0.3297674842740  0.2910715713954  0.2116176636875 1.0
C      1  0.6729548798299  0.7188602991999  0.7774039684746 1.0
C      1  0.3297841397815  0.7087977536180  0.2115993811216 1.0
C      1  0.0816710518698  0.6062220466088  0.1873640273520 1.0
C      1  0.9035388262805  0.6433624559420  0.8397687772409 1.0
C      1  0.0815897334754  0.3938222608323  0.1874032257740 1.0
C      1  0.9035037282519  0.3564758853354  0.8397715424835 1.0
C      1  0.9900482697297  0.7731721824157  0.6080776071214 1.0
C      1  0.0078432535992  0.7627410434282  0.3844403713862 1.0
C      1  0.9900387087997  0.2267317668755  0.6080765917019 1.0
C      1  0.0077369532646  0.2372651109183  0.3843845559715 1.0
C      1  0.5205030559276  0.7565436449066  0.8857910516570 1.0
C      1  0.4783524983741  0.7568206655551  0.1076932180065 1.0
C      1  0.5204576780828  0.2433445384431  0.8857962151937 1.0
C      1  0.4783196503533  0.2430440928768  0.1077008007990 1.0
C      1  0.9138438116290  0.1788357783168  0.6020406535078 1.0
C      1  0.0851591922671  0.1869598034361  0.3945314285854 1.0
C      1  0.9138492384441  0.8210619314468  0.6020560495244 1.0
C      1  0.0852655530848  0.8130321898246  0.3945518856753 1.0
C      1  0.1621524007142  0.5502722496911  0.4555580343153 1.0
C      1  0.7898190991480  0.5444858200889  0.5731769082836 1.0
C      1  0.1621446045211  0.4496648216414  0.4555549479752 1.0
C      1  0.7898144240648  0.4554234862631  0.5731798238312 1.0
C      1  0.3399750592744  0.2451769043544  0.3044477779635 1.0
C      1  0.6581041141908  0.2316930127241  0.6896530901958 1.0
C      1  0.3400126667218  0.7546851158714  0.3044453552719 1.0
C      1  0.6581383277384  0.7681987707925  0.6896791097893 1.0
C      1  0.5319995716249  0.8295547790764  0.5989624377729 1.0
C      1  0.4652148744654  0.8267866320427  0.3958646597425 1.0
C      1  0.5319523706499  0.1703353609391  0.5989641721214 1.0
C      1  0.4651789576947  0.1730906665394  0.3958721772243 1.0
C      1  0.3730050825156  0.2665462189433  0.0800287729657 1.0
C      1  0.6283887020953  0.2615520366198  0.9127718465288 1.0
C      1  0.3730362766046  0.7333426743909  0.0800222631246 1.0
C      1  0.6284334278741  0.7383265504012  0.9127686619357 1.0
C      1  0.0174053176766  0.5503913447132  0.3595600363044 1.0
C      1  0.9564487299953  0.5452082860649  0.6581919844353 1.0
C      1  0.0173865653000  0.4496354178045  0.3595770397652 1.0
C      1  0.9564303390683  0.4547207963065  0.6582075643735 1.0
C      1  0.7557530215783  0.6972368327958  0.4739440511363 1.0
C      1  0.2485682542003  0.6970491081972  0.5294101385138 1.0
C      1  0.7557749369290  0.3026256178462  0.4738774500851 1.0
C      1  0.2485281163478  0.3028701867946  0.5294075441882 1.0
C      1  0.5868583729311  0.0963648871309  0.5740740449383 1.0
C      1  0.4131414817318  0.0962010635916  0.4193571256994 1.0
C      1  0.5869102488698  0.9035175908724  0.5740598825697 1.0
C      1  0.4131682713909  0.9036734379786  0.4193587868992 1.0
C      1  0.2393551227265  0.1671506736706  0.8032148806668 1.0
C      1  0.7538947665068  0.1560384058051  0.1920591823080 1.0
C      1  0.2394088144126  0.8327855951015  0.8032270316826 1.0
C      1  0.7538850879483  0.8437736826396  0.1921569713784 1.0
C      1  0.0791346604740  0.2633580663005  0.5768863104854 1.0
C      1  0.9142850220702  0.2490161598873  0.4160592168822 1.0
C      1  0.0791568518128  0.7365715126749  0.5768741995647 1.0
C      1  0.9143603377401  0.7509418066281  0.4160677493198 1.0
C      1  0.8772998514695  0.5468829118108  0.3011634729718 1.0
C      1  0.1045306038403  0.5445357605952  0.6271275840665 1.0
C      1  0.8772747611875  0.4534365664243  0.3011705555304 1.0
C      1  0.1045229983897  0.4553955191965  0.6271214216959 1.0
C      1  0.8344803724380  0.4473592683702  0.4851905477249 1.0
C      1  0.1771989320030  0.4472967633949  0.5592995070756 1.0
C      1  0.8344669258689  0.5525542852554  0.4851677049889 1.0
C      1  0.1772083832495  0.5526378443084  0.5593030744424 1.0
C      1  0.2617222988971  0.8740819092640  0.5539124993816 1.0
C      1  0.7326853103614  0.8733500990534  0.4409751931628 1.0
C      1  0.2616810097719  0.1258389873889  0.5538969702585 1.0
C      1  0.7326471213818  0.1264903464452  0.4410189343465 1.0
C      1  0.7733275827232  0.8332604018418  0.2823805632235 1.0
C      1  0.2344778525330  0.8364576661745  0.7134404491658 1.0
C      1  0.7731512662429  0.1664614651563  0.2823767090996 1.0
C      1  0.2344505426635  0.1634251217288  0.7134331575161 1.0
C      1  0.9391547238053  0.3747001598949  0.5985063993171 1.0
C      1  0.0810962867666  0.4024580515464  0.4196515752466 1.0
C      1  0.9391586874231  0.6252095078527  0.5984974147402 1.0
C      1  0.0811165295633  0.5975088430547  0.4196648341329 1.0
C      1  0.3715575649632  0.6345438179963  0.4158481791809 1.0
C      1  0.6305033974635  0.6425822254893  0.5943016841729 1.0
C      1  0.3715331692035  0.3653384519164  0.4158461037667 1.0
C      1  0.6304986752070  0.3573439003352  0.5942882686894 1.0
C      1  0.7600199583963  0.9537068136216  0.5949688913746 1.0
C      1  0.2338993088666  0.9532022217043  0.4023533225686 1.0
C      1  0.7600192005176  0.0461861271564  0.5949708983888 1.0
C      1  0.2338753957928  0.0467276938347  0.4023326681511 1.0
C      1  0.5884383393996  0.5750308258534  0.3903734924861 1.0
C      1  0.4240295407182  0.5529813950136  0.6133706693637 1.0
C      1  0.5884748572913  0.4247623776181  0.3903554682392 1.0
C      1  0.4240184036007  0.4469091981751  0.6133768974927 1.0
C      1  0.1376678590083  0.1737718302989  0.4794469603976 1.0
C      1  0.8571727515395  0.1668136338954  0.5198614824460 1.0
C      1  0.1377387782214  0.8261627276370  0.4794675663537 1.0
C      1  0.8571779906767  0.8330842187326  0.5198837440109 1.0
C      1  0.4465226386655  0.8399861598874  0.5681730465462 1.0
C      1  0.5500978462231  0.8297659107193  0.4338376988492 1.0
C      1  0.4464808877954  0.1599132025105  0.5681856187342 1.0
C      1  0.5500669883001  0.1700952919100  0.4338637102145 1.0
C      1  0.6154613244200  0.4102146746690  0.6701172608424 1.0
C      1  0.3847804588555  0.4085939310611  0.3328769571874 1.0
C      1  0.6154717518424  0.5896919401550  0.6701239445609 1.0
C      1  0.3847981452679  0.5912824017810  0.3328871278427 1.0
C      1  0.1878795055374  0.1304708752580  0.6294608382606 1.0
C      1  0.8089627482388  0.1231517804255  0.3694049307758 1.0
C      1  0.1879131373648  0.8694368870341  0.6294750584130 1.0
C      1  0.8090216988061  0.8766800061290  0.3693854066667 1.0
C      1  0.0630006808078  0.5472694275997  0.7824962183939 1.0
C      1  0.9923904520728  0.6156015674398  0.2007730532247 1.0
C      1  0.0629973654685  0.4526828978345  0.7825023442965 1.0
C      1  0.9923048096662  0.3844674855631  0.2008074796185 1.0
C      1  0.1484799144002  0.2768001917015  0.4981259873596 1.0
C      1  0.8503160408957  0.2706282363589  0.5037769625590 1.0
C      1  0.1485284226546  0.7231313974001  0.4981254949262 1.0
C      1  0.8503209376191  0.7292615580852  0.5037908715797 1.0
C      1  0.2705385579719  0.3832864519568  0.6866844469394 1.0
C      1  0.8046332565565  0.3928982453273  0.3261682591995 1.0
C      1  0.2705738597675  0.6166252302441  0.6866783348380 1.0
C      1  0.8046080508886  0.6074755398326  0.3261623605928 1.0
C      1  0.7319519970250  0.4500827448141  0.0380505897560 1.0
C      1  0.2842760060736  0.4466376622997  0.9970319682868 1.0
C      1  0.7319818242208  0.5497723937525  0.0380684138225 1.0
C      1  0.2842897089356  0.5532872702075  0.9970242217661 1.0
C      1  0.3358440361275  0.3108305666686  0.7115286723313 1.0
C      1  0.6655504806473  0.3085610973828  0.2762250222733 1.0
C      1  0.3358839758896  0.6890808483458  0.7115221906079 1.0
C      1  0.6655741484093  0.6912243686104  0.2762207863022 1.0
C      1  0.2140688971701  0.3821581113344  0.3958992804840 1.0
C      1  0.7812240523308  0.3724526454257  0.6227495382471 1.0
C      1  0.2140942675214  0.6177658636444  0.3958990059427 1.0
C      1  0.7812328521863  0.6274419178773  0.6227646521556 1.0
C      1  0.5897331568262  0.4999007665462  0.4512960563341 1.0
END
