TITL C-141225-8424-3 -8.082 3375.00 -1471.05770349 0 0 180 (C1) n - 1
REM
REM Run started: at 2020.12.23 07:22:03 in /rds/project/t2_vol4/rds-t2-cs072/BORA/CARBON/AIRSS/Generating-Clusters/Str-Search/Higher-Symm/Only-C180
REM VASP from code version vasp.5.4.4.18Apr17-6-g9f103f2a35 (build Oct 11 2019 16:45:47) gamma-only
REM
REM
REM
REM
REM ./C.cell (f712cfaf3acf65fd2d5dcba0fd1fd40b)
REM AIRSS Version 0.9.1 bugfix July 2018 build 013d7b7c2542+ Fri, 06 Jul 2018 19:26:36 +0100
REM compiler GCC version 4.8.5 20150623 (Red Hat 4.8.5-39)
REM options -cpp -mtune=generic -march=x86-64 -g -O0
REM seed -1637276986 -1339994191 950901781 473556150 397160888 2090817302 1187535173 847792003 -1803065187 -271092975 2111710036 1812147045
REM
REM C.POTCAR (d86ddea03c3ceb6dc662c8ad6801f873)
REM 
CELL 1.54180   15.00000   15.00000   15.00000   90.00000   90.00000   90.00000
LATT -1
SFAC C  
C      1  0.4852849890002  0.3512247518709  0.6039818868118 1.0
C      1  0.6518985040852  0.6543421432454  0.5344924244540 1.0
C      1  0.8166030327964  0.4528597721827  0.4222194196816 1.0
C      1  0.4265143382380  0.5155144810496  0.0392216994279 1.0
C      1  0.4523609414806  0.1111671616588  0.2436825663761 1.0
C      1  0.5213544338779  0.0663141424193  0.2207748282204 1.0
C      1  0.7446934816463  0.7142466075398  0.6533269354665 1.0
C      1  0.6731920394471  0.3237948667828  0.7357788724981 1.0
C      1  0.5788928766660  0.7749474408798  0.3772277529891 1.0
C      1  0.6226398165296  0.2180017625173  0.3884127891460 1.0
C      1  0.3309422752678  0.4076378743299  0.3622729511427 1.0
C      1  0.4476426830706  0.5953863885091  0.0772910720430 1.0
C      1  0.8076809208026  0.4900820839937  0.6368623404219 1.0
C      1  0.1644447093702  0.4613386805770  0.4175509135115 1.0
C      1  0.6700148593419  0.1792578635417  0.4697737534100 1.0
C      1  0.3940750171902  0.7914018490851  0.6856544392040 1.0
C      1  0.5705972199999  0.5316457834647  0.6093403462334 1.0
C      1  0.4333509195633  0.5868677439502  0.3001147558552 1.0
C      1  0.8188878541297  0.7214290012742  0.5721394766541 1.0
C      1  0.6327283271544  0.8108481438361  0.6579858570173 1.0
C      1  0.3185771940998  0.3007031125887  0.8186666901197 1.0
C      1  0.7452493147065  0.4986622812783  0.7908504401819 1.0
C      1  0.3540884119277  0.7083921357596  0.7813223247873 1.0
C      1  0.7216662166716  0.7858430095969  0.4613745179577 1.0
C      1  0.7687008502388  0.2884628218923  0.4088244666877 1.0
C      1  0.4300726538917  0.7026421978105  0.4245188703878 1.0
C      1  0.1487680209457  0.6543731960990  0.5805913496824 1.0
C      1  0.5298056225161  0.7072730521452  0.4350557400491 1.0
C      1  0.3654584335279  0.5735065809794  0.5278105988543 1.0
C      1  0.4368636718887  0.5932703579741  0.6760116902606 1.0
C      1  0.6122038826360  0.1805755771429  0.5459233796296 1.0
C      1  0.5101850234821  0.8231183619851  0.3241055427391 1.0
C      1  0.3846774316172  0.6198529799674  0.4515349004459 1.0
C      1  0.5225860946642  0.2273732744924  0.4174173400602 1.0
C      1  0.4968894276984  0.6963161896332  0.2060949150296 1.0
C      1  0.1967915407314  0.3735620040192  0.4265225847279 1.0
C      1  0.2775013903035  0.8014457694072  0.5701005241599 1.0
C      1  0.3851465216690  0.6307363854420  0.6021635365964 1.0
C      1  0.8073102354384  0.6494747783514  0.5155878142614 1.0
C      1  0.1220962719366  0.5827898778275  0.5164979141419 1.0
C      1  0.5171772892721  0.3885466052154  0.1376876095966 1.0
C      1  0.2682857501891  0.4320141362206  0.7693168665681 1.0
C      1  0.4375804004610  0.4334049140671  0.0945756418885 1.0
C      1  0.6968408295660  0.4180347255118  0.5442174479403 1.0
C      1  0.5225724062846  0.3895773765586  0.7772915357590 1.0
C      1  0.4012913069188  0.1839686286782  0.2640505828685 1.0
C      1  0.6643122468766  0.5000021737325  0.9331505938095 1.0
C      1  0.6501529843892  0.4983620400804  0.7504438762058 1.0
C      1  0.2022901208550  0.6256985058816  0.3730087128755 1.0
C      1  0.2871603704937  0.7635791892890  0.4149297389107 1.0
C      1  0.3612450745696  0.3950922539257  0.1210141158377 1.0
C      1  0.4103550955239  0.7290338988859  0.5986332757386 1.0
C      1  0.5791072362544  0.6424039685978  0.9279186143212 1.0
C      1  0.8275342233907  0.3338137401286  0.5392295658552 1.0
C      1  0.2951971990306  0.2104632676780  0.4765159022352 1.0
C      1  0.6739786220365  0.7561132758712  0.7237287101233 1.0
C      1  0.6000305750531  0.2562792622756  0.7027859259048 1.0
C      1  0.7785533631982  0.3921776141006  0.6103274008432 1.0
C      1  0.5939165593477  0.5562423512451  0.9046563573386 1.0
C      1  0.3522441246736  0.1901241583388  0.3457472548998 1.0
C      1  0.2212828126026  0.4317136345859  0.1971777158560 1.0
C      1  0.7747526862679  0.8055617720939  0.5384894969372 1.0
C      1  0.5281854639468  0.4009007139895  0.2390601319697 1.0
C      1  0.2883011155068  0.2473223669699  0.3860213715096 1.0
C      1  0.5000275145860  0.6672868655352  0.7036865937436 1.0
C      1  0.5236974431037  0.7879063319832  0.2332333929691 1.0
C      1  0.6007604378101  0.4594334900446  0.5483568573300 1.0
C      1  0.2042401666880  0.5275374755636  0.3504399337351 1.0
C      1  0.5094774811705  0.8853309912064  0.4737490214903 1.0
C      1  0.7322026204477  0.4931407138370  0.8840129045176 1.0
C      1  0.3229081118669  0.6187011050780  0.7777551775716 1.0
C      1  0.2043585792739  0.6691821978236  0.6569914498595 1.0
C      1  0.8006893331560  0.6172200350278  0.2211794771713 1.0
C      1  0.2486021893445  0.7577513059291  0.6546771892103 1.0
C      1  0.3559597891841  0.4654607385038  0.5351651480030 1.0
C      1  0.6358893937600  0.1640485308091  0.3076860146974 1.0
C      1  0.6782371635553  0.5011878593571  0.4208596758154 1.0
C      1  0.5314109481795  0.8215107290982  0.6397626171891 1.0
C      1  0.7452382033230  0.3218587530624  0.6787110941696 1.0
C      1  0.2475336871692  0.6037924762663  0.7173106586280 1.0
C      1  0.5430160155254  0.3805839880609  0.5235194122894 1.0
C      1  0.7126613824926  0.7991345583808  0.6064564910104 1.0
C      1  0.1328149303899  0.4931062974221  0.5028593640973 1.0
C      1  0.2662977516520  0.4212950857309  0.5605640754657 1.0
C      1  0.1597993466963  0.7154432603090  0.5053429936709 1.0
C      1  0.5881586396822  0.6718992675976  0.3570642812231 1.0
C      1  0.6172466248198  0.4025107994444  0.7429380736356 1.0
C      1  0.4087447817830  0.2922070281125  0.8416018611523 1.0
C      1  0.2976632395213  0.3900141348553  0.8509161284493 1.0
C      1  0.3573425628203  0.3442190754530  0.2040889504870 1.0
C      1  0.3448016885035  0.4713266957775  0.7088863803689 1.0
C      1  0.5283130336523  0.6267419527815  0.2785723861447 1.0
C      1  0.6411448160668  0.3556707307774  0.4853776302631 1.0
C      1  0.3889726997247  0.4215975248915  0.4471075162761 1.0
C      1  0.4852541757402  0.3950478309888  0.4372546633210 1.0
C      1  0.6103602680465  0.7072013463790  0.8799080352066 1.0
C      1  0.4558686614252  0.2563583200477  0.5818386720396 1.0
C      1  0.4920528249092  0.4919585714528  0.7643267561677 1.0
C      1  0.7406841321713  0.2397866565503  0.6277895627524 1.0
C      1  0.7235418471412  0.6839905583989  0.4580052809209 1.0
C      1  0.3818454616163  0.7929393024454  0.4380074878734 1.0
C      1  0.5961713168157  0.2523793183494  0.1555120451935 1.0
C      1  0.5836772471263  0.6299662169930  0.7448830848302 1.0
C      1  0.7760692935235  0.5620550051599  0.5647068776227 1.0
C      1  0.4522027259979  0.8558640106243  0.3942244587489 1.0
C      1  0.3881469963235  0.5087928484555  0.2837185477269 1.0
C      1  0.5729276451018  0.5446545392066  0.8020670772983 1.0
C      1  0.4297173972795  0.2703155053117  0.2187765265930 1.0
C      1  0.1449577238524  0.6455884450580  0.4426889481756 1.0
C      1  0.3932441172411  0.5445573690120  0.7558575142403 1.0
C      1  0.7019495847842  0.6231018015127  0.6170087156200 1.0
C      1  0.6050712584133  0.9013665350211  0.4699233676187 1.0
C      1  0.6853644811529  0.6462660741402  0.3735163614724 1.0
C      1  0.5731581205685  0.5898187042241  0.5265888531970 1.0
C      1  0.2968180144963  0.4933745654089  0.3236817150312 1.0
C      1  0.4498298831741  0.7355871824236  0.7595069740682 1.0
C      1  0.3912159452862  0.2115600157085  0.6400624064239 1.0
C      1  0.3352413330512  0.4392947951777  0.9179314802507 1.0
C      1  0.6726756201083  0.3114885782149  0.3943581876225 1.0
C      1  0.4575501229784  0.1819105304915  0.6984532092737 1.0
C      1  0.4689208709289  0.6572395501489  0.1297213308681 1.0
C      1  0.2310973543451  0.7757843132857  0.4929373568441 1.0
C      1  0.7950205228551  0.2428688662394  0.5517723362974 1.0
C      1  0.4645689280544  0.1546229914936  0.4548255473538 1.0
C      1  0.6767099538145  0.7273896579395  0.1817262650444 1.0
C      1  0.5875917817939  0.5533185009115  0.2435543840589 1.0
C      1  0.6501529145607  0.2107861176789  0.6258307928242 1.0
C      1  0.3771006552621  0.6461650336948  0.3572334764713 1.0
C      1  0.5342292414958  0.1882681808996  0.7338526321555 1.0
C      1  0.6110666135805  0.7766477452413  0.1999928780991 1.0
C      1  0.3744507939685  0.4941570709470  0.9655023687850 1.0
C      1  0.6456981753614  0.8288937634471  0.4271760067160 1.0
C      1  0.2292697871257  0.3632786102590  0.7136599356344 1.0
C      1  0.6360980417267  0.5719274219454  0.6758676177989 1.0
C      1  0.2130745687738  0.4314611968837  0.6450938049288 1.0
C      1  0.2143795925195  0.4887501965441  0.2605602844998 1.0
C      1  0.6333786240902  0.7056470074889  0.7932463352170 1.0
C      1  0.5095070411951  0.2830765542605  0.1542291783058 1.0
C      1  0.6570524467457  0.3219365383854  0.1283676282574 1.0
C      1  0.4827903799337  0.3102980036489  0.3824421945757 1.0
C      1  0.2638214475034  0.3364907806350  0.3728537951838 1.0
C      1  0.3013750123238  0.2407152060880  0.6436964229218 1.0
C      1  0.4153628004607  0.4409828927433  0.6237465899621 1.0
C      1  0.1623441124035  0.4252335699616  0.5650899817762 1.0
C      1  0.2746007369329  0.3752674791935  0.1518281108242 1.0
C      1  0.5448899039161  0.3461118044034  0.6872192727822 1.0
C      1  0.3822879638039  0.8075661736812  0.5405955187994 1.0
C      1  0.2476805487456  0.5064659496333  0.7025522484272 1.0
C      1  0.5096494528467  0.7217802238866  0.6123123560681 1.0
C      1  0.6625813937543  0.5614033946258  0.1913465112068 1.0
C      1  0.5573422705847  0.6864242207312  0.5298956158410 1.0
C      1  0.4740504544616  0.8623599886048  0.5565322359534 1.0
C      1  0.2621329430713  0.2573082174577  0.5524588012180 1.0
C      1  0.2732431965588  0.2834880574181  0.7276781834381 1.0
C      1  0.8249285081208  0.3584856088793  0.4460225444769 1.0
C      1  0.5154968803270  0.2017911520403  0.5233352514141 1.0
C      1  0.3743038942049  0.1569973306914  0.4367539347665 1.0
C      1  0.5510533987929  0.4550633731801  0.3875394033516 1.0
C      1  0.8063874282567  0.5109196709528  0.3473977043183 1.0
C      1  0.5585663321738  0.4703193496865  0.2860266089788 1.0
C      1  0.2115889627654  0.3460001638410  0.5223465567735 1.0
C      1  0.6107783682957  0.3985797602245  0.1030298668471 1.0
C      1  0.4859375366667  0.5093901677093  0.6573251642117 1.0
C      1  0.6411048994345  0.4066208013890  0.3971993145653 1.0
C      1  0.5898185114317  0.5173342159513  0.4600984051258 1.0
C      1  0.7183866549181  0.6440200767467  0.1833928888488 1.0
C      1  0.4694345476092  0.3362775860275  0.2898899181417 1.0
C      1  0.7990371260500  0.5256048662084  0.2475486280210 1.0
C      1  0.7479094018836  0.4891889462522  0.4920688035466 1.0
C      1  0.7587942491921  0.2110880652413  0.4704285280890 1.0
C      1  0.4842273749877  0.3265756112524  0.8404796673256 1.0
C      1  0.3896959219992  0.4045950186629  0.2814328322631 1.0
C      1  0.5911159236695  0.1093517343413  0.2632795411499 1.0
C      1  0.2809918936490  0.6840901654937  0.3634201450237 1.0
C      1  0.3097540902173  0.7701412886868  0.7237479707351 1.0
C      1  0.7238975627886  0.5611320404065  0.3610954693325 1.0
C      1  0.6942944921876  0.4089461837209  0.1510305374547 1.0
C      1  0.7268601345151  0.4827828623048  0.1934675460274 1.0
C      1  0.4722022531686  0.8286119250668  0.7229227348171 1.0
C      1  0.8053219459641  0.5025389681373  0.7247939082148 1.0
END
