TITL C-14430-655-24 -5.594 3375.00 -951.08707570 0 0 118 (C1) n - 1
REM
REM Run started: at 2020.12.27 17:55:45 in /gpfs/home/chem/mssmkc/CARBON/AIRSS/Generating-Clusters/Str-Search/Higher-Symm/C100-200
REM VASP from code version vasp.5.4.4.18Apr17-6-g9f103f2a35 (build Oct 11 2019 16:45:47) gamma-only
REM
REM
REM
REM
REM ./C.cell (533062f00bc710175b3da973d35f2034)
REM AIRSS Version 0.9.1 bugfix July 2018 build 013d7b7c2542+ Fri, 06 Jul 2018 19:26:36 +0100
REM compiler GCC version 6.3.0
REM options -cpp -iprefix /gpfs/warwick/csc/orac/software/Core/GCCcore/6.3.0/bin/../lib/gcc/x86_64-pc-linux-gnu/6.3.0/ -mtune=generic -march=x86-64 -g -O0
REM seed 1808652246 -1426179991 -1737566210 -1299165818 -1230172180 1445589971 -1161469343 1775659473 893158251 597705720 -331438469 70095322
REM
REM C.POTCAR (d86ddea03c3ceb6dc662c8ad6801f873)
REM 
CELL 1.54180   15.00000   15.00000   15.00000   90.00000   90.00000   90.00000
LATT -1
SFAC C  
C      1  0.1806383528190  0.5614564828712  0.6823826174287 1.0
C      1  0.8035841973706  0.4392691569987  0.7172934857858 1.0
C      1  0.3014996497908  0.4193807669535  0.3055289549204 1.0
C      1  0.7208631106000  0.5934261194686  0.3396256084456 1.0
C      1  0.6750643733654  0.5036072690495  0.5388392315588 1.0
C      1  0.3289747521924  0.4842653033558  0.5180976747961 1.0
C      1  0.6602307239858  0.4801030390214  0.4458387518501 1.0
C      1  0.3546829936276  0.5101050641906  0.4282112988009 1.0
C      1  0.6266775332927  0.7199214127267  0.3607483608148 1.0
C      1  0.3930717414077  0.2910854419679  0.3234684670244 1.0
C      1  0.6224941261450  0.2638406889115  0.6495149726109 1.0
C      1  0.3599585481566  0.7428622899038  0.6233768391608 1.0
C      1  0.5405374469742  0.7465825649369  0.4033292877494 1.0
C      1  0.4786228985692  0.2603607744249  0.3632634251306 1.0
C      1  0.5219496443278  0.2627382850627  0.6318960987884 1.0
C      1  0.4612500031760  0.7338649176376  0.6308623359966 1.0
C      1  0.7603781983054  0.3827557023755  0.5788401497411 1.0
C      1  0.2367265533783  0.6125184222179  0.5457384338269 1.0
C      1  0.7907107047971  0.6344142062190  0.4745160162850 1.0
C      1  0.2194188145505  0.3681225386194  0.4298886766150 1.0
C      1  0.6441935727686  0.2370294560919  0.3900799352107 1.0
C      1  0.3717163127271  0.7738905938958  0.4286096076601 1.0
C      1  0.6239653133933  0.7817377371591  0.6245841032932 1.0
C      1  0.3636596269777  0.2112979468129  0.5928419692497 1.0
C      1  0.7956538990346  0.5409961459884  0.4812331456417 1.0
C      1  0.2132221313078  0.4608494564581  0.4437983853382 1.0
C      1  0.7719087587231  0.4832866699552  0.5625872713540 1.0
C      1  0.2319349541955  0.5123381417901  0.5316895891009 1.0
C      1  0.6253834723910  0.5727309841885  0.6858176534288 1.0
C      1  0.3655647207113  0.4046840342362  0.6626490415398 1.0
C      1  0.5664702908796  0.4335448022218  0.3163086318433 1.0
C      1  0.4606184223978  0.5775300071081  0.3209555696119 1.0
C      1  0.2169800383524  0.2317963278441  0.6646671343166 1.0
C      1  0.7562942592308  0.7621898077709  0.7242382857163 1.0
C      1  0.2791869104808  0.6857693178238  0.3103548383106 1.0
C      1  0.7601051602700  0.3339151204976  0.3146732058403 1.0
C      1  0.6766040997845  0.3166868278233  0.7040366657893 1.0
C      1  0.2986102739483  0.6932330422746  0.6682325825828 1.0
C      1  0.6332462620175  0.6357127183526  0.3150616975151 1.0
C      1  0.3913991404409  0.3796517082541  0.2880333181939 1.0
C      1  0.5145245005284  0.3663051117269  0.1715648001241 1.0
C      1  0.5002956306203  0.6477166188731  0.1935543716547 1.0
C      1  0.5263475393068  0.6246422127929  0.7992618406605 1.0
C      1  0.4207982644496  0.3554769080622  0.8047817305069 1.0
C      1  0.4613791527257  0.7900449249627  0.3800554049111 1.0
C      1  0.5637717822478  0.2286185907655  0.3334120230045 1.0
C      1  0.4401949925661  0.2160480583050  0.6550415927046 1.0
C      1  0.5362754915069  0.7791849742428  0.6690709040870 1.0
C      1  0.1845428478123  0.4875217685267  0.6214874307030 1.0
C      1  0.8049515544775  0.5123187072311  0.6558959229601 1.0
C      1  0.2750805657296  0.5005096229528  0.3648594660930 1.0
C      1  0.7457045659084  0.5063957475728  0.3942617042121 1.0
C      1  0.4613419047893  0.6061496899533  0.8629218009838 1.0
C      1  0.4288381615279  0.3759811838070  0.8910780564021 1.0
C      1  0.4946234053537  0.3907234850405  0.0894826363287 1.0
C      1  0.5164468224044  0.6089445334667  0.1073180102798 1.0
C      1  0.2502292162969  0.3503635560031  0.3386943836637 1.0
C      1  0.7687593212247  0.6594567529997  0.3821700641646 1.0
C      1  0.2320078161937  0.6318095957011  0.6424293782760 1.0
C      1  0.7462317329566  0.3720487677621  0.6761434335049 1.0
C      1  0.4320947393053  0.5362629426177  0.8983944348556 1.0
C      1  0.4435812728290  0.4532846843218  0.9399801052337 1.0
C      1  0.4850709439411  0.4560927063435  0.0284537285901 1.0
C      1  0.5134908732834  0.5413600023328  0.0615042989992 1.0
C      1  0.3479137178217  0.2721242717583  0.5252316642887 1.0
C      1  0.6534070822581  0.7188756026346  0.5635403751534 1.0
C      1  0.3667994019003  0.6836655506227  0.4675324681641 1.0
C      1  0.6460353320007  0.2815325435977  0.4760943626067 1.0
C      1  0.7287055329752  0.4067863921717  0.2648033915376 1.0
C      1  0.3129868530264  0.6212311398172  0.2486943802599 1.0
C      1  0.7599267000831  0.6688782734466  0.7150321279370 1.0
C      1  0.2141475487957  0.3251847172490  0.6683296402598 1.0
C      1  0.4088055568099  0.6235028344183  0.2404298770808 1.0
C      1  0.6378101264987  0.4070445654101  0.2467617245850 1.0
C      1  0.3026649858755  0.3506701817727  0.7045495813710 1.0
C      1  0.6679220804711  0.6371216687613  0.7355055050782 1.0
C      1  0.6254050057412  0.5616310851889  0.5879131166572 1.0
C      1  0.3759101514287  0.4232075320027  0.5657448880802 1.0
C      1  0.5900989542152  0.4292472836794  0.4165079266326 1.0
C      1  0.4306845155488  0.5583144963571  0.4137880252312 1.0
C      1  0.7287718528128  0.7122386090179  0.5006378954793 1.0
C      1  0.2793490089043  0.2860785109388  0.4553072952767 1.0
C      1  0.7290901612588  0.3092323065283  0.5299349513570 1.0
C      1  0.2782858311203  0.6767346366514  0.4973999939846 1.0
C      1  0.3692642493305  0.2090651704893  0.7277367198333 1.0
C      1  0.5925886974472  0.7768402967109  0.7537426378742 1.0
C      1  0.4160901442888  0.7729793793471  0.2941139870035 1.0
C      1  0.6213445902157  0.2564805819681  0.2570216498764 1.0
C      1  0.6777176423758  0.8021527760081  0.7071125488626 1.0
C      1  0.2955367002776  0.1886645670498  0.6620904420671 1.0
C      1  0.7022849774564  0.2603804883269  0.3189431907864 1.0
C      1  0.3276126515753  0.7604376823434  0.3372891470708 1.0
C      1  0.5666468224032  0.3460927799765  0.4782032389966 1.0
C      1  0.4464949351150  0.6307179893038  0.4839284275907 1.0
C      1  0.5857420158591  0.6458236407102  0.5465944891418 1.0
C      1  0.4211299676256  0.3412235150321  0.5181740425554 1.0
C      1  0.5435387271084  0.5542815308166  0.7335641287855 1.0
C      1  0.4380739470511  0.4173711513376  0.7260417184965 1.0
C      1  0.4791312245692  0.4158564594551  0.2545796386926 1.0
C      1  0.5510194621210  0.6010371738463  0.2704520452650 1.0
C      1  0.3541230669709  0.2943712965602  0.7677709157054 1.0
C      1  0.5981650881815  0.6868862732526  0.7880056291910 1.0
C      1  0.4404937232915  0.7182352640393  0.2239965261947 1.0
C      1  0.6000591120691  0.3279855617362  0.2021730667617 1.0
C      1  0.6705011526590  0.2499590857153  0.5688280759281 1.0
C      1  0.3286830631767  0.7588316513994  0.5283594887444 1.0
C      1  0.7108595378222  0.7325711583789  0.4084481554895 1.0
C      1  0.3058782241142  0.2752302531314  0.3637790317229 1.0
C      1  0.7794063140452  0.4300394501763  0.3381866924224 1.0
C      1  0.2605702966718  0.5880611230696  0.3159393566616 1.0
C      1  0.8088408880039  0.5969093933178  0.6886702412734 1.0
C      1  0.1706584620459  0.4018365618978  0.6477843136376 1.0
C      1  0.5087971081746  0.3207707076194  0.5588877401334 1.0
C      1  0.4914659073954  0.6675452047491  0.5686798203069 1.0
C      1  0.5314991860024  0.6785883539276  0.4701960746466 1.0
C      1  0.4817334714565  0.3119066283026  0.4421790199226 1.0
C      1  0.5145372302675  0.5076753778907  0.2778964487480 1.0
C      1  0.4941559284354  0.4830768302653  0.7205999168190 1.0
END
