TITL C-14430-655-44 -9.558 3375.00 -1571.94648579 0 0 193 (C1) n - 1
REM
REM Run started: at 2020.12.28 08:12:11 in /gpfs/home/chem/mssmkc/CARBON/AIRSS/Generating-Clusters/Str-Search/Higher-Symm/C100-200
REM VASP from code version vasp.5.4.4.18Apr17-6-g9f103f2a35 (build Oct 11 2019 16:45:47) gamma-only
REM
REM
REM
REM
REM ./C.cell (533062f00bc710175b3da973d35f2034)
REM AIRSS Version 0.9.1 bugfix July 2018 build 013d7b7c2542+ Fri, 06 Jul 2018 19:26:36 +0100
REM compiler GCC version 6.3.0
REM options -cpp -iprefix /gpfs/warwick/csc/orac/software/Core/GCCcore/6.3.0/bin/../lib/gcc/x86_64-pc-linux-gnu/6.3.0/ -mtune=generic -march=x86-64 -g -O0
REM seed 1808787557 -173281213 1508587295 -479958378 1396531497 -333808973 828512800 -798095001 -62124795 1082794849 -874733561 -6560131
REM
REM C.POTCAR (d86ddea03c3ceb6dc662c8ad6801f873)
REM 
CELL 1.54180   15.00000   15.00000   15.00000   90.00000   90.00000   90.00000
LATT -1
SFAC C  
C      1  0.5968919186894  0.8548285303234  0.5766458218957 1.0
C      1  0.1424009748500  0.6032357306008  0.5766678349092 1.0
C      1  0.4023675797025  0.1455280245346  0.5750345179600 1.0
C      1  0.8597402515032  0.4009861348455  0.5788451243355 1.0
C      1  0.3986521027280  0.8581802101809  0.4169807443679 1.0
C      1  0.8585016920541  0.6008646474025  0.4244345484433 1.0
C      1  0.6017852505465  0.1427167402265  0.4244660980055 1.0
C      1  0.1406360536080  0.4038839223730  0.4204088243077 1.0
C      1  0.2529719065024  0.7678856503790  0.4038551361486 1.0
C      1  0.2367004142544  0.2632873436391  0.4105358403619 1.0
C      1  0.7440758108622  0.2343554621417  0.4149037048201 1.0
C      1  0.7659296028847  0.7427118636863  0.4136494558707 1.0
C      1  0.7417477636096  0.7661068840168  0.5888617778726 1.0
C      1  0.7682051637674  0.2578051922072  0.5897361095515 1.0
C      1  0.2642681000528  0.2425070029230  0.5842480964955 1.0
C      1  0.2320768893840  0.7419176541594  0.5764463276338 1.0
C      1  0.4896580538564  0.6679712481647  0.0443513337049 1.0
C      1  0.3331291660437  0.4872284495560  0.0452630107330 1.0
C      1  0.5125938025494  0.3310381104507  0.0464257485016 1.0
C      1  0.6699719348013  0.5116062143067  0.0474029069588 1.0
C      1  0.5118001865769  0.6683050043267  0.9542849319465 1.0
C      1  0.6706982008617  0.4878123665275  0.9575051910511 1.0
C      1  0.4878997230753  0.3311894304423  0.9567061617854 1.0
C      1  0.3338872919988  0.5128962586857  0.9566243982233 1.0
C      1  0.5298474639380  0.7026391306696  0.4845816183657 1.0
C      1  0.2795648437550  0.5356894135407  0.4664520704958 1.0
C      1  0.4660991404914  0.3045464551984  0.4812515372417 1.0
C      1  0.7061097392504  0.4640412822354  0.4796829361591 1.0
C      1  0.4558318757621  0.6925645872293  0.5194581541116 1.0
C      1  0.7046517559840  0.5362846842186  0.5174756018003 1.0
C      1  0.5348651936802  0.2969897295969  0.5252129419883 1.0
C      1  0.2923177431971  0.4717785492466  0.5178557287962 1.0
C      1  0.5311517590816  0.1532013243026  0.6835042450375 1.0
C      1  0.8510490444346  0.5309839230478  0.6861282971909 1.0
C      1  0.4650387057738  0.8412088703985  0.6804244698944 1.0
C      1  0.1557350580591  0.4797731955997  0.6832163451759 1.0
C      1  0.4707542837159  0.1531257792894  0.3180619054436 1.0
C      1  0.1495876810558  0.5321178941191  0.3116868921290 1.0
C      1  0.5301397975248  0.8504404939642  0.3126376362353 1.0
C      1  0.8491154702180  0.4709741916094  0.3174740850432 1.0
C      1  0.6457463074246  0.6050543460210  0.5377061326012 1.0
C      1  0.3865956448947  0.6350731267826  0.5330114765237 1.0
C      1  0.3718029515341  0.4231748658818  0.5365793213368 1.0
C      1  0.6071156750917  0.3540552909564  0.5410621584507 1.0
C      1  0.3431605076792  0.6047484424338  0.4556972860392 1.0
C      1  0.6003334782213  0.6459245361153  0.4640064284107 1.0
C      1  0.6461646814451  0.3944408002820  0.4640187363436 1.0
C      1  0.4025035780929  0.3689938864061  0.4613920937163 1.0
C      1  0.5790334318512  0.4972381465408  0.9168376668334 1.0
C      1  0.5046028875107  0.5762809146143  0.9152175405460 1.0
C      1  0.4262200613481  0.5030527059450  0.9171851380528 1.0
C      1  0.4990930396452  0.4232232076862  0.9177667502143 1.0
C      1  0.4251150870092  0.4968978101018  0.0857583698586 1.0
C      1  0.4989702744615  0.5765550299472  0.0857870811894 1.0
C      1  0.5778319945870  0.5021720889431  0.0873784691138 1.0
C      1  0.5038335827626  0.4232334110929  0.0870324219100 1.0
C      1  0.3504241284208  0.4897779918840  0.7576148622581 1.0
C      1  0.5130543902674  0.3503225773149  0.7543765284312 1.0
C      1  0.6536414545103  0.5095178336958  0.7536013122521 1.0
C      1  0.4929505818840  0.6443932529511  0.7484672747385 1.0
C      1  0.6503867806653  0.4907043417054  0.2511550667712 1.0
C      1  0.4896794498207  0.3501271702081  0.2502975682143 1.0
C      1  0.3477764492020  0.5116556171621  0.2460919509476 1.0
C      1  0.5095516576421  0.6520440809489  0.2477983860438 1.0
C      1  0.4359812351278  0.8382271854769  0.3316297058765 1.0
C      1  0.1615448218896  0.4386907898961  0.3339372550291 1.0
C      1  0.5645177731887  0.1656381143018  0.3393267682276 1.0
C      1  0.8352275685235  0.5643722171892  0.3391496632935 1.0
C      1  0.5595542214936  0.8319661605346  0.6614772304029 1.0
C      1  0.8384453135864  0.4373161759642  0.6647948263194 1.0
C      1  0.4384240097619  0.1689473141831  0.6602616261504 1.0
C      1  0.1708996750727  0.5715989035130  0.6624626952038 1.0
C      1  0.4333813154556  0.1989597595047  0.2476659259970 1.0
C      1  0.8020012743745  0.4329508441247  0.2486695852441 1.0
C      1  0.5689971767670  0.8030942214354  0.2441077149270 1.0
C      1  0.1957879654176  0.5685769717041  0.2405601876960 1.0
C      1  0.5683818801148  0.1982277363217  0.7542956202116 1.0
C      1  0.2001366858660  0.4386470815009  0.7498771808932 1.0
C      1  0.4260763249857  0.7913441568840  0.7469268759951 1.0
C      1  0.8047021815851  0.5685984487620  0.7560196414832 1.0
C      1  0.4223889571638  0.6667478874439  0.3027857250277 1.0
C      1  0.3339306000521  0.4268751664636  0.3042726299336 1.0
C      1  0.5748603538492  0.3362634096030  0.3081240165543 1.0
C      1  0.6633046469146  0.5769712163553  0.3084399335456 1.0
C      1  0.5787751366652  0.6617274987388  0.6945106780810 1.0
C      1  0.6680829594533  0.4241728661085  0.6965909001278 1.0
C      1  0.4284889216343  0.3416569429099  0.6966974522621 1.0
C      1  0.3403440111478  0.5680686701907  0.6968019132042 1.0
C      1  0.6532734277846  0.7495255367256  0.2646520911750 1.0
C      1  0.2481157989469  0.6545706486717  0.2566688885375 1.0
C      1  0.3478627588263  0.2526434144775  0.2632962566229 1.0
C      1  0.7484739864402  0.3480143254691  0.2670985128942 1.0
C      1  0.3487875481856  0.7312486039481  0.7162859378108 1.0
C      1  0.7499131906031  0.6531723502271  0.7370951847291 1.0
C      1  0.6543838650694  0.2512973681027  0.7376851735872 1.0
C      1  0.2557384526016  0.3531391394043  0.7327662479903 1.0
C      1  0.2292565929682  0.3037061456259  0.6456217282773 1.0
C      1  0.7065433066392  0.2223108724507  0.6513668121098 1.0
C      1  0.7785492610779  0.7051612448964  0.6504878819816 1.0
C      1  0.3005176077724  0.7664065932976  0.6344549412925 1.0
C      1  0.7783319730996  0.2965193884772  0.3533069928793 1.0
C      1  0.2964106402079  0.2254680870165  0.3489558254741 1.0
C      1  0.2176887833155  0.7063442470626  0.3424843932822 1.0
C      1  0.7039902193304  0.7779086251243  0.3520155978514 1.0
C      1  0.4078468576487  0.6397704077245  0.6958399328474 1.0
C      1  0.3461174534454  0.4007139490595  0.7126242825569 1.0
C      1  0.6045423220108  0.3433524980245  0.7106333590047 1.0
C      1  0.6605477464331  0.6005390386577  0.7087909880409 1.0
C      1  0.6002585929975  0.6582494326672  0.2928057989141 1.0
C      1  0.6566427195056  0.3991796766176  0.2945805543100 1.0
C      1  0.3969210003214  0.3442144863718  0.2918630089840 1.0
C      1  0.3405814028230  0.6044819983030  0.2863440807150 1.0
C      1  0.7599895917731  0.5807939637195  0.2831996495822 1.0
C      1  0.4202111592612  0.7634300680432  0.2757774599540 1.0
C      1  0.2373066098340  0.4219691166780  0.2786721122581 1.0
C      1  0.5804619559745  0.2401448049828  0.2823480400740 1.0
C      1  0.2460498543120  0.5955350046509  0.7277158159183 1.0
C      1  0.5776091473218  0.7581373310172  0.7187254463777 1.0
C      1  0.7643722410972  0.4204057999612  0.7219985470896 1.0
C      1  0.4222363908470  0.2441164303123  0.7159861045588 1.0
C      1  0.6149593692271  0.6216249622162  0.3782814759928 1.0
C      1  0.3736226962534  0.6223055552589  0.3722103737268 1.0
C      1  0.3804795185102  0.3846399178493  0.3763527311377 1.0
C      1  0.6186508961577  0.3822202139778  0.3796303748983 1.0
C      1  0.3966669420699  0.5802453840561  0.6133829533286 1.0
C      1  0.6225525388657  0.6160037966790  0.6232577088865 1.0
C      1  0.6215948102779  0.3805279349866  0.6252851498012 1.0
C      1  0.3972183221298  0.4060202551912  0.6287009849162 1.0
C      1  0.1904553039368  0.7038025532716  0.4350602097591 1.0
C      1  0.3008303901388  0.2011869668161  0.4412806361951 1.0
C      1  0.8054964748607  0.2989304631024  0.4456923728989 1.0
C      1  0.7007815993537  0.8033160625040  0.4447675476519 1.0
C      1  0.8045388970968  0.7027971851443  0.5579302275807 1.0
C      1  0.7038917061221  0.1959557398818  0.5587483103692 1.0
C      1  0.2021818373130  0.3067872974103  0.5537431214641 1.0
C      1  0.2975731241348  0.8019571488062  0.5458556343223 1.0
C      1  0.3554326948351  0.7194849342635  0.1317565253377 1.0
C      1  0.2830219050515  0.3536431025041  0.1340591088482 1.0
C      1  0.6465080315955  0.2831943535791  0.1372573599961 1.0
C      1  0.7186106748322  0.6460404854872  0.1369284721341 1.0
C      1  0.6429454559116  0.7193167370523  0.8621946629415 1.0
C      1  0.7194424852935  0.3541076298703  0.8668149387248 1.0
C      1  0.3537208271048  0.2854172011095  0.8624685780015 1.0
C      1  0.2968432939653  0.6504602356229  0.8670095084607 1.0
C      1  0.4275163392963  0.5025858305902  0.1888383482759 1.0
C      1  0.4982228512827  0.4278354014218  0.1903826719438 1.0
C      1  0.5728552201793  0.4984347763543  0.1906480567585 1.0
C      1  0.5022128837863  0.5732835173877  0.1890699995067 1.0
C      1  0.5757141982254  0.5010035288621  0.8135723856441 1.0
C      1  0.5048148307555  0.4269937441887  0.8146954709640 1.0
C      1  0.4300395477476  0.4972062544489  0.8147196282426 1.0
C      1  0.5008147380425  0.5705092067337  0.8122499511260 1.0
C      1  0.7307278185516  0.4456570272138  0.8873633937335 1.0
C      1  0.5507298759204  0.7278203744145  0.8823007649988 1.0
C      1  0.2769621331913  0.5588290920338  0.8866537814624 1.0
C      1  0.4445402560934  0.2730584136265  0.8844684383120 1.0
C      1  0.2721949352083  0.4451059027695  0.1137264052974 1.0
C      1  0.4471311834924  0.7287699801903  0.1127363994034 1.0
C      1  0.7291187670576  0.5544099579535  0.1175593456076 1.0
C      1  0.5551043877336  0.2718785783636  0.1168497950003 1.0
C      1  0.8970741870191  0.5357525523553  0.4791245282124 1.0
C      1  0.4636320013247  0.8927673599055  0.4743623835158 1.0
C      1  0.1025014744885  0.4682139306877  0.4764612880152 1.0
C      1  0.5369482979110  0.1038325290719  0.4791076613229 1.0
C      1  0.1034342616348  0.5336944013010  0.5267029159777 1.0
C      1  0.5320866825401  0.8915363315490  0.5202750718579 1.0
C      1  0.8971777186456  0.4662693548082  0.5235615895157 1.0
C      1  0.4662909110004  0.1038301636884  0.5214669138353 1.0
C      1  0.6836573335233  0.1796522591865  0.4647399798310 1.0
C      1  0.8210148284241  0.6826692688807  0.4639458508283 1.0
C      1  0.3158728706333  0.8209147316301  0.4533386726423 1.0
C      1  0.1830558062073  0.3250450742499  0.4603568295821 1.0
C      1  0.3226453742663  0.1856676123340  0.5346694846455 1.0
C      1  0.1745819041587  0.6834415569281  0.5293114721185 1.0
C      1  0.6802058542543  0.8193671223311  0.5385162770989 1.0
C      1  0.8223364080630  0.3189124277367  0.5396162111425 1.0
C      1  0.2823627160603  0.6781443075574  0.7794636728831 1.0
C      1  0.2860453865241  0.2964717825436  0.8124690446979 1.0
C      1  0.7084847129608  0.2876936802948  0.8154158859122 1.0
C      1  0.7112690633260  0.7083811862533  0.8133361672268 1.0
C      1  0.7086136168889  0.7119907445887  0.1891573323540 1.0
C      1  0.7119293381835  0.2933340192246  0.1901177877959 1.0
C      1  0.2941007007640  0.2871266657998  0.1848956207305 1.0
C      1  0.2869889316450  0.7080614053687  0.1805473840399 1.0
C      1  0.5101366557229  0.2549255109521  0.2071032048627 1.0
C      1  0.7455795254217  0.5101428651111  0.2082728912044 1.0
C      1  0.4920831181485  0.7469928699900  0.2030495368080 1.0
C      1  0.2525843854222  0.4910400117718  0.2024645238232 1.0
C      1  0.4909566618214  0.2553505688254  0.7943397133450 1.0
C      1  0.2553802709972  0.5160147563049  0.7971304363251 1.0
C      1  0.5051614688752  0.7405675421416  0.7912887338723 1.0
C      1  0.7489824154551  0.4909138890417  0.7970814228805 1.0
C      1  0.4351691208645  0.4879612215281  0.5922953762881 1.0
END
