TITL C-14788-7911-57 -1.271 3375.00 -210.42117607 0 0 26 (Ci) n - 1
REM
REM Run started: at 2021.01.04 15:56:03 in /gpfs/home/chem/mssmkc/CARBON/AIRSS/Generating-Clusters/Str-Search/Higher-Symm/C4-100
REM VASP from code version vasp.5.4.4.18Apr17-6-g9f103f2a35 (build Oct 11 2019 16:45:47) gamma-only
REM
REM
REM
REM
REM ./C.cell (6bd13a13d554368a30d355f37ece5b26)
REM AIRSS Version 0.9.1 bugfix July 2018 build 013d7b7c2542+ Fri, 06 Jul 2018 19:26:36 +0100
REM compiler GCC version 6.3.0
REM options -cpp -iprefix /gpfs/warwick/csc/orac/software/Core/GCCcore/6.3.0/bin/../lib/gcc/x86_64-pc-linux-gnu/6.3.0/ -mtune=generic -march=x86-64 -g -O0
REM seed -1871889013 -162204977 -728353753 975673287 -1639625991 1857023714 1270096377 -438902917 1823167827 -1175106235 -922284885 -1007573094
REM
REM C.POTCAR (d86ddea03c3ceb6dc662c8ad6801f873)
REM 
CELL 1.54180   15.00000   15.00000   15.00000   90.00000   90.00000   90.00000
LATT -1
SFAC C  
C      1  0.4396715803998  0.4718133028260  0.3835903631581 1.0
C      1  0.5603284187200  0.5281866983208  0.6164096352172 1.0
C      1  0.5647787593241  0.4347315503282  0.5923142256322 1.0
C      1  0.4352212374790  0.5652684478686  0.4076857768714 1.0
C      1  0.6135685425806  0.4344609881861  0.3643879467653 1.0
C      1  0.3864314597681  0.5655390081835  0.6356120571376 1.0
C      1  0.3905188528130  0.4236696461610  0.4555914856643 1.0
C      1  0.6094811363589  0.5763303586695  0.5444085095284 1.0
C      1  0.4126505483539  0.4097934002126  0.6416786380295 1.0
C      1  0.5873494473853  0.5902065867835  0.3583213748286 1.0
C      1  0.6551202493498  0.5154127438263  0.4894923935502 1.0
C      1  0.3448797527997  0.4845872648541  0.5105076072684 1.0
C      1  0.5231227886924  0.3469706562376  0.4283024868669 1.0
C      1  0.4768772134708  0.6530293435690  0.5716975099723 1.0
C      1  0.3683478168568  0.5740031658683  0.4803892394002 1.0
C      1  0.6316521875727  0.4259968392629  0.5196107621350 1.0
C      1  0.4557667251354  0.3621243196614  0.4933802989461 1.0
C      1  0.5442332753257  0.6378756822110  0.5066196941658 1.0
C      1  0.5172904146657  0.4166233984295  0.3603132639339 1.0
C      1  0.4827095852545  0.5833766059139  0.6396867359476 1.0
C      1  0.6407850942603  0.5224825048568  0.3924003275946 1.0
C      1  0.3592149089898  0.4775174911374  0.6075996675175 1.0
C      1  0.6144975732542  0.3739162607494  0.4441830213720 1.0
C      1  0.3855024372215  0.6260837425237  0.5558169833428 1.0
C      1  0.4820350581791  0.3825057203384  0.5857058230040 1.0
C      1  0.5179649357886  0.6174942730206  0.4142941721504 1.0
END
