TITL C-14788-7911-71 -0.258 3375.00 -35.56392330 0 0 5 (D(inf)h) n - 1
REM
REM Run started: at 2021.01.04 18:35:38 in /gpfs/home/chem/mssmkc/CARBON/AIRSS/Generating-Clusters/Str-Search/Higher-Symm/C4-100
REM VASP from code version vasp.5.4.4.18Apr17-6-g9f103f2a35 (build Oct 11 2019 16:45:47) gamma-only
REM
REM
REM
REM
REM ./C.cell (6bd13a13d554368a30d355f37ece5b26)
REM AIRSS Version 0.9.1 bugfix July 2018 build 013d7b7c2542+ Fri, 06 Jul 2018 19:26:36 +0100
REM compiler GCC version 6.3.0
REM options -cpp -iprefix /gpfs/warwick/csc/orac/software/Core/GCCcore/6.3.0/bin/../lib/gcc/x86_64-pc-linux-gnu/6.3.0/ -mtune=generic -march=x86-64 -g -O0
REM seed 2116031887 2083132602 -12354614 -1242844912 1511914915 -1621537743 -395199899 -1776467221 -1660493377 -568288409 690570305 -546468974
REM
REM C.POTCAR (d86ddea03c3ceb6dc662c8ad6801f873)
REM 
CELL 1.54180   15.00000   15.00000   15.00000   90.00000   90.00000   90.00000
LATT -1
SFAC C  
C      1  0.5063464521624  0.4967561031679  0.5860250496725 1.0
C      1  0.5064006851803  0.4966920588634  0.3271737112987 1.0
C      1  0.5064006861789  0.4966920577825  0.6728261745221 1.0
C      1  0.5063567285011  0.4967496835188  0.5000000773603 1.0
C      1  0.5063464479773  0.4967560966673  0.4139749871464 1.0
END
