TITL C-15713-8578-166 -4.869 3375.00 -784.18828980 0 0 97 (C1) n - 1
REM
REM Run started: at 2020.12.30 13:25:00 in /gpfs/home/chem/mssmkc/CARBON/AIRSS/Generating-Clusters/Str-Search/Higher-Symm/C4-100
REM VASP from code version vasp.5.4.4.18Apr17-6-g9f103f2a35 (build Oct 11 2019 16:45:47) gamma-only
REM
REM
REM
REM
REM ./C.cell (6bd13a13d554368a30d355f37ece5b26)
REM AIRSS Version 0.9.1 bugfix July 2018 build 013d7b7c2542+ Fri, 06 Jul 2018 19:26:36 +0100
REM compiler GCC version 6.3.0
REM options -cpp -iprefix /gpfs/warwick/csc/orac/software/Core/GCCcore/6.3.0/bin/../lib/gcc/x86_64-pc-linux-gnu/6.3.0/ -mtune=generic -march=x86-64 -g -O0
REM seed -1315322821 604065665 -1458765159 -2062677150 1482954424 -1662157916 1247579404 -1516206926 491053656 1786277105 -2073826910 600200431
REM
REM C.POTCAR (d86ddea03c3ceb6dc662c8ad6801f873)
REM 
CELL 1.54180   15.00000   15.00000   15.00000   90.00000   90.00000   90.00000
LATT -1
SFAC C  
C      1  0.4480363485967  0.3371513936411  0.7972778081441 1.0
C      1  0.4537622680271  0.3264321543703  0.2237205979138 1.0
C      1  0.4547009326833  0.8243676136016  0.4755347983659 1.0
C      1  0.5469475701236  0.3427227411541  0.7926310794557 1.0
C      1  0.5494007997000  0.3241584820763  0.2228378626033 1.0
C      1  0.5500973501795  0.8271894607776  0.4731821402500 1.0
C      1  0.2480231279066  0.3168218408335  0.5765695323051 1.0
C      1  0.2692906664282  0.5380079611402  0.3134632227578 1.0
C      1  0.2811813549573  0.6253110276624  0.6231912401356 1.0
C      1  0.7346304230959  0.3290569261317  0.5537265785339 1.0
C      1  0.7319182238900  0.5458581109726  0.3113128205961 1.0
C      1  0.7199936309315  0.6365472606996  0.6258365104874 1.0
C      1  0.6836117814507  0.4096233103582  0.5775607011534 1.0
C      1  0.6955520943373  0.4911171693267  0.3841907582329 1.0
C      1  0.6641173236149  0.6128520002756  0.5484274689671 1.0
C      1  0.2345676987115  0.3977670568456  0.6086505836769 1.0
C      1  0.3119836624231  0.4911224540799  0.3894246723653 1.0
C      1  0.3306701795580  0.5902766928780  0.5444482220057 1.0
C      1  0.3080627303308  0.4732240119196  0.7175872573209 1.0
C      1  0.3297975069202  0.3386164861156  0.4048586719223 1.0
C      1  0.3287397829393  0.6917002682866  0.4206356984762 1.0
C      1  0.6703383688730  0.4814844158177  0.7129196017083 1.0
C      1  0.6839428818595  0.3312242033146  0.3730435758399 1.0
C      1  0.6769438030409  0.6974502125919  0.4114485025195 1.0
C      1  0.3959732799052  0.4839869991324  0.7252062770331 1.0
C      1  0.4161379926547  0.3235769795511  0.3921120721043 1.0
C      1  0.4072558243139  0.6934820016360  0.3776307959853 1.0
C      1  0.5852642836717  0.4993132793613  0.7307584149089 1.0
C      1  0.6018519553938  0.3001708737501  0.3875240749321 1.0
C      1  0.5950684766389  0.6963897265602  0.3728645376083 1.0
C      1  0.8357198774476  0.5331506251611  0.5510991364100 1.0
C      1  0.8419646819107  0.4511945790013  0.5013565586440 1.0
C      1  0.8426296649492  0.5352085851554  0.4562012161918 1.0
C      1  0.1538418238165  0.5397475011988  0.5496520523562 1.0
C      1  0.1418544753372  0.4555842983349  0.4999934489215 1.0
C      1  0.1574893669861  0.5349183963692  0.4535682163722 1.0
C      1  0.6269838550771  0.1864761107924  0.5493931327675 1.0
C      1  0.6222101132722  0.6159894897241  0.1904908848185 1.0
C      1  0.6232519571498  0.7116803670333  0.7526084376280 1.0
C      1  0.3776755530559  0.1968022391648  0.5578511547954 1.0
C      1  0.3751121394163  0.6142905415710  0.1924970638719 1.0
C      1  0.3771509701063  0.7028951157008  0.7507802193574 1.0
C      1  0.4557890227149  0.1698469155489  0.5453081840367 1.0
C      1  0.4531319245268  0.6361897064266  0.1722625818597 1.0
C      1  0.4545086914031  0.7109692504982  0.7812630403282 1.0
C      1  0.5458626711170  0.1662376554621  0.5433645223891 1.0
C      1  0.5436600764561  0.6367848857176  0.1712554703731 1.0
C      1  0.5449194078688  0.7143522295421  0.7813953343910 1.0
C      1  0.2037115602485  0.5595924133446  0.6261955304324 1.0
C      1  0.2159656730964  0.3884866453091  0.5076585939757 1.0
C      1  0.2340667996252  0.5676969064568  0.4008816410613 1.0
C      1  0.7807553704458  0.5547507435238  0.6232336199644 1.0
C      1  0.7906620611487  0.3756398623980  0.4823818876424 1.0
C      1  0.7652880921879  0.5688051211913  0.4033036896330 1.0
C      1  0.5839304315924  0.5673187458419  0.5672946420102 1.0
C      1  0.6050564796563  0.4140550894514  0.5254547190902 1.0
C      1  0.6008670408327  0.5281948849142  0.4090308931854 1.0
C      1  0.4014176834747  0.5297236992272  0.5584113710298 1.0
C      1  0.4551646145519  0.4761931226252  0.4814471546172 1.0
C      1  0.4082509990332  0.5232354972310  0.4043516537581 1.0
C      1  0.7227409874153  0.4777365034475  0.6426883817089 1.0
C      1  0.7330029634178  0.3964603356711  0.4048372281893 1.0
C      1  0.7074446465827  0.6294832482769  0.4585945626689 1.0
C      1  0.2372981671620  0.4754029928553  0.6641879302465 1.0
C      1  0.2815700695460  0.4053340045209  0.4336316491028 1.0
C      1  0.2889163123692  0.6245436536167  0.4598475567149 1.0
C      1  0.5602580916682  0.3501234844587  0.4650093297759 1.0
C      1  0.5514495951130  0.6057331755000  0.3781023312130 1.0
C      1  0.5365162240990  0.5412564413011  0.6532721874245 1.0
C      1  0.4717441447100  0.3741436034409  0.4557235922895 1.0
C      1  0.4533938712715  0.6034074050650  0.3784571053883 1.0
C      1  0.4458844470774  0.5228433513225  0.6475092210317 1.0
C      1  0.5486003465564  0.2756132135674  0.3127746688357 1.0
C      1  0.5468397247515  0.7778290118681  0.3834007649203 1.0
C      1  0.5389573026470  0.4416206510523  0.7907959685697 1.0
C      1  0.4569376714643  0.2835617060494  0.3153902636630 1.0
C      1  0.4548516239636  0.7756671667291  0.3865489339408 1.0
C      1  0.4460523633042  0.4365654895636  0.7918438245941 1.0
C      1  0.3670510932186  0.7566845909267  0.6065359224248 1.0
C      1  0.3404876806842  0.2577287195897  0.6924225562001 1.0
C      1  0.3527756354318  0.4630571161080  0.2051833760725 1.0
C      1  0.6396795043943  0.7696984066594  0.6081380167087 1.0
C      1  0.6490193788824  0.2726652546236  0.6741072625403 1.0
C      1  0.6463767977276  0.4649895085497  0.2073761531053 1.0
C      1  0.6741828979299  0.7075205754235  0.6713467930863 1.0
C      1  0.6839304319586  0.2542623905594  0.5879317713450 1.0
C      1  0.6783063470585  0.5502865082981  0.2325892529576 1.0
C      1  0.3296707690999  0.6955955283875  0.6674867156758 1.0
C      1  0.3124852090477  0.2473767914363  0.6047953319295 1.0
C      1  0.3204814725913  0.5466824109228  0.2334434166995 1.0
C      1  0.3889866993729  0.2827389323590  0.7558630069333 1.0
C      1  0.3959897816544  0.3928760762434  0.1992138607164 1.0
C      1  0.4012606021141  0.8033798200747  0.5472408926561 1.0
C      1  0.6060418257798  0.2945817919786  0.7418459210574 1.0
C      1  0.6068256463269  0.3924497829246  0.2008672936906 1.0
C      1  0.6066714176272  0.8113241853001  0.5443683618302 1.0
C      1  0.5584237543181  0.4998012325490  0.4967488638717 1.0
END
