TITL C-159479-5093-19 -1.372 3375.00 -216.55481837 0 0 28 (C1) n - 1
REM
REM Run started: at 2020.12.04 21:40:54 in /rds/project/t2_vol4/rds-t2-cs072/BORA/CARBON/AIRSS/Generating-Clusters/Str-Search/Higher-Symm/C10-100
REM VASP from code version vasp.5.4.4.18Apr17-6-g9f103f2a35 (build Oct 11 2019 16:45:47) gamma-only
REM
REM
REM
REM
REM ./C.cell (f39ce9773e2efe3fa5bbdf770a4156b8)
REM AIRSS Version 0.9.1 bugfix July 2018 build 013d7b7c2542+ Fri, 06 Jul 2018 19:26:36 +0100
REM compiler GCC version 4.8.5 20150623 (Red Hat 4.8.5-39)
REM options -cpp -mtune=generic -march=x86-64 -g -O0
REM seed 312922378 -1815069494 21530231 -1693233277 -2125963556 970487175 -239494141 1646323840 -830890984 1428675464 924970766 -1633242024
REM
REM C.POTCAR (d86ddea03c3ceb6dc662c8ad6801f873)
REM 
CELL 1.54180   15.00000   15.00000   15.00000   90.00000   90.00000   90.00000
LATT -1
SFAC C  
C      1  0.6473776077949  0.4490783698448  0.6411985684781 1.0
C      1  0.5012594268607  0.7282433859116  0.5926895821769 1.0
C      1  0.4166676489472  0.7452417075610  0.5754865210302 1.0
C      1  0.4405993037387  0.3297499490291  0.5455597387120 1.0
C      1  0.5323840527489  0.3377090304059  0.5758508232136 1.0
C      1  0.6124539557337  0.5339225101976  0.4468982219668 1.0
C      1  0.4561581854954  0.5493040320891  0.4235970907546 1.0
C      1  0.3449732817077  0.5760396659636  0.4343279970693 1.0
C      1  0.4575348677847  0.3612682300234  0.3809859955525 1.0
C      1  0.5397515015658  0.4100333376765  0.3653792267146 1.0
C      1  0.6838542527696  0.4840092530312  0.4892996902271 1.0
C      1  0.4655176126384  0.6391068303899  0.4627504127874 1.0
C      1  0.2942970497013  0.5113081329646  0.4774575319480 1.0
C      1  0.4302249649699  0.3958866368260  0.4632164528906 1.0
C      1  0.6064775134450  0.3583481637581  0.4135286792686 1.0
C      1  0.6621332763652  0.5163697800159  0.5792406767671 1.0
C      1  0.5255912818126  0.6578825816758  0.5329857635248 1.0
C      1  0.3458961641370  0.7325052363409  0.5260358978664 1.0
C      1  0.3590685254549  0.3652860156148  0.5322049745615 1.0
C      1  0.5990265716522  0.3321486822451  0.5059359190969 1.0
C      1  0.5817551857023  0.5736734752747  0.5379211213259 1.0
C      1  0.4601135640134  0.4827476405964  0.4961785044433 1.0
C      1  0.6697131281637  0.3900102603895  0.4740134953071 1.0
C      1  0.3726059095196  0.6639808074276  0.4657802636878 1.0
C      1  0.3010718997060  0.4341211431561  0.5126281812375 1.0
C      1  0.5578553404533  0.4274934876262  0.6171183630165 1.0
C      1  0.5458651992972  0.5042598067703  0.3847342871300 1.0
C      1  0.5149957278207  0.4983801471944  0.5658473192453 1.0
END
