TITL C-15713-8578-157 -0.942 3375.00 -140.10792469 0 0 18 (C1) n - 1
REM
REM Run started: at 2020.12.30 10:28:32 in /gpfs/home/chem/mssmkc/CARBON/AIRSS/Generating-Clusters/Str-Search/Higher-Symm/C4-100
REM VASP from code version vasp.5.4.4.18Apr17-6-g9f103f2a35 (build Oct 11 2019 16:45:47) gamma-only
REM
REM
REM
REM
REM ./C.cell (6bd13a13d554368a30d355f37ece5b26)
REM AIRSS Version 0.9.1 bugfix July 2018 build 013d7b7c2542+ Fri, 06 Jul 2018 19:26:36 +0100
REM compiler GCC version 6.3.0
REM options -cpp -iprefix /gpfs/warwick/csc/orac/software/Core/GCCcore/6.3.0/bin/../lib/gcc/x86_64-pc-linux-gnu/6.3.0/ -mtune=generic -march=x86-64 -g -O0
REM seed 888141586 -1377386568 -2013126909 513233629 1429332153 -554998670 -198011677 -1964760863 -875911072 -960463476 882910784 -739405689
REM
REM C.POTCAR (d86ddea03c3ceb6dc662c8ad6801f873)
REM 
CELL 1.54180   15.00000   15.00000   15.00000   90.00000   90.00000   90.00000
LATT -1
SFAC C  
C      1  0.4941518047060  0.3689332007506  0.4060990734524 1.0
C      1  0.5902340187574  0.6105398725544  0.3863136245885 1.0
C      1  0.3932712439403  0.5395000071603  0.3649537871328 1.0
C      1  0.4029699006921  0.5303237377090  0.6120770174455 1.0
C      1  0.5164213590411  0.4060290316239  0.6380044596861 1.0
C      1  0.5802066714817  0.5504401992477  0.6151862482242 1.0
C      1  0.6231635270592  0.6287935306502  0.4670974331463 1.0
C      1  0.3730019745781  0.5478977453686  0.4489047591361 1.0
C      1  0.4987512093742  0.3265725863951  0.4838624817857 1.0
C      1  0.5467737844245  0.5784295049838  0.3218339977677 1.0
C      1  0.4777631348318  0.5143047912647  0.3323484792736 1.0
C      1  0.4891162481064  0.4214906383571  0.3403362620385 1.0
C      1  0.3605004093832  0.5391100234615  0.5330974562414 1.0
C      1  0.5084420273188  0.3517279456061  0.5643999044221 1.0
C      1  0.6114895864159  0.6013955366167  0.5453031792437 1.0
C      1  0.4491274128349  0.4716984817470  0.6684874348320 1.0
C      1  0.5943582852550  0.4565823846343  0.6182910462377 1.0
C      1  0.4902574017992  0.5562307818691  0.6534033553460 1.0
END
