TITL C-15713-8578-75 -1.37 3375.00 -216.76297007 0 0 28 (C2v) n - 1
REM
REM Run started: at 2020.12.29 17:57:33 in /gpfs/home/chem/mssmkc/CARBON/AIRSS/Generating-Clusters/Str-Search/Higher-Symm/C4-100
REM VASP from code version vasp.5.4.4.18Apr17-6-g9f103f2a35 (build Oct 11 2019 16:45:47) gamma-only
REM
REM
REM
REM
REM ./C.cell (6bd13a13d554368a30d355f37ece5b26)
REM AIRSS Version 0.9.1 bugfix July 2018 build 013d7b7c2542+ Fri, 06 Jul 2018 19:26:36 +0100
REM compiler GCC version 6.3.0
REM options -cpp -iprefix /gpfs/warwick/csc/orac/software/Core/GCCcore/6.3.0/bin/../lib/gcc/x86_64-pc-linux-gnu/6.3.0/ -mtune=generic -march=x86-64 -g -O0
REM seed -1243882356 -902799419 944985932 -1692183008 -1026370875 2056507529 -1178632074 1035425194 1006186464 876851553 -1295229368 2013141928
REM
REM C.POTCAR (d86ddea03c3ceb6dc662c8ad6801f873)
REM 
CELL 1.54180   15.00000   15.00000   15.00000   90.00000   90.00000   90.00000
LATT -1
SFAC C  
C      1  0.6967939325519  0.4437819155830  0.6164379143328 1.0
C      1  0.3032053734922  0.4437944325802  0.3835554620546 1.0
C      1  0.3032061342022  0.4437805353572  0.6164425555142 1.0
C      1  0.6967952498874  0.4437944770554  0.3835546930581 1.0
C      1  0.2645194583315  0.5309976293211  0.4089252057817 1.0
C      1  0.7354797987947  0.5309911343222  0.5910793357127 1.0
C      1  0.7354813616257  0.5309990007867  0.4089238920822 1.0
C      1  0.2645209649038  0.5309889639654  0.5910818691988 1.0
C      1  0.4186264932828  0.5645740371594  0.5485314216229 1.0
C      1  0.5813759519016  0.5645820330720  0.4514703148304 1.0
C      1  0.5813735620629  0.5645751038569  0.5485316605442 1.0
C      1  0.4186220912354  0.5645811959072  0.4514700254684 1.0
C      1  0.3882750825744  0.4293714550952  0.3635188096409 1.0
C      1  0.6117238947301  0.4293533561565  0.6364677158912 1.0
C      1  0.6117228315558  0.4293715910850  0.3635205099855 1.0
C      1  0.3882774285793  0.4293524530427  0.6364682374385 1.0
C      1  0.4525329160237  0.4893594965187  0.6059111362931 1.0
C      1  0.5474659570805  0.4893750998448  0.3940850912605 1.0
C      1  0.5474677638680  0.4893603486548  0.6059122942600 1.0
C      1  0.4525329401501  0.4893753052417  0.3940833592135 1.0
C      1  0.2342667392872  0.4514858988392  0.4522743557927 1.0
C      1  0.7657357712647  0.4514799815720  0.5477269316225 1.0
C      1  0.7657339114045  0.4514903689608  0.4522735625188 1.0
C      1  0.2342648683643  0.4514789460351  0.5477276950430 1.0
C      1  0.3227568657212  0.5904234983033  0.5494912893498 1.0
C      1  0.6772453730522  0.5904281178763  0.4505224408756 1.0
C      1  0.6772441859353  0.5904250300522  0.5494889631665 1.0
C      1  0.3227530981364  0.5904289937552  0.4505232574469 1.0
END
