TITL C-15713-8578-116 -3.491 3375.00 -614.72192946 0 0 74 (C1) n - 1
REM
REM Run started: at 2020.12.30 02:20:05 in /gpfs/home/chem/mssmkc/CARBON/AIRSS/Generating-Clusters/Str-Search/Higher-Symm/C4-100
REM VASP from code version vasp.5.4.4.18Apr17-6-g9f103f2a35 (build Oct 11 2019 16:45:47) gamma-only
REM
REM
REM
REM
REM ./C.cell (6bd13a13d554368a30d355f37ece5b26)
REM AIRSS Version 0.9.1 bugfix July 2018 build 013d7b7c2542+ Fri, 06 Jul 2018 19:26:36 +0100
REM compiler GCC version 6.3.0
REM options -cpp -iprefix /gpfs/warwick/csc/orac/software/Core/GCCcore/6.3.0/bin/../lib/gcc/x86_64-pc-linux-gnu/6.3.0/ -mtune=generic -march=x86-64 -g -O0
REM seed 1120952734 653258016 -1051510966 -1768101868 -255805158 -766746728 1199271359 2081932214 191459017 -775288357 363138093 -691818167
REM
REM C.POTCAR (d86ddea03c3ceb6dc662c8ad6801f873)
REM 
CELL 1.54180   15.00000   15.00000   15.00000   90.00000   90.00000   90.00000
LATT -1
SFAC C  
C      1  0.6372044002196  0.5404030556368  0.2807438200169 1.0
C      1  0.6297583158992  0.4426805887709  0.2868999531023 1.0
C      1  0.5637918252130  0.3732819824664  0.2837995893121 1.0
C      1  0.4669775189227  0.3648816904055  0.2803583411206 1.0
C      1  0.3866204268091  0.4190261257597  0.2809313495250 1.0
C      1  0.3613767276621  0.5124408211056  0.2795413114020 1.0
C      1  0.3998239485309  0.6016329602297  0.2818558246961 1.0
C      1  0.4871745981096  0.6431313824399  0.2816359854587 1.0
C      1  0.5812069314626  0.6197740654733  0.2839945790892 1.0
C      1  0.3978375361577  0.7229317723778  0.3870282377636 1.0
C      1  0.5583335885419  0.7362441872741  0.3937576043073 1.0
C      1  0.7045818930560  0.6446750039851  0.3834680134156 1.0
C      1  0.7466093526888  0.4876816507456  0.3883384392399 1.0
C      1  0.6795534664721  0.3257511653459  0.3878488570279 1.0
C      1  0.5225091565483  0.2581605397641  0.3868303877998 1.0
C      1  0.3654822948509  0.2995245291293  0.3865185590083 1.0
C      1  0.2659635968512  0.4376174274571  0.3856177933060 1.0
C      1  0.2769552751417  0.6004049666652  0.3854310594136 1.0
C      1  0.6009558171059  0.3977885123532  0.4896322039800 1.0
C      1  0.5161106031239  0.3704813306264  0.4796917560790 1.0
C      1  0.4281579349735  0.3955912816130  0.4829860065219 1.0
C      1  0.3748813309928  0.4677082203001  0.4850022214607 1.0
C      1  0.3785231091982  0.5593919770542  0.4850344512934 1.0
C      1  0.4454376328882  0.6202140450637  0.4802498196890 1.0
C      1  0.5287923536183  0.5787894943506  0.4860458710559 1.0
C      1  0.6208385260494  0.5660352468268  0.4731987186503 1.0
C      1  0.6268493450776  0.4830169711068  0.5262279354437 1.0
C      1  0.6413821600327  0.4361115315409  0.6915401231290 1.0
C      1  0.5672874230143  0.3729577743846  0.6890858105583 1.0
C      1  0.4672361339583  0.3689622407793  0.6901402272521 1.0
C      1  0.3843909596836  0.4214016698886  0.6893777900720 1.0
C      1  0.3521731463919  0.5134742002593  0.6936588915681 1.0
C      1  0.3871574320795  0.6031681264311  0.6947779068747 1.0
C      1  0.4835972885955  0.6360006616898  0.6895607100887 1.0
C      1  0.5932401633001  0.6175945755689  0.6968824386590 1.0
C      1  0.6549004243286  0.5348742261238  0.6988467762854 1.0
C      1  0.7028173175633  0.6380251447874  0.5804029599059 1.0
C      1  0.7252121017227  0.4811456801227  0.5656449209545 1.0
C      1  0.6829126785461  0.3201700990994  0.5840589191686 1.0
C      1  0.5227250175397  0.2596139464306  0.5834417667558 1.0
C      1  0.3659152541261  0.3022197671125  0.5822056474375 1.0
C      1  0.2652892731525  0.4379413292843  0.5811095699910 1.0
C      1  0.2736009363918  0.5989222627961  0.5820352167414 1.0
C      1  0.3990300186299  0.7182765534330  0.5826717924379 1.0
C      1  0.5601159640397  0.7305755194977  0.5777378728046 1.0
C      1  0.7616614990413  0.5176637502813  0.4767726499743 1.0
C      1  0.6714113828916  0.3307238077117  0.4864167875113 1.0
C      1  0.4966377756911  0.2684318433161  0.4847289454852 1.0
C      1  0.3930227827806  0.2973793409681  0.4843670153044 1.0
C      1  0.2711626265414  0.4649448131494  0.4833822536772 1.0
C      1  0.2770633872491  0.5727103535029  0.4837655120170 1.0
C      1  0.4302104416838  0.7209062934036  0.4845068968902 1.0
C      1  0.5314908026932  0.7475432205638  0.4850138623704 1.0
C      1  0.7119056379815  0.6112429037775  0.4800769654295 1.0
C      1  0.5975293349220  0.2994061408146  0.6266218750589 1.0
C      1  0.4474070650465  0.2931501757474  0.6303692639179 1.0
C      1  0.3206083437750  0.3737177353085  0.6234233645665 1.0
C      1  0.2747317226268  0.5184373692906  0.6310117998633 1.0
C      1  0.3404895534860  0.6552536067292  0.6248674240832 1.0
C      1  0.4807015022293  0.7144281219659  0.6284486516051 1.0
C      1  0.6301246894864  0.6819451305974  0.6214020630580 1.0
C      1  0.7171598494370  0.5579090852542  0.6287372937161 1.0
C      1  0.7096996632254  0.4012753882721  0.6245477916363 1.0
C      1  0.3429174760992  0.6560069608498  0.3456213186811 1.0
C      1  0.4791188414578  0.7220652554406  0.3402757018306 1.0
C      1  0.6257807068804  0.6836989641377  0.3489458114639 1.0
C      1  0.7139738425272  0.5624908375092  0.3357805211494 1.0
C      1  0.7019556400979  0.4107272524073  0.3489941187023 1.0
C      1  0.5980235443553  0.2995889405861  0.3446228432443 1.0
C      1  0.4462854854989  0.2868820235446  0.3378115164091 1.0
C      1  0.3215184396194  0.3727151129840  0.3448175205666 1.0
C      1  0.2814078353464  0.5181793125423  0.3376747017713 1.0
C      1  0.5454462305262  0.5279276300997  0.5637465362944 1.0
C      1  0.5286319975420  0.5605907256876  0.6454617638588 1.0
END
