TITL C-15713-8578-162 -1.238 3375.00 -214.05552445 0 0 28 (C1) n - 1
REM
REM Run started: at 2020.12.30 12:16:39 in /gpfs/home/chem/mssmkc/CARBON/AIRSS/Generating-Clusters/Str-Search/Higher-Symm/C4-100
REM VASP from code version vasp.5.4.4.18Apr17-6-g9f103f2a35 (build Oct 11 2019 16:45:47) gamma-only
REM
REM
REM
REM
REM ./C.cell (6bd13a13d554368a30d355f37ece5b26)
REM AIRSS Version 0.9.1 bugfix July 2018 build 013d7b7c2542+ Fri, 06 Jul 2018 19:26:36 +0100
REM compiler GCC version 6.3.0
REM options -cpp -iprefix /gpfs/warwick/csc/orac/software/Core/GCCcore/6.3.0/bin/../lib/gcc/x86_64-pc-linux-gnu/6.3.0/ -mtune=generic -march=x86-64 -g -O0
REM seed -367260087 -671644726 879733704 1869272433 -539822481 1627098023 2083178031 -13375557 -2014088094 -2076483414 1536597314 -769764463
REM
REM C.POTCAR (d86ddea03c3ceb6dc662c8ad6801f873)
REM 
CELL 1.54180   15.00000   15.00000   15.00000   90.00000   90.00000   90.00000
LATT -1
SFAC C  
C      1  0.6414177563951  0.4487823982950  0.6606504841418 1.0
C      1  0.6386491946485  0.5499184954466  0.6620899612573 1.0
C      1  0.4359282824921  0.6101598388276  0.3708036965599 1.0
C      1  0.4401700203155  0.3857588653146  0.3696924295441 1.0
C      1  0.5106460943146  0.6283097335429  0.6157237284016 1.0
C      1  0.5183988425541  0.3632294639184  0.6132485190181 1.0
C      1  0.3768330590299  0.5701330417584  0.5093908218439 1.0
C      1  0.3874668833409  0.4275934229455  0.5093466423371 1.0
C      1  0.5791334838581  0.4543877152555  0.4026587052192 1.0
C      1  0.5781635791676  0.5459152636025  0.4036129788793 1.0
C      1  0.3404423137308  0.4853782845677  0.5633274389238 1.0
C      1  0.2965673988692  0.5625678632668  0.5642170882930 1.0
C      1  0.4824884966610  0.3246246284131  0.4354282463858 1.0
C      1  0.4752030168057  0.6705494694810  0.4387334115816 1.0
C      1  0.3871429580013  0.4504526313555  0.4100447124114 1.0
C      1  0.3828199470817  0.5449706456816  0.4079896591708 1.0
C      1  0.5589768767978  0.4468163837769  0.5019443166402 1.0
C      1  0.5558614206259  0.5501822345865  0.5028621810128 1.0
C      1  0.4751011622400  0.3830401585577  0.5220719030631 1.0
C      1  0.4696086028306  0.6085720406936  0.5236584954854 1.0
C      1  0.5617237387790  0.2878236835450  0.3941865898487 1.0
C      1  0.5536257421393  0.7111363234924  0.3993561898886 1.0
C      1  0.5361781563027  0.3768360658773  0.3563579240276 1.0
C      1  0.5318780119598  0.6226012525540  0.3585106254797 1.0
C      1  0.5987990076496  0.5918001128412  0.5868537725586 1.0
C      1  0.6039922185991  0.4059524190992  0.5846940098094 1.0
C      1  0.5430583317641  0.4414799451086  0.6657015356897 1.0
C      1  0.5397252030463  0.5510276181950  0.6668441325275 1.0
END
