TITL C-15713-8578-204 -4.714 3375.00 -789.89737102 0 0 99 (C1) n - 1
REM
REM Run started: at 2020.12.30 18:59:58 in /gpfs/home/chem/mssmkc/CARBON/AIRSS/Generating-Clusters/Str-Search/Higher-Symm/C4-100
REM VASP from code version vasp.5.4.4.18Apr17-6-g9f103f2a35 (build Oct 11 2019 16:45:47) gamma-only
REM
REM
REM
REM
REM ./C.cell (6bd13a13d554368a30d355f37ece5b26)
REM AIRSS Version 0.9.1 bugfix July 2018 build 013d7b7c2542+ Fri, 06 Jul 2018 19:26:36 +0100
REM compiler GCC version 6.3.0
REM options -cpp -iprefix /gpfs/warwick/csc/orac/software/Core/GCCcore/6.3.0/bin/../lib/gcc/x86_64-pc-linux-gnu/6.3.0/ -mtune=generic -march=x86-64 -g -O0
REM seed 231950290 1418920408 -31649608 996510761 -677907361 829350111 341707710 -1396069651 -522734865 -1951969120 1770279209 301639114
REM
REM C.POTCAR (d86ddea03c3ceb6dc662c8ad6801f873)
REM 
CELL 1.54180   15.00000   15.00000   15.00000   90.00000   90.00000   90.00000
LATT -1
SFAC C  
C      1  0.6914141607715  0.3426002022448  0.4757941240912 1.0
C      1  0.3017224488625  0.6559180177241  0.5015220555024 1.0
C      1  0.3386669101509  0.4423684914920  0.7898902863894 1.0
C      1  0.6787830662126  0.5830002828091  0.2077528178614 1.0
C      1  0.4221181791649  0.2034256796752  0.4711111456893 1.0
C      1  0.5743627341737  0.7934732527980  0.5397009435727 1.0
C      1  0.3674568873041  0.3552703046076  0.3246492447396 1.0
C      1  0.6341135264507  0.6410261936010  0.6886865148481 1.0
C      1  0.2526329052898  0.6187781220026  0.5752114852513 1.0
C      1  0.7338697806271  0.3773400769896  0.3958094199723 1.0
C      1  0.5258155775132  0.1509960960785  0.3580676069842 1.0
C      1  0.4698085818700  0.8490059478599  0.6492943089877 1.0
C      1  0.5144666958396  0.6615641723051  0.4632930723648 1.0
C      1  0.4889025529952  0.3301548572628  0.5451333989831 1.0
C      1  0.6317266341013  0.4126974709208  0.5010753102994 1.0
C      1  0.3638298403269  0.5874739503273  0.4838976706600 1.0
C      1  0.6133766616249  0.2855398447913  0.3117971109576 1.0
C      1  0.3872520214263  0.7042806888108  0.6639594681500 1.0
C      1  0.3449082632321  0.5560141196185  0.6910199323122 1.0
C      1  0.6526091869710  0.4494775922580  0.2871661542601 1.0
C      1  0.4061358038763  0.7810044855563  0.5239804351267 1.0
C      1  0.5949916682551  0.2241827236633  0.4757878507436 1.0
C      1  0.5845821278482  0.7250338681588  0.3294241832554 1.0
C      1  0.4023962559423  0.2708622289730  0.6707844738038 1.0
C      1  0.5912301782401  0.6403283437980  0.5308159946895 1.0
C      1  0.4100467925589  0.3511949529922  0.4848349923687 1.0
C      1  0.7750308264106  0.6498622442351  0.6131090199358 1.0
C      1  0.2065939609758  0.3050245516980  0.3512515749982 1.0
C      1  0.3308878678729  0.5048464730263  0.5122423499637 1.0
C      1  0.6707958866943  0.4913234472170  0.4722502253368 1.0
C      1  0.5421285092232  0.3658934176691  0.6989910020188 1.0
C      1  0.4446429915867  0.6243164834176  0.3142167415532 1.0
C      1  0.7012469612739  0.3720957927558  0.6774664742333 1.0
C      1  0.2850302974627  0.6030633901862  0.2872776505083 1.0
C      1  0.3160265088903  0.6356108298911  0.6506536666441 1.0
C      1  0.6768439005904  0.3585352579813  0.3203212697645 1.0
C      1  0.6587232939270  0.5707195655645  0.5157557781187 1.0
C      1  0.3940037701613  0.4435740924615  0.4987726737891 1.0
C      1  0.2422818224994  0.3915273920615  0.4024906475003 1.0
C      1  0.7473612499414  0.5932537115411  0.5316699242709 1.0
C      1  0.4506811323662  0.1567645025832  0.3972467908143 1.0
C      1  0.5447711838288  0.8448535410474  0.6103823721935 1.0
C      1  0.5063389146128  0.2370932937216  0.5091198342819 1.0
C      1  0.4956012438068  0.7587174003535  0.4966416535327 1.0
C      1  0.7165295588426  0.5425951890984  0.2843433814103 1.0
C      1  0.3009224080729  0.4700424027126  0.7058722203541 1.0
C      1  0.3443801696270  0.2739138896051  0.4752810599367 1.0
C      1  0.6498101342228  0.7268137134114  0.5386414962227 1.0
C      1  0.3461262444211  0.7273428265431  0.3770853520365 1.0
C      1  0.6724808329092  0.2939766619578  0.6187859482979 1.0
C      1  0.5660189402717  0.4821790771074  0.3204808240195 1.0
C      1  0.4406683968209  0.5644076628687  0.7147389743744 1.0
C      1  0.2831111887560  0.2856466765711  0.5611362634968 1.0
C      1  0.7069828684645  0.7207224037195  0.4454712275362 1.0
C      1  0.5154866766973  0.3899022732009  0.2147980608179 1.0
C      1  0.5374478898170  0.5995884479867  0.8277596590355 1.0
C      1  0.5934584189548  0.2131596243195  0.3765532969319 1.0
C      1  0.4015753530969  0.7905273159502  0.6218440727507 1.0
C      1  0.3550916021337  0.6691909995423  0.3086515349742 1.0
C      1  0.6250210185291  0.3180473355705  0.6956388394449 1.0
C      1  0.7901883070699  0.5782802796356  0.6812056075329 1.0
C      1  0.2040896145877  0.3839849340712  0.3014042782105 1.0
C      1  0.7600776883964  0.5603347403199  0.3663784015300 1.0
C      1  0.2502399317555  0.4423387790234  0.6313151687859 1.0
C      1  0.5201030772276  0.6660179226934  0.3580415501772 1.0
C      1  0.4714763691565  0.3248058283343  0.6478942814111 1.0
C      1  0.7412994468847  0.4766302721324  0.4145039844575 1.0
C      1  0.2454056257226  0.5103451625481  0.5557936518560 1.0
C      1  0.6678521225074  0.2657128707362  0.5283489715031 1.0
C      1  0.3399732159428  0.7395740247886  0.4668936299689 1.0
C      1  0.2323202121446  0.3682522724523  0.5681839728742 1.0
C      1  0.7691681894932  0.6424626487478  0.4378079811627 1.0
C      1  0.2990932044019  0.3022681208520  0.3873775754770 1.0
C      1  0.6949752378519  0.7013994140577  0.6267718446455 1.0
C      1  0.2924863967945  0.4293968700581  0.3128027167368 1.0
C      1  0.7013136426512  0.5544412535431  0.6996951844948 1.0
C      1  0.4028213943038  0.4768257713368  0.8329770720923 1.0
C      1  0.6052851937424  0.5529690489932  0.1758869272221 1.0
C      1  0.3279544607529  0.2546322315064  0.6335314193582 1.0
C      1  0.6550205604282  0.7398316607503  0.3753598343065 1.0
C      1  0.4326838001471  0.3823749161785  0.3894173702710 1.0
C      1  0.5534782909294  0.6181495042797  0.6273712952982 1.0
C      1  0.4208079585962  0.5350389982600  0.3252957738523 1.0
C      1  0.5689682560947  0.4559453062502  0.6820494631617 1.0
C      1  0.3260738278782  0.5208987143315  0.3024556142623 1.0
C      1  0.6676798479510  0.4666483614192  0.6855500407289 1.0
C      1  0.5434870750439  0.4128917511532  0.5216763130315 1.0
C      1  0.4555829726253  0.5863299628566  0.4834430978082 1.0
C      1  0.4451051002717  0.3364178004949  0.2539203865555 1.0
C      1  0.5597940387264  0.6587913831060  0.7617934057365 1.0
C      1  0.4726354918247  0.6597523241016  0.6934511107576 1.0
C      1  0.5369841442236  0.3101490933194  0.2597088937889 1.0
C      1  0.8332364096317  0.6257786185587  0.5206754054598 1.0
C      1  0.2127809661835  0.4240018633854  0.4928632348646 1.0
C      1  0.5723595751650  0.4705641342157  0.2234005178963 1.0
C      1  0.4638747484203  0.5457657709736  0.8134272249734 1.0
C      1  0.4838063340275  0.4685623334514  0.3737181691372 1.0
C      1  0.5154968469672  0.5287132039816  0.6573293702314 1.0
C      1  0.4826907580858  0.4873088982061  0.4793475954185 1.0
END
