TITL C-15713-8578-86 -4.444 3375.00 -773.14723556 0 0 94 (C1) n - 1
REM
REM Run started: at 2020.12.29 20:22:46 in /gpfs/home/chem/mssmkc/CARBON/AIRSS/Generating-Clusters/Str-Search/Higher-Symm/C4-100
REM VASP from code version vasp.5.4.4.18Apr17-6-g9f103f2a35 (build Oct 11 2019 16:45:47) gamma-only
REM
REM
REM
REM
REM ./C.cell (6bd13a13d554368a30d355f37ece5b26)
REM AIRSS Version 0.9.1 bugfix July 2018 build 013d7b7c2542+ Fri, 06 Jul 2018 19:26:36 +0100
REM compiler GCC version 6.3.0
REM options -cpp -iprefix /gpfs/warwick/csc/orac/software/Core/GCCcore/6.3.0/bin/../lib/gcc/x86_64-pc-linux-gnu/6.3.0/ -mtune=generic -march=x86-64 -g -O0
REM seed -1750991557 -677873701 671278002 -603382493 -486444859 -433243070 -1393348770 62503878 -4334327 -2088734017 1614614022 -587305728
REM
REM C.POTCAR (d86ddea03c3ceb6dc662c8ad6801f873)
REM 
CELL 1.54180   15.00000   15.00000   15.00000   90.00000   90.00000   90.00000
LATT -1
SFAC C  
C      1  0.4945207578623  0.3403065993714  0.6516404996613 1.0
C      1  0.4842174673468  0.2976520909979  0.3790383624860 1.0
C      1  0.4782004428967  0.5492957770990  0.2701882066483 1.0
C      1  0.4846490969009  0.7252624194747  0.4720073518566 1.0
C      1  0.4868763283566  0.6084751133584  0.7158091694318 1.0
C      1  0.5237341236337  0.4606925986684  0.2948151409732 1.0
C      1  0.5303060813263  0.6773689999746  0.3945446758874 1.0
C      1  0.5427947521084  0.6537155718291  0.6354575106498 1.0
C      1  0.5341601793560  0.4298713275977  0.6914767281580 1.0
C      1  0.5337809531551  0.2959574021502  0.4709771784560 1.0
C      1  0.5773953644532  0.2078613696946  0.4495027920279 1.0
C      1  0.5764986938579  0.4606923448081  0.2085053209941 1.0
C      1  0.5691541946566  0.7711368548761  0.3674179793457 1.0
C      1  0.5782309076122  0.7196810241145  0.7103385451999 1.0
C      1  0.5725255223293  0.3759054183922  0.7708626525862 1.0
C      1  0.3235908520980  0.3911119790016  0.6548337757538 1.0
C      1  0.3027868544999  0.3031695555301  0.4331544637454 1.0
C      1  0.2959994075339  0.5054849076661  0.2964171702230 1.0
C      1  0.3009440073521  0.6956405304366  0.4469947839064 1.0
C      1  0.3022477278414  0.6220936233708  0.6785496372325 1.0
C      1  0.7595956216978  0.3705066314159  0.4685095357169 1.0
C      1  0.7325841186247  0.5194183780021  0.3977096183067 1.0
C      1  0.7298080555827  0.5532147046539  0.4868317588865 1.0
C      1  0.7362226070676  0.4977213911389  0.5622876009768 1.0
C      1  0.7440144662518  0.4028251217871  0.5575691220191 1.0
C      1  0.5697981894168  0.2991141511927  0.7116972385519 1.0
C      1  0.5727109057797  0.2334032156145  0.3589205558751 1.0
C      1  0.5654457794734  0.5544854901555  0.2072954193723 1.0
C      1  0.5474789484792  0.8048327432356  0.4530192863121 1.0
C      1  0.5589729516519  0.6498930239533  0.7765839875350 1.0
C      1  0.2957704896151  0.6488456353086  0.3664540671069 1.0
C      1  0.3028842377238  0.6787632550902  0.6043397196207 1.0
C      1  0.3031084448274  0.4677901723975  0.7166017258590 1.0
C      1  0.3054617242070  0.2958193827404  0.5278037281882 1.0
C      1  0.2953925757246  0.4136605148953  0.3175310399881 1.0
C      1  0.3856371117357  0.7157078788901  0.5726339484813 1.0
C      1  0.3795164723861  0.5122018318589  0.7500865027090 1.0
C      1  0.3876790346981  0.2748083272344  0.5755603719298 1.0
C      1  0.3741119501391  0.3584041504597  0.3069106793816 1.0
C      1  0.3738515462632  0.6372968246096  0.3127580738113 1.0
C      1  0.6556458981418  0.5696511847456  0.3460443291147 1.0
C      1  0.6563484800633  0.6175419554871  0.5026703846590 1.0
C      1  0.6649496075788  0.5260413435794  0.6240107144618 1.0
C      1  0.6823810261637  0.3698233123613  0.6273163403838 1.0
C      1  0.6887086507027  0.3416586010450  0.3995797045502 1.0
C      1  0.6349882974226  0.1801330760814  0.5180058905964 1.0
C      1  0.6352516946700  0.3897058702835  0.1899194600987 1.0
C      1  0.6253840280880  0.7767826568707  0.2915923624391 1.0
C      1  0.5969621375504  0.8046476091302  0.6884105821441 1.0
C      1  0.6038900729710  0.4234052318524  0.8427514555956 1.0
C      1  0.2496214928591  0.3778614338555  0.3962301124843 1.0
C      1  0.2466764035850  0.5652728781448  0.3575112964159 1.0
C      1  0.2510735676280  0.6617161878106  0.5244297140743 1.0
C      1  0.2511914593527  0.5368139193577  0.6709000050704 1.0
C      1  0.2573416171923  0.3599881444623  0.5834994975075 1.0
C      1  0.6266892138544  0.4470817172785  0.6543466372611 1.0
C      1  0.6054135761950  0.3652412544956  0.4504667854658 1.0
C      1  0.5931820901038  0.4945788455374  0.3607480095784 1.0
C      1  0.6145222504378  0.6298980842885  0.4188299211403 1.0
C      1  0.6211486386832  0.6058560050035  0.5930193264264 1.0
C      1  0.6037867480527  0.5101185474874  0.8501195189666 1.0
C      1  0.6561002407741  0.2148453882722  0.5908751015560 1.0
C      1  0.6482866931521  0.3260684705969  0.2442768920510 1.0
C      1  0.6348574940778  0.7010710031321  0.2523310498764 1.0
C      1  0.5931228964499  0.8399596132386  0.6072681979236 1.0
C      1  0.4284015564687  0.4495154984304  0.4219437850867 1.0
C      1  0.4368425537527  0.5471203727647  0.4341881189154 1.0
C      1  0.4579903561212  0.5707995655873  0.5308752819313 1.0
C      1  0.4254266563915  0.5192335126289  0.6095209931459 1.0
C      1  0.3793033906520  0.4463383814915  0.5854899808595 1.0
C      1  0.3942172618944  0.3207865866164  0.6577123247759 1.0
C      1  0.3793629582180  0.2902379811289  0.3719555971325 1.0
C      1  0.3741566572653  0.5569046254789  0.2641185738609 1.0
C      1  0.3832399817843  0.7348016621161  0.4813011633402 1.0
C      1  0.3806240917173  0.6079508883688  0.7340748551773 1.0
C      1  0.2017163817771  0.4367941922613  0.4522222763756 1.0
C      1  0.2015128052083  0.5318320640664  0.4325398270685 1.0
C      1  0.2032056097049  0.5809892378973  0.5172292353146 1.0
C      1  0.2045458387486  0.5173914103174  0.5905523745538 1.0
C      1  0.2033476345361  0.4274830896569  0.5489160288881 1.0
C      1  0.4740977003131  0.3209178985102  0.5470201226413 1.0
C      1  0.4632635251823  0.3935814903376  0.3395861427291 1.0
C      1  0.4639433912438  0.6130350961125  0.3519383554218 1.0
C      1  0.4774416030496  0.6722842579535  0.5605116041489 1.0
C      1  0.4688454439519  0.5097921651945  0.7003435326396 1.0
C      1  0.6523443500169  0.2798738680367  0.3235223495632 1.0
C      1  0.6357756259041  0.6105949471993  0.2491878551307 1.0
C      1  0.5804849055537  0.8533753537428  0.5243040242133 1.0
C      1  0.5993699580230  0.5958622191429  0.8372323283527 1.0
C      1  0.6490608440973  0.2850406721606  0.6523876620208 1.0
C      1  0.7495159107975  0.4251742492594  0.3945267056322 1.0
C      1  0.4348757667019  0.4118270505031  0.5131208390116 1.0
C      1  0.5068188995550  0.4822421398264  0.4906407933311 1.0
C      1  0.5861530190966  0.4530627557652  0.4476948530445 1.0
END
