TITL C-15713-8578-73 -0.878 3375.00 -137.65633235 0 0 18 (C1) n - 1
REM
REM Run started: at 2020.12.29 17:03:01 in /gpfs/home/chem/mssmkc/CARBON/AIRSS/Generating-Clusters/Str-Search/Higher-Symm/C4-100
REM VASP from code version vasp.5.4.4.18Apr17-6-g9f103f2a35 (build Oct 11 2019 16:45:47) gamma-only
REM
REM
REM
REM
REM ./C.cell (6bd13a13d554368a30d355f37ece5b26)
REM AIRSS Version 0.9.1 bugfix July 2018 build 013d7b7c2542+ Fri, 06 Jul 2018 19:26:36 +0100
REM compiler GCC version 6.3.0
REM options -cpp -iprefix /gpfs/warwick/csc/orac/software/Core/GCCcore/6.3.0/bin/../lib/gcc/x86_64-pc-linux-gnu/6.3.0/ -mtune=generic -march=x86-64 -g -O0
REM seed 1517664164 -346586789 1609552671 1131436049 832933693 1003706597 -1737809810 -694230606 -2011902049 -1595129731 -942291504 -1020221416
REM
REM C.POTCAR (d86ddea03c3ceb6dc662c8ad6801f873)
REM 
CELL 1.54180   15.00000   15.00000   15.00000   90.00000   90.00000   90.00000
LATT -1
SFAC C  
C      1  0.4344854812213  0.6053307239135  0.5144525404841 1.0
C      1  0.5291157306293  0.5865232794999  0.5038779234787 1.0
C      1  0.5617449492307  0.5108751419840  0.4484243608088 1.0
C      1  0.5721970332404  0.4326446286766  0.5097636599680 1.0
C      1  0.4940763065260  0.3980532257743  0.5485646347057 1.0
C      1  0.4002603829255  0.4365226838188  0.5457497199067 1.0
C      1  0.3783660281396  0.5299345868999  0.5344253624281 1.0
C      1  0.6054624506024  0.5321027248259  0.6366394812620 1.0
C      1  0.6256469635496  0.4537890211067  0.5870808511680 1.0
C      1  0.4968871461225  0.4027894576782  0.6499750726218 1.0
C      1  0.4137047041164  0.4508206949869  0.6422002508045 1.0
C      1  0.3902341798667  0.5452587360338  0.6342071711133 1.0
C      1  0.4514800393880  0.6143486084480  0.6145779550033 1.0
C      1  0.5487754443832  0.5969494321070  0.5974608703929 1.0
C      1  0.5626893943519  0.4997348737748  0.1875477497099 1.0
C      1  0.5627701150566  0.5020302299008  0.2742970515453 1.0
C      1  0.5609299240448  0.5072722770513  0.3602311606739 1.0
C      1  0.5790725266051  0.4438155735195  0.6696639839250 1.0
END
