TITL C-15713-8578-59 -4.494 3375.00 -762.01176083 0 0 94 (C2) n - 1
REM
REM Run started: at 2020.12.29 14:42:16 in /gpfs/home/chem/mssmkc/CARBON/AIRSS/Generating-Clusters/Str-Search/Higher-Symm/C4-100
REM VASP from code version vasp.5.4.4.18Apr17-6-g9f103f2a35 (build Oct 11 2019 16:45:47) gamma-only
REM
REM
REM
REM
REM ./C.cell (6bd13a13d554368a30d355f37ece5b26)
REM AIRSS Version 0.9.1 bugfix July 2018 build 013d7b7c2542+ Fri, 06 Jul 2018 19:26:36 +0100
REM compiler GCC version 6.3.0
REM options -cpp -iprefix /gpfs/warwick/csc/orac/software/Core/GCCcore/6.3.0/bin/../lib/gcc/x86_64-pc-linux-gnu/6.3.0/ -mtune=generic -march=x86-64 -g -O0
REM seed -242714369 2075551170 -796183922 489251942 317346932 -1316053547 -1886672682 383844688 -181580489 1263067106 1895190951 -1539072296
REM
REM C.POTCAR (d86ddea03c3ceb6dc662c8ad6801f873)
REM 
CELL 1.54180   15.00000   15.00000   15.00000   90.00000   90.00000   90.00000
LATT -1
SFAC C  
C      1  0.4130205287051  0.3466744701584  0.6872547723316 1.0
C      1  0.3809739095220  0.3460147253181  0.3132752832870 1.0
C      1  0.7324030878229  0.3281504791482  0.4974038423863 1.0
C      1  0.5871468621102  0.6533725396016  0.6872720934265 1.0
C      1  0.6191247335625  0.6555821950817  0.3137643136615 1.0
C      1  0.2675433184804  0.6725640931794  0.4986394566534 1.0
C      1  0.3989772918549  0.2215848882255  0.5899830828690 1.0
C      1  0.4736569104940  0.2226945765692  0.3750738644431 1.0
C      1  0.6281998642290  0.2105653826424  0.5492237097016 1.0
C      1  0.6011578985789  0.7791307555981  0.5909785607859 1.0
C      1  0.5264141072894  0.7786028631072  0.3761427990468 1.0
C      1  0.3718759563637  0.7899552276189  0.5505948627724 1.0
C      1  0.4507658720291  0.8332599445602  0.5248191215171 1.0
C      1  0.5112582337450  0.8326896468721  0.4515473595680 1.0
C      1  0.5450256767358  0.8333681722006  0.5390219568467 1.0
C      1  0.5492896506170  0.1673255153710  0.5233988960768 1.0
C      1  0.4888125782102  0.1684016921173  0.4502472304952 1.0
C      1  0.4550444949701  0.1675723026392  0.5377041186160 1.0
C      1  0.5202965708161  0.4549489222402  0.3839325060047 1.0
C      1  0.6128309937195  0.4450074562367  0.5910384935204 1.0
C      1  0.4225224490578  0.4781610938185  0.5450906792163 1.0
C      1  0.4800618994153  0.5460215506746  0.3842888049616 1.0
C      1  0.3873788861915  0.5555363002410  0.5912492063589 1.0
C      1  0.5776674368241  0.5225533150713  0.5451116998645 1.0
C      1  0.2526265157608  0.5946187217786  0.6190107933582 1.0
C      1  0.5071698721647  0.5986858646222  0.2375101288383 1.0
C      1  0.7052489682184  0.6312950241551  0.6076778890639 1.0
C      1  0.7472878131349  0.4056573642243  0.6179437415053 1.0
C      1  0.4927177910801  0.4032328056175  0.2369506382320 1.0
C      1  0.2949279106034  0.3696416630333  0.6076325990354 1.0
C      1  0.1956015062408  0.6120232457249  0.5430999147265 1.0
C      1  0.6061833581189  0.5983687850199  0.2273528185816 1.0
C      1  0.6747265193235  0.6078292591400  0.6993443779618 1.0
C      1  0.8043073483700  0.3886498825817  0.5419848706723 1.0
C      1  0.3936546490390  0.4036111224343  0.2271000390367 1.0
C      1  0.3255639568842  0.3924512905670  0.6995215151188 1.0
C      1  0.4242290806046  0.5643772998149  0.2378536856001 1.0
C      1  0.7576878948313  0.6134679792333  0.5236847145781 1.0
C      1  0.2956777843434  0.5505602748874  0.6898661611776 1.0
C      1  0.5757347292863  0.4374287249242  0.2372069548717 1.0
C      1  0.2425660331575  0.3879014671963  0.5235991907111 1.0
C      1  0.7043242233709  0.4495518695138  0.6889539801940 1.0
C      1  0.6207407428413  0.3277020118336  0.3629840097406 1.0
C      1  0.5808332755745  0.3194860840636  0.6878633119037 1.0
C      1  0.2958002115216  0.3257397859058  0.4729757761278 1.0
C      1  0.3795291197117  0.6733342272916  0.3643311949753 1.0
C      1  0.4193870496566  0.6805113908312  0.6886187245399 1.0
C      1  0.7044838326530  0.6758466884356  0.4732909459241 1.0
C      1  0.6252331125790  0.2822642922086  0.6137245853970 1.0
C      1  0.3493442781422  0.3001232652521  0.5541363855949 1.0
C      1  0.5337124333674  0.2949958750738  0.3551937396529 1.0
C      1  0.3750193777248  0.7179427360335  0.6146218782874 1.0
C      1  0.6508421725306  0.7009717660093  0.5545572784258 1.0
C      1  0.4665043095690  0.7061957936898  0.3562671027386 1.0
C      1  0.6401932666139  0.5121201143919  0.2253822884779 1.0
C      1  0.6774198457134  0.5263739193164  0.7446963240058 1.0
C      1  0.1571158996843  0.5408188554663  0.4980399849298 1.0
C      1  0.3596807310981  0.4898730882116  0.2258533876010 1.0
C      1  0.3228851371599  0.4736551685531  0.7454177745665 1.0
C      1  0.8426610498155  0.4602131227829  0.4973857631606 1.0
C      1  0.4253503429237  0.2501805897651  0.6748833890673 1.0
C      1  0.3865719117159  0.2535146978021  0.3496412997357 1.0
C      1  0.6977781139060  0.2349691788780  0.4845905685454 1.0
C      1  0.5748353052145  0.7499658990022  0.6756753287517 1.0
C      1  0.6134902188659  0.7480522448865  0.3502614754675 1.0
C      1  0.3022156716789  0.7657405575799  0.4859616487455 1.0
C      1  0.5996003310569  0.6110506858337  0.5855505249962 1.0
C      1  0.3299152030863  0.6396722451672  0.5715038620121 1.0
C      1  0.5231472459756  0.6258940586926  0.3349412764580 1.0
C      1  0.4004712040018  0.3896905855595  0.5855815516176 1.0
C      1  0.6700009655913  0.3607495638862  0.5705263672558 1.0
C      1  0.4771005395176  0.3753935753225  0.3342386612764 1.0
C      1  0.3859839001506  0.5762076862142  0.3350679538080 1.0
C      1  0.8172951733353  0.5511653740960  0.4939830960799 1.0
C      1  0.3929890454665  0.5831971197995  0.6907607653446 1.0
C      1  0.6142990998378  0.4250262080998  0.3341498509175 1.0
C      1  0.1825723864502  0.4499516151872  0.4941089013076 1.0
C      1  0.6070507420580  0.4168139601968  0.6903187753633 1.0
C      1  0.3089117391311  0.7073285315262  0.4152484896397 1.0
C      1  0.6796413191833  0.6936631730792  0.3850831948708 1.0
C      1  0.5069264891861  0.7009270459694  0.7143967675387 1.0
C      1  0.6912186416611  0.2934747758501  0.4138929033803 1.0
C      1  0.3206287601143  0.3080305438013  0.3847123946839 1.0
C      1  0.4933762490962  0.2989371198634  0.7137352004699 1.0
C      1  0.3057355443547  0.5189342366227  0.3042124326194 1.0
C      1  0.8238129603758  0.5001525854842  0.4119640289560 1.0
C      1  0.4162881210616  0.5133504306370  0.7587733282529 1.0
C      1  0.6943329902256  0.4826534561992  0.3034870233472 1.0
C      1  0.1759140750520  0.5014394480958  0.4123507790859 1.0
C      1  0.5841536039995  0.4866797354041  0.7584516861391 1.0
C      1  0.7723066882993  0.4938944612750  0.3411294945375 1.0
C      1  0.2275513503525  0.5085395724223  0.3416428797486 1.0
C      1  0.5002585171530  0.5000336844712  0.7830222088671 1.0
C      1  0.5001386380871  0.5002946152187  0.4775031073886 1.0
END
