TITL C-15713-8578-232 -4.121 3375.00 -712.58579313 0 0 89 (C1) n - 1
REM
REM Run started: at 2020.12.31 00:46:38 in /gpfs/home/chem/mssmkc/CARBON/AIRSS/Generating-Clusters/Str-Search/Higher-Symm/C4-100
REM VASP from code version vasp.5.4.4.18Apr17-6-g9f103f2a35 (build Oct 11 2019 16:45:47) gamma-only
REM
REM
REM
REM
REM ./C.cell (6bd13a13d554368a30d355f37ece5b26)
REM AIRSS Version 0.9.1 bugfix July 2018 build 013d7b7c2542+ Fri, 06 Jul 2018 19:26:36 +0100
REM compiler GCC version 6.3.0
REM options -cpp -iprefix /gpfs/warwick/csc/orac/software/Core/GCCcore/6.3.0/bin/../lib/gcc/x86_64-pc-linux-gnu/6.3.0/ -mtune=generic -march=x86-64 -g -O0
REM seed 852644735 -1536728485 -87934120 -1724119426 2086577613 -1259299447 -1372044171 990074940 276447590 76825710 491635817 -2005973205
REM
REM C.POTCAR (d86ddea03c3ceb6dc662c8ad6801f873)
REM 
CELL 1.54180   15.00000   15.00000   15.00000   90.00000   90.00000   90.00000
LATT -1
SFAC C  
C      1  0.4562986168162  0.2555201791692  0.3895808397981 1.0
C      1  0.5483836477153  0.4075370401963  0.2545214014193 1.0
C      1  0.4431636342547  0.6204171951778  0.2498895261198 1.0
C      1  0.5516036894105  0.7554875766300  0.3993119147649 1.0
C      1  0.4501841550171  0.7111957415133  0.5839742455494 1.0
C      1  0.5551105214223  0.6049173890290  0.7978243541702 1.0
C      1  0.4677186102065  0.3591616479815  0.7957785415489 1.0
C      1  0.5445574982780  0.2710195780790  0.5954036309976 1.0
C      1  0.4527358162406  0.7717539409102  0.4189818218636 1.0
C      1  0.5417841759386  0.7358969459764  0.6180898242317 1.0
C      1  0.4554217279810  0.5917440628053  0.7942512998520 1.0
C      1  0.5671631407943  0.3595204786026  0.7939795075846 1.0
C      1  0.4514232268605  0.2323512868818  0.5813140413719 1.0
C      1  0.5461097348269  0.2938266944379  0.3690014377510 1.0
C      1  0.4626739627911  0.4601345966614  0.2607362046891 1.0
C      1  0.5329843529392  0.6263748682346  0.2940625292870 1.0
C      1  0.3068137928977  0.6228304239658  0.5146544842023 1.0
C      1  0.6752611157585  0.5801935999662  0.6252301882404 1.0
C      1  0.3344943780297  0.4766472500529  0.6574735331296 1.0
C      1  0.6867129257619  0.3939166928058  0.6290137452560 1.0
C      1  0.2806699683187  0.3253413750058  0.4417382683570 1.0
C      1  0.7031933953370  0.4076676909455  0.3069777030192 1.0
C      1  0.3096832926374  0.5077095710517  0.3580516051180 1.0
C      1  0.7094949471437  0.5951948532382  0.4027813072417 1.0
C      1  0.6174907100145  0.2728041417751  0.5282967758521 1.0
C      1  0.3681320191930  0.2655664548404  0.3553007839273 1.0
C      1  0.6419964088205  0.4320002064014  0.2220043960683 1.0
C      1  0.3782286410563  0.6565368677961  0.3041711697651 1.0
C      1  0.6191869432551  0.7395993643650  0.4617114533824 1.0
C      1  0.3836390207079  0.6844583428558  0.6527715276877 1.0
C      1  0.6189544250358  0.5347240928795  0.7840264797404 1.0
C      1  0.4088375645235  0.3259786316972  0.7271300481421 1.0
C      1  0.5973752169001  0.4315979182599  0.6191415766499 1.0
C      1  0.3124816508647  0.3698957235873  0.5278182452447 1.0
C      1  0.6460094112012  0.4284205149933  0.3905195469857 1.0
C      1  0.3862735888207  0.5019317682257  0.4131681287834 1.0
C      1  0.6384216452550  0.5293772264664  0.3869882824268 1.0
C      1  0.3723214155740  0.5456382823607  0.5046636073849 1.0
C      1  0.6069459691370  0.5242537808332  0.5958152398817 1.0
C      1  0.3571530585470  0.4633999096799  0.5617298652109 1.0
C      1  0.5603113962200  0.7302232131947  0.7057424125392 1.0
C      1  0.4290718980483  0.5140552372384  0.8365751130129 1.0
C      1  0.5830448381679  0.2405016631696  0.6808589197080 1.0
C      1  0.4172781890390  0.2462409292144  0.4856390503076 1.0
C      1  0.5768868167491  0.3106455939456  0.2712641230377 1.0
C      1  0.4294334459685  0.5356502317163  0.2041054318669 1.0
C      1  0.5690807365450  0.7205421433014  0.3093700719247 1.0
C      1  0.4260711602568  0.7818308827799  0.5209645799679 1.0
C      1  0.6145538061525  0.7293731567655  0.5587284014163 1.0
C      1  0.3927982238078  0.6258215785213  0.7306630000802 1.0
C      1  0.6204016725781  0.4379052727439  0.7804845823114 1.0
C      1  0.3936868573709  0.2649821999594  0.6483610758700 1.0
C      1  0.6183230780344  0.2791707469960  0.4356446198920 1.0
C      1  0.3696380193098  0.4433115397926  0.2253097045967 1.0
C      1  0.6259640072628  0.6399598013838  0.2618685154335 1.0
C      1  0.3847454332420  0.7180315580577  0.3800236220370 1.0
C      1  0.5394223981857  0.5608690151634  0.3749055540971 1.0
C      1  0.4560536692981  0.6078455716498  0.5316934333473 1.0
C      1  0.5431780033920  0.5643856222455  0.5407086747354 1.0
C      1  0.4500202247181  0.4073086556348  0.5525870898767 1.0
C      1  0.5268764585550  0.3781962732074  0.5967016588582 1.0
C      1  0.4051764250537  0.3432959292961  0.5081881669747 1.0
C      1  0.5516695379778  0.4016781441755  0.3601209478005 1.0
C      1  0.4752075441528  0.4775376350764  0.3625940771661 1.0
C      1  0.6890812343989  0.5758433963845  0.3066550891108 1.0
C      1  0.3103121890790  0.6664560346129  0.4264939593159 1.0
C      1  0.6816293947622  0.6606854094256  0.5632263301683 1.0
C      1  0.3289590400507  0.5668423693765  0.6796798335022 1.0
C      1  0.7011580687587  0.4419706082940  0.7137097217932 1.0
C      1  0.3146078119851  0.3228275330540  0.6203797494671 1.0
C      1  0.6739412234735  0.3587370703078  0.4588126496336 1.0
C      1  0.3089445665940  0.4271983519547  0.3011075551736 1.0
C      1  0.6963844317484  0.3385190484078  0.5496023521529 1.0
C      1  0.3089459837417  0.3470104821442  0.3480979037026 1.0
C      1  0.7102310250551  0.4914601179227  0.2561880609473 1.0
C      1  0.3047448025162  0.6066729104502  0.3503109999060 1.0
C      1  0.6897692376420  0.6655628464762  0.4636113119340 1.0
C      1  0.3109250290466  0.6379418792937  0.6100845552681 1.0
C      1  0.6956467355429  0.5387843978073  0.7158823925631 1.0
C      1  0.3376750666848  0.3841065382154  0.6897539427118 1.0
C      1  0.6340942825808  0.7345379856317  0.2408967367558 1.0
C      1  0.4215370797839  0.8574853947586  0.4793716575035 1.0
C      1  0.5794355880291  0.6927801876585  0.7776780903292 1.0
C      1  0.4335366266679  0.4322975656201  0.8417137633439 1.0
C      1  0.5968044355576  0.2829894965863  0.7499007552032 1.0
C      1  0.3244174856162  0.2392607461577  0.4394730503719 1.0
C      1  0.6682900381486  0.3382022153579  0.2493355721797 1.0
C      1  0.3643503471657  0.4970010248462  0.1447507412397 1.0
C      1  0.5218613190007  0.5966180876908  0.4622751161683 1.0
END
