TITL C-15713-8578-104 -3.691 3375.00 -623.66516746 0 0 78 (C1) n - 1
REM
REM Run started: at 2020.12.29 23:15:50 in /gpfs/home/chem/mssmkc/CARBON/AIRSS/Generating-Clusters/Str-Search/Higher-Symm/C4-100
REM VASP from code version vasp.5.4.4.18Apr17-6-g9f103f2a35 (build Oct 11 2019 16:45:47) gamma-only
REM
REM
REM
REM
REM ./C.cell (6bd13a13d554368a30d355f37ece5b26)
REM AIRSS Version 0.9.1 bugfix July 2018 build 013d7b7c2542+ Fri, 06 Jul 2018 19:26:36 +0100
REM compiler GCC version 6.3.0
REM options -cpp -iprefix /gpfs/warwick/csc/orac/software/Core/GCCcore/6.3.0/bin/../lib/gcc/x86_64-pc-linux-gnu/6.3.0/ -mtune=generic -march=x86-64 -g -O0
REM seed 1346321290 1790509143 -552157301 1997532213 77879747 -2079442447 -675343575 -554695180 -47637172 -1006489179 658090273 -559620945
REM
REM C.POTCAR (d86ddea03c3ceb6dc662c8ad6801f873)
REM 
CELL 1.54180   15.00000   15.00000   15.00000   90.00000   90.00000   90.00000
LATT -1
SFAC C  
C      1  0.6209439543475  0.3968136604683  0.7393214088933 1.0
C      1  0.3839569869438  0.4018795466786  0.2585649737425 1.0
C      1  0.3890411100943  0.3890269421653  0.7338991135621 1.0
C      1  0.6137774683065  0.3936899950177  0.2657210284655 1.0
C      1  0.6854259325654  0.6381727943909  0.3857600950883 1.0
C      1  0.3279082137961  0.6340640838171  0.6327048285467 1.0
C      1  0.3113526204450  0.6391229693253  0.3841989740687 1.0
C      1  0.6749469348828  0.6372174674360  0.6308809170467 1.0
C      1  0.2983090906294  0.4456554202925  0.2603907430676 1.0
C      1  0.6957113447438  0.4381159814838  0.6953864464332 1.0
C      1  0.7032809115334  0.4242500526491  0.2756448104141 1.0
C      1  0.3129901336820  0.4316207413906  0.6932605441727 1.0
C      1  0.7466377048631  0.5789230541022  0.3545773824294 1.0
C      1  0.2496686213957  0.5887669919829  0.6450721913243 1.0
C      1  0.2487151157642  0.5830765067662  0.3549596418555 1.0
C      1  0.7540733319934  0.5936678004665  0.6416599835325 1.0
C      1  0.3350906512624  0.4564519113648  0.5945352328145 1.0
C      1  0.6676213534125  0.4522770624773  0.4132314716432 1.0
C      1  0.6728961993187  0.4563845398903  0.5947447783461 1.0
C      1  0.3424068206726  0.4686733747986  0.4062137979935 1.0
C      1  0.5796436342980  0.5057840289550  0.5971347485266 1.0
C      1  0.4174950622908  0.5201326280891  0.3993548545710 1.0
C      1  0.4270758446160  0.5058288549924  0.5970292861369 1.0
C      1  0.5943557068270  0.5057560322035  0.4071991447184 1.0
C      1  0.4228012496021  0.5590432220602  0.2438932050025 1.0
C      1  0.5815000994283  0.5488474193076  0.7693282293543 1.0
C      1  0.5770126911195  0.5609247198521  0.2581680949604 1.0
C      1  0.4224239881547  0.5445092830508  0.7679059564536 1.0
C      1  0.2757001994723  0.4950557545507  0.3341598084957 1.0
C      1  0.7399308392018  0.5040677487197  0.6545255528316 1.0
C      1  0.7265303082035  0.4873960458343  0.3362323194809 1.0
C      1  0.2675256014172  0.4997049546905  0.6574848824666 1.0
C      1  0.5549258691612  0.4569690495902  0.7778014484298 1.0
C      1  0.4532860960236  0.4661136221544  0.2381464581195 1.0
C      1  0.4523480143133  0.4531730197108  0.7755970093751 1.0
C      1  0.5490142351368  0.4659081502344  0.2451727846619 1.0
C      1  0.3449126421647  0.3049156634389  0.3914050781391 1.0
C      1  0.6382128045631  0.2990151703777  0.6028088148472 1.0
C      1  0.6396100492295  0.2915310090879  0.4013956791170 1.0
C      1  0.3700529178155  0.2985057203372  0.5869468534757 1.0
C      1  0.3278622772596  0.3810787370221  0.4482110223960 1.0
C      1  0.6794306284621  0.3676412710239  0.5487821288622 1.0
C      1  0.6774052177964  0.3633526675534  0.4532971538438 1.0
C      1  0.3276339830233  0.3737305117403  0.5419246510242 1.0
C      1  0.3418991739138  0.6867344911314  0.5540003110281 1.0
C      1  0.6635481841987  0.6934353555630  0.4631361497699 1.0
C      1  0.6601004480412  0.6922681284105  0.5535978520243 1.0
C      1  0.3374840880786  0.6885535423177  0.4637592408787 1.0
C      1  0.4125182208787  0.5816281150413  0.6683368747171 1.0
C      1  0.6179440896388  0.5796787733746  0.3443541478245 1.0
C      1  0.5917751493283  0.5833052857627  0.6690524366237 1.0
C      1  0.4004292401919  0.6038152063482  0.3352149335058 1.0
C      1  0.5934647890626  0.3246286177573  0.6858085320873 1.0
C      1  0.4049373825102  0.3292505179279  0.3165300838082 1.0
C      1  0.4154634748723  0.3194160991637  0.6727770341788 1.0
C      1  0.5846113509131  0.3215921852497  0.3234159292267 1.0
C      1  0.5969399362890  0.2305816963719  0.5502363046514 1.0
C      1  0.3650180193195  0.2280287336531  0.4415128328785 1.0
C      1  0.4058741628724  0.2326227436490  0.5227555449054 1.0
C      1  0.6012338793496  0.2218866369387  0.4596393607007 1.0
C      1  0.5012713961780  0.6242197479520  0.6884412742171 1.0
C      1  0.4664093415875  0.6782540416970  0.3104011117366 1.0
C      1  0.5038850976179  0.4310196257287  0.5961858261963 1.0
C      1  0.5032508863852  0.4970196031029  0.4479495419088 1.0
C      1  0.4276984764322  0.7098184595711  0.5072834235994 1.0
C      1  0.5741139329675  0.7145382176945  0.5060349858094 1.0
C      1  0.4987707439085  0.7839677090291  0.4883319532666 1.0
C      1  0.4746938643433  0.7641050432123  0.3330387498922 1.0
C      1  0.5006193949443  0.6017579331051  0.7796312393892 1.0
C      1  0.5013057269998  0.6151719861113  0.2454000246858 1.0
C      1  0.4932713840533  0.3192156349401  0.3543343216518 1.0
C      1  0.5055479956717  0.3449547801946  0.6512210558127 1.0
C      1  0.4974630175105  0.3292847787426  0.4552126484808 1.0
C      1  0.5026212035977  0.6485510250600  0.5148223658424 1.0
C      1  0.5098261853373  0.2417837754923  0.5015787600462 1.0
C      1  0.5040751268105  0.5537785364921  0.5321718055199 1.0
C      1  0.4997203957496  0.4087812167956  0.4958870758822 1.0
C      1  0.4880592802140  0.8107395748770  0.4031572385228 1.0
END
