TITL C-159479-5093-22 -2.338 3375.00 -372.97759043 0 0 47 (C1) n - 1
REM
REM Run started: at 2020.12.04 22:38:15 in /rds/project/t2_vol4/rds-t2-cs072/BORA/CARBON/AIRSS/Generating-Clusters/Str-Search/Higher-Symm/C10-100
REM VASP from code version vasp.5.4.4.18Apr17-6-g9f103f2a35 (build Oct 11 2019 16:45:47) gamma-only
REM
REM
REM
REM
REM ./C.cell (f39ce9773e2efe3fa5bbdf770a4156b8)
REM AIRSS Version 0.9.1 bugfix July 2018 build 013d7b7c2542+ Fri, 06 Jul 2018 19:26:36 +0100
REM compiler GCC version 4.8.5 20150623 (Red Hat 4.8.5-39)
REM options -cpp -mtune=generic -march=x86-64 -g -O0
REM seed -1009046506 -538104488 813239832 -1676060945 -1803248002 -1790737154 2127133063 -347801675 -1928981750 -620163429 -707209419 -742607064
REM
REM C.POTCAR (d86ddea03c3ceb6dc662c8ad6801f873)
REM 
CELL 1.54180   15.00000   15.00000   15.00000   90.00000   90.00000   90.00000
LATT -1
SFAC C  
C      1  0.4361903805489  0.4059087575532  0.7637445140596 1.0
C      1  0.5193351315594  0.3249567219185  0.5590007548027 1.0
C      1  0.5135840974829  0.4548564445076  0.2860444075818 1.0
C      1  0.5649297922437  0.7273546394573  0.3416415280379 1.0
C      1  0.5727531525761  0.6980602603912  0.6321531175880 1.0
C      1  0.3926962813938  0.3242066638049  0.7716862517694 1.0
C      1  0.4796419472211  0.3641255977259  0.4747609075573 1.0
C      1  0.4613959473356  0.5257979176969  0.3265731879163 1.0
C      1  0.5052538122174  0.7100156113259  0.4191300215953 1.0
C      1  0.5411007766573  0.6099163139646  0.6511339065575 1.0
C      1  0.3299001447486  0.5898720090780  0.3969477957452 1.0
C      1  0.3486715684033  0.6533821279793  0.4693807223414 1.0
C      1  0.3453880936659  0.6319707634103  0.5620993342838 1.0
C      1  0.4149111194321  0.2454544439770  0.7514353783108 1.0
C      1  0.3293518235609  0.4202173683166  0.4104211268038 1.0
C      1  0.5567907739901  0.2347340151972  0.5778152449997 1.0
C      1  0.5302769781475  0.3697535693990  0.3153697805645 1.0
C      1  0.5448335949469  0.6631905896849  0.2759438489889 1.0
C      1  0.5478158881199  0.7592481884030  0.5641941206873 1.0
C      1  0.4568600130217  0.4959943370441  0.7330392611864 1.0
C      1  0.5341897022982  0.4012434680690  0.6197999128539 1.0
C      1  0.6739494878185  0.3402636987124  0.4889005045336 1.0
C      1  0.6541560540793  0.4814808153009  0.3866986573871 1.0
C      1  0.6411357686151  0.5821565152857  0.4068947028003 1.0
C      1  0.6191443822343  0.6149496216240  0.5073114687004 1.0
C      1  0.5097959825292  0.4215302368308  0.7079043379247 1.0
C      1  0.6176269171382  0.2848777310850  0.5354109276849 1.0
C      1  0.6007231469030  0.4390731290870  0.3218236390140 1.0
C      1  0.6223291378030  0.6483938894040  0.3341209749183 1.0
C      1  0.6285056878355  0.7056822736817  0.5547224425400 1.0
C      1  0.3951726788629  0.3564915961130  0.4172260860297 1.0
C      1  0.3863658048216  0.5897932543058  0.3162909964413 1.0
C      1  0.4137749453329  0.7212131056242  0.4537369892056 1.0
C      1  0.3807163764938  0.6100803575985  0.6345574218742 1.0
C      1  0.4630097235763  0.1890333060216  0.7023207497775 1.0
C      1  0.5817268709592  0.5589751979060  0.5838717648029 1.0
C      1  0.5467373243608  0.4741504449121  0.5634902478959 1.0
C      1  0.5058212718917  0.4592033272019  0.4798369043029 1.0
C      1  0.4921679780789  0.5307442880045  0.4237367071868 1.0
C      1  0.5405838075081  0.6129028022234  0.4443014542188 1.0
C      1  0.5225044904311  0.1781168727121  0.6436059283447 1.0
C      1  0.4744278970868  0.3265436251370  0.3813792264193 1.0
C      1  0.4651247363154  0.6145192996842  0.2764781062630 1.0
C      1  0.4832324033736  0.7626205326309  0.5002973943699 1.0
C      1  0.4518400779904  0.5783349969301  0.6882353836241 1.0
C      1  0.3052357344283  0.5002939407606  0.4159273468844 1.0
C      1  0.6791420939605  0.4146980323182  0.4498935126243 1.0
END
