TITL C-15713-8578-249 -1.366 3375.00 -203.87871793 0 0 26 (C1) n - 1
REM
REM Run started: at 2020.12.31 04:27:07 in /gpfs/home/chem/mssmkc/CARBON/AIRSS/Generating-Clusters/Str-Search/Higher-Symm/C4-100
REM VASP from code version vasp.5.4.4.18Apr17-6-g9f103f2a35 (build Oct 11 2019 16:45:47) gamma-only
REM
REM
REM
REM
REM ./C.cell (6bd13a13d554368a30d355f37ece5b26)
REM AIRSS Version 0.9.1 bugfix July 2018 build 013d7b7c2542+ Fri, 06 Jul 2018 19:26:36 +0100
REM compiler GCC version 6.3.0
REM options -cpp -iprefix /gpfs/warwick/csc/orac/software/Core/GCCcore/6.3.0/bin/../lib/gcc/x86_64-pc-linux-gnu/6.3.0/ -mtune=generic -march=x86-64 -g -O0
REM seed 2027488862 559823154 -237687488 -1765077067 833338830 475683817 649679728 -2127699172 -1136243800 -1187111603 653554018 1395358631
REM
REM C.POTCAR (d86ddea03c3ceb6dc662c8ad6801f873)
REM 
CELL 1.54180   15.00000   15.00000   15.00000   90.00000   90.00000   90.00000
LATT -1
SFAC C  
C      1  0.3465925608143  0.5175371494429  0.4671980293488 1.0
C      1  0.4565677114571  0.3680693641493  0.4141355600740 1.0
C      1  0.6330506737556  0.4265689263714  0.4666510297177 1.0
C      1  0.6490177854978  0.6329917531093  0.4373935975066 1.0
C      1  0.4538246785586  0.6962401820045  0.4362053365860 1.0
C      1  0.5770392645905  0.5810948193416  0.4268282870241 1.0
C      1  0.4818001639976  0.6117528305772  0.4268533748819 1.0
C      1  0.4257734905365  0.5318232803278  0.4231958564447 1.0
C      1  0.4842929924276  0.4555123577194  0.4074727449791 1.0
C      1  0.5763345617875  0.4836349543361  0.4227764631461 1.0
C      1  0.7236982668257  0.6732489750972  0.4513879174585 1.0
C      1  0.4228851269020  0.7761228574542  0.4448659083449 1.0
C      1  0.2989314624065  0.4748393620765  0.5214916076990 1.0
C      1  0.4353226598024  0.2967348964979  0.4499831053345 1.0
C      1  0.6484259912414  0.3649955040475  0.5214449617608 1.0
C      1  0.4214958797647  0.2524917621803  0.5282260480523 1.0
C      1  0.6152455059092  0.3088632750999  0.5812991975683 1.0
C      1  0.7878140418554  0.7407355202359  0.4683509775175 1.0
C      1  0.3430250853187  0.8355417561835  0.4532132632219 1.0
C      1  0.2944370598444  0.4092125147474  0.5808395140715 1.0
C      1  0.5576905393044  0.2639546852939  0.6232865837144 1.0
C      1  0.8237004303382  0.6578787734639  0.4640487391200 1.0
C      1  0.4256563883326  0.8719096543923  0.4546623196454 1.0
C      1  0.3161481967131  0.3396254528697  0.6231463741212 1.0
C      1  0.4695630398198  0.2445073969070  0.6093473534687 1.0
C      1  0.3775675421984  0.2733695960731  0.6094099491923 1.0
END
