TITL C-15713-8578-250 -4.631 3375.00 -827.51807897 0 0 100 (C1) n - 1
REM
REM Run started: at 2020.12.31 04:43:47 in /gpfs/home/chem/mssmkc/CARBON/AIRSS/Generating-Clusters/Str-Search/Higher-Symm/C4-100
REM VASP from code version vasp.5.4.4.18Apr17-6-g9f103f2a35 (build Oct 11 2019 16:45:47) gamma-only
REM
REM
REM
REM
REM ./C.cell (6bd13a13d554368a30d355f37ece5b26)
REM AIRSS Version 0.9.1 bugfix July 2018 build 013d7b7c2542+ Fri, 06 Jul 2018 19:26:36 +0100
REM compiler GCC version 6.3.0
REM options -cpp -iprefix /gpfs/warwick/csc/orac/software/Core/GCCcore/6.3.0/bin/../lib/gcc/x86_64-pc-linux-gnu/6.3.0/ -mtune=generic -march=x86-64 -g -O0
REM seed -1875618669 -1256838064 -1087611331 -1351512830 1723281687 -201595413 1903637391 -1184546298 -1529987015 -1554364980 -690300247 881497070
REM
REM C.POTCAR (d86ddea03c3ceb6dc662c8ad6801f873)
REM 
CELL 1.54180   15.00000   15.00000   15.00000   90.00000   90.00000   90.00000
LATT -1
SFAC C  
C      1  0.3765328641155  0.3390411788163  0.6971927516856 1.0
C      1  0.3867806290097  0.4083925136263  0.2552638061251 1.0
C      1  0.3824180628550  0.7507033297488  0.5400540519467 1.0
C      1  0.6129049117273  0.6655028945310  0.6983198574925 1.0
C      1  0.6163610930310  0.5939594610486  0.2604881127672 1.0
C      1  0.6100328264322  0.2634178692802  0.5357357091146 1.0
C      1  0.2576160181962  0.4183503166849  0.3646875852668 1.0
C      1  0.2508466952603  0.6557256431183  0.4931231990865 1.0
C      1  0.2507079303479  0.4274622173900  0.6323133998294 1.0
C      1  0.7473755072273  0.5849177418868  0.3687407112942 1.0
C      1  0.7474420331768  0.3489518185272  0.4930717297439 1.0
C      1  0.7423326389266  0.5756843463069  0.6382078009291 1.0
C      1  0.3143759835914  0.4118904523837  0.7065757238118 1.0
C      1  0.3248409944397  0.3637301613561  0.3157586416803 1.0
C      1  0.3181840986979  0.7264966776177  0.4704333932460 1.0
C      1  0.6728632332064  0.5906514941706  0.7063839058736 1.0
C      1  0.6806818345482  0.6402620661028  0.3191581024121 1.0
C      1  0.6780727189436  0.2798159856940  0.4693157586278 1.0
C      1  0.7391484898997  0.4749980596543  0.6187090679333 1.0
C      1  0.7391275268783  0.4185976481232  0.4165159372165 1.0
C      1  0.7394337615646  0.6105225873846  0.4690939904956 1.0
C      1  0.2651333492087  0.5280203760973  0.6126202859520 1.0
C      1  0.2583950138214  0.5831455117813  0.4191474078769 1.0
C      1  0.2667744969145  0.3868269889560  0.4621450093202 1.0
C      1  0.3000436067180  0.5673575875870  0.6966024920827 1.0
C      1  0.3014177624504  0.2942055446453  0.4558563427492 1.0
C      1  0.3160828049613  0.6298050001030  0.3484933203618 1.0
C      1  0.7062006267209  0.4321140496154  0.7017987099575 1.0
C      1  0.6806879019577  0.6940443237494  0.4647480441878 1.0
C      1  0.6819487692801  0.3730651291782  0.3451655376334 1.0
C      1  0.3039603698993  0.2878981972405  0.5542163885907 1.0
C      1  0.3080857106601  0.5520364642775  0.2838223003293 1.0
C      1  0.3058965178171  0.6560580234910  0.6533363390604 1.0
C      1  0.6919753973644  0.7135180880766  0.5628856234777 1.0
C      1  0.6966141731507  0.4516472251184  0.2817068203829 1.0
C      1  0.6985584708706  0.3488460181925  0.6575344270521 1.0
C      1  0.5166579240029  0.6678505644930  0.7292773203583 1.0
C      1  0.5208512811032  0.2264620587277  0.5260365738156 1.0
C      1  0.5198870575683  0.6166639315037  0.2459731715966 1.0
C      1  0.4699364066905  0.3401675436642  0.7299638026159 1.0
C      1  0.4781921303936  0.7780273074088  0.5269574375198 1.0
C      1  0.4825553365435  0.3834365626340  0.2349774144090 1.0
C      1  0.3357547854803  0.7260236349067  0.3709018633266 1.0
C      1  0.3339624477042  0.5004087462730  0.7523496692514 1.0
C      1  0.3428304908226  0.2811293848847  0.3713972897515 1.0
C      1  0.6629378260041  0.2770847138187  0.3701296078164 1.0
C      1  0.6422944175042  0.4984146554460  0.7430035083550 1.0
C      1  0.6617998992373  0.7243145035525  0.3703766558214 1.0
C      1  0.3523315577341  0.5168825641698  0.5568064844319 1.0
C      1  0.3506299816872  0.4444545596392  0.4861644085217 1.0
C      1  0.3445990639122  0.5398654685418  0.4613044008528 1.0
C      1  0.6503947154870  0.4755745183215  0.5545373136620 1.0
C      1  0.6530058022443  0.5502153545291  0.4893008571364 1.0
C      1  0.6525538317092  0.4590840305407  0.4561048290018 1.0
C      1  0.5321310595682  0.4640523188238  0.2175611879741 1.0
C      1  0.5281364980061  0.7618680176137  0.6061479239973 1.0
C      1  0.5218274312128  0.2913792118431  0.6684471287279 1.0
C      1  0.4708160431008  0.5383588835011  0.2196665936650 1.0
C      1  0.4666909454436  0.2477037137905  0.6030492462191 1.0
C      1  0.4671609423096  0.7240086772641  0.6721163448134 1.0
C      1  0.4883804595316  0.5364436385694  0.6722016691576 1.0
C      1  0.4691390007800  0.3374339422975  0.4368775483584 1.0
C      1  0.4730028378516  0.6220637674227  0.3822910839449 1.0
C      1  0.5607512538173  0.4686260714489  0.6858680655674 1.0
C      1  0.5265314280019  0.6596889309753  0.4495118794162 1.0
C      1  0.5206098825053  0.3745095655799  0.3694605812686 1.0
C      1  0.6040326978819  0.6296272445824  0.4770909852064 1.0
C      1  0.5766409394976  0.4251925178810  0.5980469767732 1.0
C      1  0.5997409775425  0.4121321690744  0.3916375335303 1.0
C      1  0.4373315008252  0.4010993091950  0.4969995408363 1.0
C      1  0.4416163233480  0.5137543660807  0.5981455467441 1.0
C      1  0.3936750670835  0.5871641453980  0.3972915805625 1.0
C      1  0.3770810231481  0.7157479436488  0.6324736097546 1.0
C      1  0.3744972553339  0.2772895278168  0.6181663770591 1.0
C      1  0.3800968856199  0.5055844409989  0.2411223946987 1.0
C      1  0.6084415133522  0.3188810752442  0.6228441792285 1.0
C      1  0.6199299210567  0.7282291327564  0.6239135259573 1.0
C      1  0.6237290460560  0.4983805460932  0.2417178195432 1.0
C      1  0.5259003474836  0.3126243242041  0.2909048371878 1.0
C      1  0.5238437779709  0.7597787948820  0.4406678253329 1.0
C      1  0.5215385445863  0.4165911666001  0.7623741248216 1.0
C      1  0.4741225186032  0.6832917324493  0.3025647803044 1.0
C      1  0.4749868178741  0.2398577384222  0.4399968279909 1.0
C      1  0.4741755121152  0.5830918092839  0.7570348659838 1.0
C      1  0.5917429274868  0.7862845324128  0.3724101592373 1.0
C      1  0.5824381422375  0.4650285213801  0.8242598811802 1.0
C      1  0.5940695358520  0.2437348426320  0.3150896433006 1.0
C      1  0.4123373102260  0.2110029226803  0.3704941794597 1.0
C      1  0.4053284251093  0.5328980957782  0.8086316208246 1.0
C      1  0.4063419819334  0.7552306335997  0.3172447186117 1.0
C      1  0.7540202062282  0.6386938314825  0.5701246601311 1.0
C      1  0.7567652179522  0.3770234541648  0.5810868732930 1.0
C      1  0.7562896115356  0.4942120816779  0.3462653823259 1.0
C      1  0.2454781737794  0.3660372226908  0.5632811540262 1.0
C      1  0.2466549812422  0.6262756301348  0.5807336289324 1.0
C      1  0.2456965448609  0.5082629812071  0.3448570122392 1.0
C      1  0.5002342952177  0.2242022623764  0.3337619859763 1.0
C      1  0.4994323753498  0.7735836554813  0.3422613618140 1.0
C      1  0.4947442593215  0.5055018313659  0.8230712293526 1.0
C      1  0.4891868804603  0.4419176825773  0.5567213308328 1.0
END
