TITL C-15713-8578-147 -2.494 3375.00 -402.75358814 0 0 51 (C5) n - 1
REM
REM Run started: at 2020.12.30 08:25:54 in /gpfs/home/chem/mssmkc/CARBON/AIRSS/Generating-Clusters/Str-Search/Higher-Symm/C4-100
REM VASP from code version vasp.5.4.4.18Apr17-6-g9f103f2a35 (build Oct 11 2019 16:45:47) gamma-only
REM
REM
REM
REM
REM ./C.cell (6bd13a13d554368a30d355f37ece5b26)
REM AIRSS Version 0.9.1 bugfix July 2018 build 013d7b7c2542+ Fri, 06 Jul 2018 19:26:36 +0100
REM compiler GCC version 6.3.0
REM options -cpp -iprefix /gpfs/warwick/csc/orac/software/Core/GCCcore/6.3.0/bin/../lib/gcc/x86_64-pc-linux-gnu/6.3.0/ -mtune=generic -march=x86-64 -g -O0
REM seed -1551580117 -2026253528 437392777 984878058 -1821314058 1658778738 217743062 -986669408 806326169 -49718406 1891428208 457618779
REM
REM C.POTCAR (d86ddea03c3ceb6dc662c8ad6801f873)
REM 
CELL 1.54180   15.00000   15.00000   15.00000   90.00000   90.00000   90.00000
LATT -1
SFAC C  
C      1  0.6345405580367  0.6209171542967  0.6274337807017 1.0
C      1  0.6581431041813  0.4121638063752  0.6275305403007 1.0
C      1  0.4671498543951  0.3251283287331  0.6271383875536 1.0
C      1  0.3250975231827  0.4800031373195  0.6268212478955 1.0
C      1  0.4280589256093  0.6627214794951  0.6271623826658 1.0
C      1  0.7173889078916  0.5979298619176  0.5741825339588 1.0
C      1  0.6619076198163  0.3265828285601  0.5738884303895 1.0
C      1  0.3867521789093  0.2952852618952  0.5735134611492 1.0
C      1  0.2716075922735  0.5470529066194  0.5731274168554 1.0
C      1  0.4751113594985  0.7342189621137  0.5733232050295 1.0
C      1  0.6380882587267  0.5944372366696  0.3300506250553 1.0
C      1  0.6350578657546  0.4024049687807  0.3301087403168 1.0
C      1  0.4505231318080  0.3450910485967  0.3296362611451 1.0
C      1  0.3394143558289  0.5031907023029  0.3291677096817 1.0
C      1  0.4550867548404  0.6573192753766  0.3292283207760 1.0
C      1  0.7755172551806  0.5370447895074  0.6209221536192 1.0
C      1  0.6223098222839  0.2522013241844  0.6204735231161 1.0
C      1  0.3038075662470  0.3099860224228  0.6202177094769 1.0
C      1  0.2599395596322  0.6301427578187  0.6203415542106 1.0
C      1  0.5511426099393  0.7703908103407  0.6197758938379 1.0
C      1  0.6515872777825  0.5951611286870  0.4207594133562 1.0
C      1  0.6389957874706  0.3891542581594  0.4207334230770 1.0
C      1  0.4386677524025  0.3368870519288  0.4202266068535 1.0
C      1  0.3274690897760  0.5113118935371  0.4197689707439 1.0
C      1  0.4583098633397  0.6707094333461  0.4199433044406 1.0
C      1  0.4825334038479  0.5812609879150  0.4614754960023 1.0
C      1  0.5734192136261  0.5451501696093  0.4620175248761 1.0
C      1  0.5667450764930  0.4475346475686  0.4618820047363 1.0
C      1  0.4718820505471  0.4233580901962  0.4617558241885 1.0
C      1  0.4199088156056  0.5061346009760  0.4615000313606 1.0
C      1  0.5743343643765  0.4565352347166  0.6476428140879 1.0
C      1  0.4832564848603  0.4185280522143  0.6474573425192 1.0
C      1  0.4188539797157  0.4934744809922  0.6472962522003 1.0
C      1  0.4701246484858  0.5777563241740  0.6474072926523 1.0
C      1  0.5663091115619  0.5549721986281  0.6475862318670 1.0
C      1  0.5409038613827  0.2706542721672  0.6293917994186 1.0
C      1  0.2961471166912  0.3930511576510  0.6292791419639 1.0
C      1  0.3364543146589  0.6632611787110  0.6297638943899 1.0
C      1  0.6065996478456  0.7082318690135  0.6293862862934 1.0
C      1  0.7327127596070  0.4654516771217  0.6301049228446 1.0
C      1  0.4769425239384  0.5836433918766  0.2812941329026 1.0
C      1  0.5746894436480  0.5516075885464  0.2815562322518 1.0
C      1  0.5744331592526  0.4490284089581  0.2815726907902 1.0
C      1  0.4766082725808  0.4173267750763  0.2815044090718 1.0
C      1  0.4162790771944  0.5005812754749  0.2812553306032 1.0
C      1  0.2640633822461  0.5268286461338  0.4860008468455 1.0
C      1  0.4529784047087  0.7356602033459  0.4862808188108 1.0
C      1  0.7118970925397  0.6197191273035  0.4872134193497 1.0
C      1  0.6808761688931  0.3392413938755  0.4870626622986 1.0
C      1  0.4042980342167  0.2815351822613  0.4865452488899 1.0
C      1  0.5030484166689  0.5005262365084  0.3946065525786 1.0
END
