TITL C-15713-8578-81 -1.751 3375.00 -287.31021692 0 0 37 (C2) n - 1
REM
REM Run started: at 2020.12.29 18:51:21 in /gpfs/home/chem/mssmkc/CARBON/AIRSS/Generating-Clusters/Str-Search/Higher-Symm/C4-100
REM VASP from code version vasp.5.4.4.18Apr17-6-g9f103f2a35 (build Oct 11 2019 16:45:47) gamma-only
REM
REM
REM
REM
REM ./C.cell (6bd13a13d554368a30d355f37ece5b26)
REM AIRSS Version 0.9.1 bugfix July 2018 build 013d7b7c2542+ Fri, 06 Jul 2018 19:26:36 +0100
REM compiler GCC version 6.3.0
REM options -cpp -iprefix /gpfs/warwick/csc/orac/software/Core/GCCcore/6.3.0/bin/../lib/gcc/x86_64-pc-linux-gnu/6.3.0/ -mtune=generic -march=x86-64 -g -O0
REM seed -1223410975 457580330 -1311202678 -756688499 -2037709252 -2066251313 193197768 -567401330 -672874423 -1723412767 -1361640943 -934852509
REM
REM C.POTCAR (d86ddea03c3ceb6dc662c8ad6801f873)
REM 
CELL 1.54180   15.00000   15.00000   15.00000   90.00000   90.00000   90.00000
LATT -1
SFAC C  
C      1  0.6452374167821  0.5997610406093  0.5027876109362 1.0
C      1  0.6452188171080  0.4029200357480  0.4922871107810 1.0
C      1  0.4555567288416  0.6635032001026  0.5532171492020 1.0
C      1  0.4554418268012  0.3397286048854  0.4423393570741 1.0
C      1  0.7251488006550  0.4376200197407  0.6098355682147 1.0
C      1  0.7249384644871  0.5650714551412  0.3854180095119 1.0
C      1  0.5821989807679  0.4931892924610  0.6214672594973 1.0
C      1  0.5820963466339  0.5098553578041  0.3739077075011 1.0
C      1  0.3747106998611  0.6521537934837  0.4998366245135 1.0
C      1  0.3746889658504  0.3512073949582  0.4958449484879 1.0
C      1  0.3210160010149  0.5088802815074  0.4268629738069 1.0
C      1  0.3209318507484  0.4943817724913  0.5686550250721 1.0
C      1  0.4213471559835  0.3349397847301  0.5793016426440 1.0
C      1  0.4214178834571  0.6683456384126  0.4163779559471 1.0
C      1  0.5948241746380  0.3400298282563  0.5494373830615 1.0
C      1  0.5948564742023  0.6630689174671  0.4460425122586 1.0
C      1  0.4141515909737  0.3880879985378  0.6543749418963 1.0
C      1  0.4143672259725  0.6148526605569  0.3416115541368 1.0
C      1  0.5224365553964  0.5450514150820  0.6704618965939 1.0
C      1  0.5224124250916  0.4579003157761  0.3249977627653 1.0
C      1  0.7366564610918  0.5451918596795  0.4739527308873 1.0
C      1  0.7366313104758  0.4572932597469  0.5211599029202 1.0
C      1  0.5858209030899  0.5317005219914  0.5352345686266 1.0
C      1  0.5857858319165  0.4709500032299  0.4599274868549 1.0
C      1  0.5053825134237  0.3204764257251  0.5261702787110 1.0
C      1  0.5055078233642  0.6828658679545  0.4694520378879 1.0
C      1  0.4289633227391  0.5445056891718  0.6809786994908 1.0
C      1  0.4289334767923  0.4584728549280  0.3144777557967 1.0
C      1  0.3195802259397  0.4311935767125  0.4906512077326 1.0
C      1  0.3197360785520  0.5720901958517  0.5048150438844 1.0
C      1  0.6305212890305  0.5990533767598  0.3836382884636 1.0
C      1  0.6306688819796  0.4039441523500  0.6117946915086 1.0
C      1  0.3732015064960  0.4716414283651  0.6514901396861 1.0
C      1  0.3733495298721  0.5313431949568  0.3441571208074 1.0
C      1  0.4689811226275  0.6179983981971  0.6337475314104 1.0
C      1  0.4689207438247  0.3850176884265  0.3617413200067 1.0
C      1  0.3989937935178  0.5015108982015  0.4978902014226 1.0
END
