TITL C-151763-8073-2 -1.436 3375.00 -226.92251418 0 0 29 (Cs) n - 1
REM
REM Run started: at 2020.11.30 20:46:50 in /rds/project/t2_vol4/rds-t2-cs072/BORA/CARBON/AIRSS/Generating-Clusters/Str-Search/Higher-Symm/C10-100
REM VASP from code version vasp.5.4.4.18Apr17-6-g9f103f2a35 (build Oct 11 2019 16:45:47) gamma-only
REM
REM
REM
REM
REM ./C.cell (f39ce9773e2efe3fa5bbdf770a4156b8)
REM AIRSS Version 0.9.1 bugfix July 2018 build 013d7b7c2542+ Fri, 06 Jul 2018 19:26:36 +0100
REM compiler GCC version 4.8.5 20150623 (Red Hat 4.8.5-39)
REM options -cpp -mtune=generic -march=x86-64 -g -O0
REM seed -1364009856 96446962 551286099 1401975705 -1469875739 86694432 -1090429336 1542111936 2068997779 1420660685 -1544680052 1141984373
REM
REM C.POTCAR (d86ddea03c3ceb6dc662c8ad6801f873)
REM 
CELL 1.54180   15.00000   15.00000   15.00000   90.00000   90.00000   90.00000
LATT -1
SFAC C  
C      1  0.6655145186558  0.4513577994076  0.5793911892175 1.0
C      1  0.6655176356561  0.5485337854367  0.5794280259843 1.0
C      1  0.5032345880825  0.4536891126677  0.3433986255328 1.0
C      1  0.5032137771168  0.5461367574535  0.3433742515903 1.0
C      1  0.4893668952562  0.3620703072033  0.3884729692162 1.0
C      1  0.4893102171424  0.6377327791863  0.3884601558549 1.0
C      1  0.3494279467686  0.4517710155145  0.4127055294800 1.0
C      1  0.3494122461590  0.5480148950484  0.4127039625292 1.0
C      1  0.7387518230638  0.5529062947329  0.5159835974651 1.0
C      1  0.7387395176590  0.4470162771603  0.5159285404564 1.0
C      1  0.3432300393610  0.5473779245880  0.5759294222136 1.0
C      1  0.3432458350124  0.4524261153624  0.5759264907021 1.0
C      1  0.5301640456274  0.6618613740484  0.5512351436348 1.0
C      1  0.5301983389907  0.3379508334371  0.5512612054476 1.0
C      1  0.4182771680047  0.4131246472676  0.3574021189798 1.0
C      1  0.4182381721808  0.5866619370749  0.3573719826414 1.0
C      1  0.4783784866298  0.3200014452501  0.4733949599853 1.0
C      1  0.4783370663983  0.6797929498252  0.4733785549891 1.0
C      1  0.3400552020141  0.4002213683044  0.4951627036222 1.0
C      1  0.3400231351690  0.5995642053806  0.4951434141599 1.0
C      1  0.4277319036276  0.4516870526203  0.6325602525929 1.0
C      1  0.4277279102856  0.5481341932931  0.6325587695183 1.0
C      1  0.5928031495128  0.6029731366695  0.5906674588701 1.0
C      1  0.5928028126748  0.3968859992599  0.5906368596657 1.0
C      1  0.3870387596645  0.3197596912704  0.5018363610345 1.0
C      1  0.3870133453077  0.6800121164310  0.5018368883501 1.0
C      1  0.5015079819352  0.3962525020903  0.6208035434239 1.0
C      1  0.5014796227246  0.6035738780267  0.6208171114127 1.0
C      1  0.8016769593189  0.4999791059887  0.4722719114295 1.0
END
