TITL C-15713-8578-87 -3.43 3375.00 -563.59468276 0 0 71 (C1) n - 1
REM
REM Run started: at 2020.12.29 20:52:03 in /gpfs/home/chem/mssmkc/CARBON/AIRSS/Generating-Clusters/Str-Search/Higher-Symm/C4-100
REM VASP from code version vasp.5.4.4.18Apr17-6-g9f103f2a35 (build Oct 11 2019 16:45:47) gamma-only
REM
REM
REM
REM
REM ./C.cell (6bd13a13d554368a30d355f37ece5b26)
REM AIRSS Version 0.9.1 bugfix July 2018 build 013d7b7c2542+ Fri, 06 Jul 2018 19:26:36 +0100
REM compiler GCC version 6.3.0
REM options -cpp -iprefix /gpfs/warwick/csc/orac/software/Core/GCCcore/6.3.0/bin/../lib/gcc/x86_64-pc-linux-gnu/6.3.0/ -mtune=generic -march=x86-64 -g -O0
REM seed 1078051082 1526270287 -1894090664 -1903646150 -1676734929 -372972052 -1821118325 -1093404597 -1728443183 -1625313731 -1165640545 -722895345
REM
REM C.POTCAR (d86ddea03c3ceb6dc662c8ad6801f873)
REM 
CELL 1.54180   15.00000   15.00000   15.00000   90.00000   90.00000   90.00000
LATT -1
SFAC C  
C      1  0.6437952613247  0.4542114631060  0.3433361246063 1.0
C      1  0.3366836049167  0.5416064401110  0.3523926358019 1.0
C      1  0.3540847949190  0.4526633887646  0.6629878201603 1.0
C      1  0.6564730323477  0.5246197803815  0.6657917541283 1.0
C      1  0.4765383181577  0.6840194148980  0.5093592657586 1.0
C      1  0.5541664031313  0.2546928518954  0.4977166309049 1.0
C      1  0.5605481002284  0.7009187051321  0.5544405863214 1.0
C      1  0.4654774672648  0.2340795329492  0.5286786254267 1.0
C      1  0.3548123951064  0.3641404227146  0.6249693385353 1.0
C      1  0.6560996673362  0.6085202897894  0.6240215906893 1.0
C      1  0.6521521167342  0.3613852805347  0.3697378731238 1.0
C      1  0.3422420598550  0.6293396361809  0.3933665181809 1.0
C      1  0.4256352081383  0.5230160336264  0.3296761471394 1.0
C      1  0.5576155629495  0.4862433260673  0.3286748681129 1.0
C      1  0.5932009636182  0.5164176253399  0.7361560640462 1.0
C      1  0.4269831635005  0.4878045265963  0.7076562696813 1.0
C      1  0.4041260596860  0.5803841353778  0.7411822909245 1.0
C      1  0.5123064827975  0.4571012402191  0.7561234809622 1.0
C      1  0.5299817720642  0.6605025122013  0.1817742482354 1.0
C      1  0.4775505880481  0.4544074108565  0.2711275890925 1.0
C      1  0.4780607831614  0.5460269567322  0.8187316631632 1.0
C      1  0.5529581126116  0.5912728240561  0.7775625216664 1.0
C      1  0.4820795222858  0.5003700873070  0.1843588379312 1.0
C      1  0.5180497165777  0.5753541204318  0.1659061637462 1.0
C      1  0.4655588294828  0.3047252113496  0.7287361088303 1.0
C      1  0.5358140773716  0.6665360719946  0.7170466957720 1.0
C      1  0.5232437313370  0.3032681395502  0.2846983809593 1.0
C      1  0.4665804972301  0.7199282587849  0.3108258973393 1.0
C      1  0.3948467195664  0.6954266003213  0.3464776173690 1.0
C      1  0.6006701579054  0.3040962671911  0.3185535108606 1.0
C      1  0.5931487032726  0.6783553262966  0.6411080107140 1.0
C      1  0.3984750092330  0.3022056485801  0.6781041683595 1.0
C      1  0.4451857477702  0.6615449596431  0.7034710508092 1.0
C      1  0.5362555318885  0.3573621082309  0.7523011023477 1.0
C      1  0.5490147466578  0.6952756151121  0.2660543974252 1.0
C      1  0.4498452360302  0.3568744874597  0.2744316402707 1.0
C      1  0.3906343676622  0.6793596603686  0.5438876280903 1.0
C      1  0.6407133403046  0.2704834998365  0.5085123257915 1.0
C      1  0.6085449327984  0.6569499744916  0.4858182244373 1.0
C      1  0.4033848375160  0.2968124437442  0.4933014253985 1.0
C      1  0.6984080965804  0.5245052199874  0.3911861512359 1.0
C      1  0.2848168456929  0.4631953969902  0.3984683169657 1.0
C      1  0.2971225214322  0.5252719095297  0.6195907910078 1.0
C      1  0.6998084729688  0.4475152369810  0.6104991445589 1.0
C      1  0.2037444134392  0.5044055401991  0.5702828437688 1.0
C      1  0.7911076437726  0.4841187145009  0.5552144835536 1.0
C      1  0.7903031683795  0.5115964513356  0.4470251159830 1.0
C      1  0.1984973814222  0.4806845102502  0.4592943434132 1.0
C      1  0.3461735604768  0.3645638049590  0.5301063606121 1.0
C      1  0.6790158492421  0.6011157142513  0.5278950073678 1.0
C      1  0.6646179676463  0.3521248800621  0.4669957129311 1.0
C      1  0.3393821110443  0.6192565698176  0.4866272329223 1.0
C      1  0.1687359859533  0.4225926413570  0.5317581649487 1.0
C      1  0.7825568810458  0.5758086014020  0.5206738454531 1.0
C      1  0.8388094212804  0.4360607084295  0.4834933432377 1.0
C      1  0.1637140867772  0.5610569721739  0.5013712333703 1.0
C      1  0.6860011171390  0.6106222386717  0.3395161533752 1.0
C      1  0.2955876589193  0.3868228054785  0.3370371952689 1.0
C      1  0.3217787828723  0.6052924013596  0.6769123612476 1.0
C      1  0.6868740325795  0.3719534230868  0.6728619096174 1.0
C      1  0.6553556319325  0.4341887142982  0.5195513962832 1.0
C      1  0.3388758041187  0.5324446079085  0.5278373113305 1.0
C      1  0.3393389283443  0.4492421846150  0.4838057840013 1.0
C      1  0.6513226811492  0.5181740712918  0.4806861918608 1.0
C      1  0.3746496364482  0.6732325116485  0.6378949466174 1.0
C      1  0.6241874522048  0.3456083282384  0.7199907731595 1.0
C      1  0.6322776894453  0.6638192637862  0.3052808264133 1.0
C      1  0.3596873099278  0.3502164623520  0.2997198662031 1.0
C      1  0.5259537847773  0.6276246898485  0.4392855218049 1.0
C      1  0.4859314608669  0.3129176601946  0.4579270423387 1.0
C      1  0.5065737993331  0.5580177867715  0.3718219360348 1.0
END
