TITL C-15713-8578-12 -1.456 3375.00 -213.17081676 0 0 27 (C1) n - 1
REM
REM Run started: at 2020.12.29 07:04:02 in /gpfs/home/chem/mssmkc/CARBON/AIRSS/Generating-Clusters/Str-Search/Higher-Symm/C4-100
REM VASP from code version vasp.5.4.4.18Apr17-6-g9f103f2a35 (build Oct 11 2019 16:45:47) gamma-only
REM
REM
REM
REM
REM ./C.cell (6bd13a13d554368a30d355f37ece5b26)
REM AIRSS Version 0.9.1 bugfix July 2018 build 013d7b7c2542+ Fri, 06 Jul 2018 19:26:36 +0100
REM compiler GCC version 6.3.0
REM options -cpp -iprefix /gpfs/warwick/csc/orac/software/Core/GCCcore/6.3.0/bin/../lib/gcc/x86_64-pc-linux-gnu/6.3.0/ -mtune=generic -march=x86-64 -g -O0
REM seed -577606626 351455890 -263823159 1530717583 -1166860518 -1000107211 1676378977 -756200061 -261423346 2146313674 1800087377 705600246
REM
REM C.POTCAR (d86ddea03c3ceb6dc662c8ad6801f873)
REM 
CELL 1.54180   15.00000   15.00000   15.00000   90.00000   90.00000   90.00000
LATT -1
SFAC C  
C      1  0.4332712684670  0.0742520248391  0.6708138101175 1.0
C      1  0.3640595477729  0.0695699433280  0.6228272219271 1.0
C      1  0.3316782516513  0.1044285857478  0.5482336219829 1.0
C      1  0.3438947530960  0.1572043753299  0.4839246023416 1.0
C      1  0.3923496327364  0.2183075800997  0.4422521480309 1.0
C      1  0.4514416633471  0.2745080351949  0.4245509266919 1.0
C      1  0.5280899054325  0.3268122080360  0.4423999518034 1.0
C      1  0.5720692343808  0.2839915310911  0.5143407860266 1.0
C      1  0.5804641029699  0.2320997281951  0.5790765186850 1.0
C      1  0.5623646371296  0.1718233483360  0.6410820904452 1.0
C      1  0.5117556885562  0.1143799009199  0.6757512248157 1.0
C      1  0.6104924512091  0.7661670992320  0.5329863811698 1.0
C      1  0.5777246431301  0.7066263039044  0.5987382022116 1.0
C      1  0.4997819202249  0.6727843621354  0.5989020423315 1.0
C      1  0.4169949399411  0.6582986610596  0.5706769216665 1.0
C      1  0.3778274325492  0.6894757095489  0.5017965529002 1.0
C      1  0.3728818857120  0.7346520202166  0.4259362225957 1.0
C      1  0.4310735330228  0.7869886411272  0.3916990048344 1.0
C      1  0.5167318886406  0.8211469975096  0.4022954040291 1.0
C      1  0.5447384538791  0.9106492908182  0.4187165447981 1.0
C      1  0.6056635496873  0.8999450970715  0.4812410781411 1.0
C      1  0.6415980653320  0.8546999002450  0.5468165061280 1.0
C      1  0.5676612302245  0.5784275634421  0.3958768149845 1.0
C      1  0.5704952686943  0.7455251526415  0.4423672862953 1.0
C      1  0.5479920565225  0.4093807499871  0.4090909397864 1.0
C      1  0.5594558376713  0.4911768923437  0.3966709976508 1.0
C      1  0.5683692580194  0.6607532975996  0.4116725976093 1.0
END
