TITL C-15713-8578-132 -2.07 3375.00 -343.59517262 0 0 43 (C1) n - 1
REM
REM Run started: at 2020.12.30 05:59:13 in /gpfs/home/chem/mssmkc/CARBON/AIRSS/Generating-Clusters/Str-Search/Higher-Symm/C4-100
REM VASP from code version vasp.5.4.4.18Apr17-6-g9f103f2a35 (build Oct 11 2019 16:45:47) gamma-only
REM
REM
REM
REM
REM ./C.cell (6bd13a13d554368a30d355f37ece5b26)
REM AIRSS Version 0.9.1 bugfix July 2018 build 013d7b7c2542+ Fri, 06 Jul 2018 19:26:36 +0100
REM compiler GCC version 6.3.0
REM options -cpp -iprefix /gpfs/warwick/csc/orac/software/Core/GCCcore/6.3.0/bin/../lib/gcc/x86_64-pc-linux-gnu/6.3.0/ -mtune=generic -march=x86-64 -g -O0
REM seed 1795607862 -742318031 905506454 1260690293 1072486131 999692769 111753037 -1144618222 633350200 -1542313430 -760720800 1024624605
REM
REM C.POTCAR (d86ddea03c3ceb6dc662c8ad6801f873)
REM 
CELL 1.54180   15.00000   15.00000   15.00000   90.00000   90.00000   90.00000
LATT -1
SFAC C  
C      1  0.3910712909901  0.3410644875128  0.4150990412981 1.0
C      1  0.6585976678524  0.5808437548496  0.3450384625339 1.0
C      1  0.4120792840351  0.7106325136059  0.5242324755778 1.0
C      1  0.5843312316624  0.5014289288914  0.6671352087766 1.0
C      1  0.4538923827044  0.6155170696207  0.6702533807761 1.0
C      1  0.3896095003135  0.2815107191261  0.5926855875607 1.0
C      1  0.5643605831645  0.3556060762924  0.3740256530180 1.0
C      1  0.4399483280203  0.6931585513080  0.6139773269143 1.0
C      1  0.3852581585756  0.3376559326064  0.5187386256820 1.0
C      1  0.3729882589586  0.4373934963228  0.5566582920064 1.0
C      1  0.3700443035560  0.5673557038201  0.4632498764816 1.0
C      1  0.4231670951490  0.3093798226196  0.6662229432045 1.0
C      1  0.5478060996420  0.4164528971855  0.6836164716822 1.0
C      1  0.4601506270343  0.4501835044654  0.5094711087059 1.0
C      1  0.4717770529300  0.3744514161900  0.3620756340076 1.0
C      1  0.4402103808889  0.6745022129823  0.3706522858948 1.0
C      1  0.5881638842682  0.6857593649071  0.5319663517517 1.0
C      1  0.6624021835282  0.4266213698178  0.4464361130403 1.0
C      1  0.5753082999402  0.3616287888356  0.6074825187893 1.0
C      1  0.3879995341202  0.6587745902259  0.4452045310554 1.0
C      1  0.2618997869727  0.4452231657898  0.4354497427425 1.0
C      1  0.5351106179911  0.3957342560368  0.5284788086811 1.0
C      1  0.5463589330441  0.5901482022678  0.6696297207156 1.0
C      1  0.6747374013704  0.5084526739870  0.4976096236513 1.0
C      1  0.4385069139406  0.5036331520927  0.4340966948055 1.0
C      1  0.4621089851436  0.4722031919374  0.3458053072450 1.0
C      1  0.3910315933650  0.4600624650696  0.6547615223667 1.0
C      1  0.6020380333113  0.2891320970356  0.5546388899782 1.0
C      1  0.3916665029315  0.5471509562925  0.6725595113045 1.0
C      1  0.3121637240062  0.4958333319898  0.4976083210205 1.0
C      1  0.6002120032778  0.3505612014594  0.4704820972840 1.0
C      1  0.5120161022616  0.6305407726955  0.3301915879632 1.0
C      1  0.3103814533322  0.3830631062983  0.4007345527969 1.0
C      1  0.6806276622706  0.5850890416881  0.4383942289390 1.0
C      1  0.5018447103890  0.7247692126025  0.5504601161614 1.0
C      1  0.6142561218632  0.5066622270088  0.3094627409436 1.0
C      1  0.6445127232300  0.5331684652309  0.5871470816461 1.0
C      1  0.6081250350117  0.6205811022658  0.5987328725910 1.0
C      1  0.5998621670375  0.6600170441179  0.3537296060660 1.0
C      1  0.5209183429526  0.5347809343150  0.3046812443716 1.0
C      1  0.6286558466109  0.6671220922725  0.4491790369691 1.0
C      1  0.4534503339043  0.3918156307583  0.6960742959128 1.0
C      1  0.6303490584484  0.4243342756025  0.3558707070873 1.0
END
