TITL C-15713-8578-33 -1.833 3375.00 -294.86839429 0 0 37 (C1) n - 1
REM
REM Run started: at 2020.12.29 10:01:51 in /gpfs/home/chem/mssmkc/CARBON/AIRSS/Generating-Clusters/Str-Search/Higher-Symm/C4-100
REM VASP from code version vasp.5.4.4.18Apr17-6-g9f103f2a35 (build Oct 11 2019 16:45:47) gamma-only
REM
REM
REM
REM
REM ./C.cell (6bd13a13d554368a30d355f37ece5b26)
REM AIRSS Version 0.9.1 bugfix July 2018 build 013d7b7c2542+ Fri, 06 Jul 2018 19:26:36 +0100
REM compiler GCC version 6.3.0
REM options -cpp -iprefix /gpfs/warwick/csc/orac/software/Core/GCCcore/6.3.0/bin/../lib/gcc/x86_64-pc-linux-gnu/6.3.0/ -mtune=generic -march=x86-64 -g -O0
REM seed 1118784740 -1704946973 340704709 1125201316 -1100247220 531664867 -1923656039 1089787605 -820722859 -5349046 -1691841562 -1500221816
REM
REM C.POTCAR (d86ddea03c3ceb6dc662c8ad6801f873)
REM 
CELL 1.54180   15.00000   15.00000   15.00000   90.00000   90.00000   90.00000
LATT -1
SFAC C  
C      1  0.4560025759909  0.6036839709192  0.3772947821700 1.0
C      1  0.4474836749802  0.3981340883105  0.6391253401627 1.0
C      1  0.4592502119846  0.3758127869763  0.3338637087370 1.0
C      1  0.4583923916813  0.6204301902138  0.6384376304752 1.0
C      1  0.5071659484840  0.4594946664947  0.6829886820438 1.0
C      1  0.5093510737931  0.5449572369929  0.3241822796486 1.0
C      1  0.5108614795700  0.5555725236175  0.6843512676310 1.0
C      1  0.5130879908557  0.4493379766286  0.3093492402301 1.0
C      1  0.6554742045841  0.3820810669890  0.6558093338002 1.0
C      1  0.6608052868049  0.6248973871272  0.3336849698374 1.0
C      1  0.6660879151833  0.6228681755934  0.6628350867899 1.0
C      1  0.6674631528688  0.3818287083907  0.3341461810871 1.0
C      1  0.6070544535065  0.5522762041860  0.3117257243294 1.0
C      1  0.6051429513820  0.4539608652038  0.6875601554926 1.0
C      1  0.6107882006866  0.4518534619511  0.3069479288623 1.0
C      1  0.6096589393514  0.5542178878211  0.6905428742035 1.0
C      1  0.3691258472289  0.3997979710204  0.3591355086360 1.0
C      1  0.3462814435662  0.5154141526156  0.6706935156913 1.0
C      1  0.3425710283970  0.4855131283107  0.3791636881064 1.0
C      1  0.3604886613144  0.4385508340244  0.6173976578111 1.0
C      1  0.5157560200413  0.6877362968382  0.6097467643273 1.0
C      1  0.5148709725452  0.3112756515316  0.3704723498720 1.0
C      1  0.5008402641668  0.3337245389272  0.5964257676137 1.0
C      1  0.5110616805616  0.6756029797430  0.4004837659963 1.0
C      1  0.6049723934519  0.6826926120976  0.3803293838761 1.0
C      1  0.5965349404877  0.3284107948699  0.6084656731087 1.0
C      1  0.6112672419739  0.3196117797841  0.3734090050556 1.0
C      1  0.6107751376759  0.6859871568971  0.6216784815565 1.0
C      1  0.3237388755022  0.4150243905694  0.4420498538802 1.0
C      1  0.3752356758053  0.5801706297588  0.6056296241567 1.0
C      1  0.3759533136071  0.5650034701750  0.4206346179563 1.0
C      1  0.3292695554829  0.4539387587416  0.5250272532331 1.0
C      1  0.5717404380725  0.7321007421634  0.5484725402400 1.0
C      1  0.5633605699476  0.2758547437151  0.4425233982660 1.0
C      1  0.5548021379018  0.2855969435610  0.5358003803668 1.0
C      1  0.5678372833208  0.7271967180210  0.4547619744969 1.0
C      1  0.3562115672419  0.5480580092190  0.5130869102522 1.0
END
