TITL C-15713-8578-193 -3.223 3375.00 -537.92072077 0 0 66 (Ci) n - 1
REM
REM Run started: at 2020.12.30 16:26:27 in /gpfs/home/chem/mssmkc/CARBON/AIRSS/Generating-Clusters/Str-Search/Higher-Symm/C4-100
REM VASP from code version vasp.5.4.4.18Apr17-6-g9f103f2a35 (build Oct 11 2019 16:45:47) gamma-only
REM
REM
REM
REM
REM ./C.cell (6bd13a13d554368a30d355f37ece5b26)
REM AIRSS Version 0.9.1 bugfix July 2018 build 013d7b7c2542+ Fri, 06 Jul 2018 19:26:36 +0100
REM compiler GCC version 6.3.0
REM options -cpp -iprefix /gpfs/warwick/csc/orac/software/Core/GCCcore/6.3.0/bin/../lib/gcc/x86_64-pc-linux-gnu/6.3.0/ -mtune=generic -march=x86-64 -g -O0
REM seed -1411615815 -1867663505 -2136205787 -914252315 -484135927 1587084926 805640517 1877872990 -377894655 -1916791453 -723905237 -141828352
REM
REM C.POTCAR (d86ddea03c3ceb6dc662c8ad6801f873)
REM 
CELL 1.54180   15.00000   15.00000   15.00000   90.00000   90.00000   90.00000
LATT -1
SFAC C  
C      1  0.5359065091890  0.2796018305476  0.6235065871605 1.0
C      1  0.4640943400890  0.7203991920479  0.3764940959341 1.0
C      1  0.5140893533338  0.3909737557699  0.7314902800592 1.0
C      1  0.4859108196129  0.6090271851258  0.2685107466598 1.0
C      1  0.3668059240824  0.5424573590742  0.6840905389564 1.0
C      1  0.6331919832389  0.4575426464275  0.3159093994263 1.0
C      1  0.5583190361952  0.6989913646111  0.3704710416694 1.0
C      1  0.4416814855943  0.3010087946795  0.6295295001087 1.0
C      1  0.4314030969743  0.6042876872128  0.7107446717814 1.0
C      1  0.5685944926521  0.3957119215954  0.2892549654898 1.0
C      1  0.8060341245092  0.3259528540007  0.4495093557896 1.0
C      1  0.1939735188779  0.6740437264152  0.5504877250937 1.0
C      1  0.4558670111117  0.2828167116113  0.3894845767796 1.0
C      1  0.5441322025590  0.7171835711198  0.6105154034208 1.0
C      1  0.4087909561842  0.2843496646753  0.5422652908145 1.0
C      1  0.5912097790422  0.7156502237460  0.4577344227740 1.0
C      1  0.5594174248620  0.4590044130018  0.7760484182760 1.0
C      1  0.4405828593895  0.5409957335197  0.2239520932686 1.0
C      1  0.2792487967768  0.7151815461421  0.5226478414147 1.0
C      1  0.7207410639910  0.2848116991115  0.4773591747686 1.0
C      1  0.6933742786176  0.6425020448711  0.6613373803174 1.0
C      1  0.3066258215404  0.3574976078145  0.3386624326020 1.0
C      1  0.6468557660435  0.2523857390854  0.5007779072924 1.0
C      1  0.3531597266295  0.7476216449329  0.4992142093596 1.0
C      1  0.5054657869031  0.5004295944259  0.4491603584937 1.0
C      1  0.4945351526521  0.4995700719691  0.5508408219563 1.0
C      1  0.3440598740583  0.3257447679591  0.4898518927215 1.0
C      1  0.6559399124704  0.6742547497843  0.5101486645525 1.0
C      1  0.5735786993474  0.4482749165231  0.5559132156516 1.0
C      1  0.4264221182774  0.5517241590024  0.4440879445622 1.0
C      1  0.3627104941267  0.4449015066529  0.6684110543949 1.0
C      1  0.6372885267778  0.5550985791264  0.3315890488814 1.0
C      1  0.7355786632221  0.3758066992842  0.4332954454445 1.0
C      1  0.2644164727873  0.6241983119322  0.5666999808858 1.0
C      1  0.6310061456624  0.4148197927634  0.6278709662585 1.0
C      1  0.3689945851436  0.5851801725640  0.3721296784528 1.0
C      1  0.6945656615437  0.5887388999862  0.5023035821420 1.0
C      1  0.3054340226552  0.4112608172154  0.4976969349022 1.0
C      1  0.3182351041005  0.5126364495345  0.3386825838205 1.0
C      1  0.6817643290262  0.4873632839653  0.6613178613058 1.0
C      1  0.4210741698126  0.6554048560434  0.3261001999515 1.0
C      1  0.5789251021049  0.3445951416661  0.6739007275325 1.0
C      1  0.6439114930399  0.4996450497081  0.7507078670226 1.0
C      1  0.3560888400598  0.5003552665559  0.2492917308151 1.0
C      1  0.4863027052553  0.3817513931897  0.2470897296541 1.0
C      1  0.5136960496521  0.6182473567171  0.7529101473343 1.0
C      1  0.3138265009809  0.4565991225386  0.5808539373080 1.0
C      1  0.6861727241371  0.5434005575989  0.4191458577707 1.0
C      1  0.5846425819277  0.4495040028616  0.4615935354975 1.0
C      1  0.4153576445079  0.5504943961433  0.5384076252219 1.0
C      1  0.4948355367193  0.6739060599836  0.6799965669287 1.0
C      1  0.5051634322538  0.3260950358839  0.3200020955142 1.0
C      1  0.4269019234682  0.4486284446032  0.2167612763469 1.0
C      1  0.5730953140104  0.5513730963706  0.7832395013752 1.0
C      1  0.7054291955216  0.5654043351601  0.6068531662452 1.0
C      1  0.2945701561095  0.4345951588872  0.3931466202329 1.0
C      1  0.5739503756715  0.6247333808804  0.3093896021592 1.0
C      1  0.4260496255926  0.3752659696673  0.6906102297687 1.0
C      1  0.4812936572483  0.2582839090020  0.4815630556515 1.0
C      1  0.5187079155483  0.7417168560728  0.5184372203009 1.0
C      1  0.3625086621072  0.3075076727102  0.3948602303699 1.0
C      1  0.6374915296386  0.6924926329418  0.6051402713723 1.0
C      1  0.4397713194733  0.7487182711700  0.4678338555086 1.0
C      1  0.5602247969699  0.2512830650520  0.5321671034366 1.0
C      1  0.6696125388832  0.4431362693320  0.4093755669559 1.0
C      1  0.3303902894553  0.5568610094326  0.5906241860820 1.0
END
