TITL C-15713-8578-134 -3.664 3375.00 -628.31719630 0 0 78 (C1) n - 1
REM
REM Run started: at 2020.12.30 06:13:20 in /gpfs/home/chem/mssmkc/CARBON/AIRSS/Generating-Clusters/Str-Search/Higher-Symm/C4-100
REM VASP from code version vasp.5.4.4.18Apr17-6-g9f103f2a35 (build Oct 11 2019 16:45:47) gamma-only
REM
REM
REM
REM
REM ./C.cell (6bd13a13d554368a30d355f37ece5b26)
REM AIRSS Version 0.9.1 bugfix July 2018 build 013d7b7c2542+ Fri, 06 Jul 2018 19:26:36 +0100
REM compiler GCC version 6.3.0
REM options -cpp -iprefix /gpfs/warwick/csc/orac/software/Core/GCCcore/6.3.0/bin/../lib/gcc/x86_64-pc-linux-gnu/6.3.0/ -mtune=generic -march=x86-64 -g -O0
REM seed -1266400317 -1644668219 -240102614 -990084757 244722563 989075726 1632016933 -59363048 -1116093160 229823336 1696260024 -890002581
REM
REM C.POTCAR (d86ddea03c3ceb6dc662c8ad6801f873)
REM 
CELL 1.54180   15.00000   15.00000   15.00000   90.00000   90.00000   90.00000
LATT -1
SFAC C  
C      1  0.2971887318468  0.7059909348604  0.3751643690034 1.0
C      1  0.2952492926336  0.2985400489934  0.6246755847240 1.0
C      1  0.7024792989968  0.2971707406185  0.3746308152686 1.0
C      1  0.7041875480389  0.7037393160009  0.6255082917012 1.0
C      1  0.5285000225480  0.5444012295385  0.4236348680404 1.0
C      1  0.4569424912271  0.5301705367178  0.5764910501906 1.0
C      1  0.4707669275067  0.4591416650098  0.4234095433164 1.0
C      1  0.5422196783584  0.4724926296448  0.5764466193683 1.0
C      1  0.3745574455645  0.5216759615477  0.5237377674568 1.0
C      1  0.4794457863167  0.3766323765032  0.4759476430291 1.0
C      1  0.6246189749583  0.4814097215818  0.5238383321094 1.0
C      1  0.5196796812705  0.6266743511356  0.4764472475220 1.0
C      1  0.6783255252434  0.2734121805794  0.4507185618464 1.0
C      1  0.7284433199384  0.6800568769917  0.5494470259725 1.0
C      1  0.3211452234758  0.7301434737178  0.4511704170377 1.0
C      1  0.2714199143188  0.3229864095482  0.5486851399395 1.0
C      1  0.4198635367187  0.2882133494558  0.3576853656985 1.0
C      1  0.7133014773463  0.4210779362003  0.6416174253208 1.0
C      1  0.5796856993516  0.7155343666986  0.3586369717996 1.0
C      1  0.2859936913164  0.5810132530582  0.6420849348662 1.0
C      1  0.5338598038440  0.2428419379973  0.4460358485407 1.0
C      1  0.7586457194669  0.5354415851118  0.5535878809158 1.0
C      1  0.4655295643219  0.7608090926904  0.4470508446224 1.0
C      1  0.2405755548903  0.4671806365805  0.5533279662503 1.0
C      1  0.5843362767681  0.3085427969574  0.5993298476535 1.0
C      1  0.6925513720247  0.5865669919287  0.4006270610804 1.0
C      1  0.4148571844026  0.6941235304937  0.6000848608845 1.0
C      1  0.3068441267929  0.4170087964787  0.3999245582146 1.0
C      1  0.4225430345991  0.4178077640285  0.2603816225834 1.0
C      1  0.5837780711361  0.4235674945993  0.7391664036409 1.0
C      1  0.5772680949803  0.5861798541514  0.2609183325931 1.0
C      1  0.4154529861223  0.5782977118298  0.7395835713037 1.0
C      1  0.7011846979596  0.4915615616462  0.3783114996754 1.0
C      1  0.5099310457138  0.7026652549756  0.6222425962077 1.0
C      1  0.2982387968568  0.5120865921759  0.3779292516709 1.0
C      1  0.4892884818632  0.2998082462253  0.6214674875849 1.0
C      1  0.5748719561398  0.4810735715370  0.2729158135747 1.0
C      1  0.5205190834563  0.5759173300042  0.7273005574496 1.0
C      1  0.4248879910965  0.5228635343230  0.2727524798350 1.0
C      1  0.4787062893225  0.4259784396790  0.7270387549059 1.0
C      1  0.3771088272888  0.4827888909053  0.4398030208667 1.0
C      1  0.5185297602247  0.3789363445326  0.5597923144355 1.0
C      1  0.6221186249035  0.5208790603480  0.4401555838008 1.0
C      1  0.4804427117664  0.6238521805582  0.5602106094457 1.0
C      1  0.3925597733868  0.7467733902136  0.5088381759473 1.0
C      1  0.2545229894656  0.3944301586718  0.4912033109203 1.0
C      1  0.6067188610200  0.2565445028868  0.5080023124341 1.0
C      1  0.7449673299291  0.6085230781080  0.4919229952071 1.0
C      1  0.3414848754703  0.5612287229895  0.3089684689990 1.0
C      1  0.4402310744244  0.3426703870139  0.6906859831814 1.0
C      1  0.6581644523308  0.4425135201584  0.3092496847455 1.0
C      1  0.5590481389973  0.6593003010162  0.6910873698270 1.0
C      1  0.6288397653876  0.6394886164854  0.3263954444504 1.0
C      1  0.3620212821021  0.6301221252286  0.6743084068205 1.0
C      1  0.3708005298025  0.3643206773430  0.3256873452461 1.0
C      1  0.6371340669218  0.3720291911187  0.6736470897302 1.0
C      1  0.3459137465049  0.6546106372067  0.3119217333098 1.0
C      1  0.3468444815679  0.3471220705019  0.6878839272381 1.0
C      1  0.6537563853261  0.3491114774344  0.3117899826024 1.0
C      1  0.6524520652797  0.6548648823448  0.6883544257796 1.0
C      1  0.5622972456514  0.3225780747765  0.2864870039318 1.0
C      1  0.6790678288097  0.5633134794980  0.7133445127851 1.0
C      1  0.4374368000415  0.6814070381046  0.2869707322337 1.0
C      1  0.3201780621440  0.4385329353093  0.7132137531184 1.0
C      1  0.3940256267536  0.4853245057726  0.7542755370658 1.0
C      1  0.5155022934437  0.3964624005255  0.2455750590880 1.0
C      1  0.6052217105749  0.5164512904641  0.7542539163683 1.0
C      1  0.4843415126446  0.6076276904561  0.2459201110448 1.0
C      1  0.7105258320977  0.4517683597695  0.5482578339142 1.0
C      1  0.5491528315767  0.7126675165557  0.4520540983939 1.0
C      1  0.2886646517624  0.5508169262051  0.5486119301225 1.0
C      1  0.4500979707216  0.2907791092797  0.4511416482307 1.0
C      1  0.2606628510338  0.4887027097684  0.6572740134377 1.0
C      1  0.5121988983242  0.2629371938072  0.3423575783472 1.0
C      1  0.7386000407324  0.5133595553374  0.6572244195179 1.0
C      1  0.4874166077637  0.7408573948210  0.3431738559210 1.0
C      1  0.4995045894838  0.5011277259637  0.6592951504229 1.0
C      1  0.4997827056063  0.5018450967037  0.3407054476696 1.0
END
