TITL C-15509-9577-59 -3.927 3375.00 -676.97038910 0 0 84 (C2) n - 1
REM
REM Run started: at 2021.01.04 20:28:50 in /gpfs/home/chem/mssmkc/CARBON/AIRSS/Generating-Clusters/Str-Search/Higher-Symm/C4-100
REM VASP from code version vasp.5.4.4.18Apr17-6-g9f103f2a35 (build Oct 11 2019 16:45:47) gamma-only
REM
REM
REM
REM
REM ./C.cell (6bd13a13d554368a30d355f37ece5b26)
REM AIRSS Version 0.9.1 bugfix July 2018 build 013d7b7c2542+ Fri, 06 Jul 2018 19:26:36 +0100
REM compiler GCC version 6.3.0
REM options -cpp -iprefix /gpfs/warwick/csc/orac/software/Core/GCCcore/6.3.0/bin/../lib/gcc/x86_64-pc-linux-gnu/6.3.0/ -mtune=generic -march=x86-64 -g -O0
REM seed 1320889987 -526360184 -1763934711 -660732995 1164972254 1418695708 -663711224 1966227080 1803140901 527550659 -28549471 1796673599
REM
REM C.POTCAR (d86ddea03c3ceb6dc662c8ad6801f873)
REM 
CELL 1.54180   15.00000   15.00000   15.00000   90.00000   90.00000   90.00000
LATT -1
SFAC C  
C      1  0.7480233032065  0.6690283317023  0.5128838718457 1.0
C      1  0.4786408538147  0.8048470837803  0.5060123676929 1.0
C      1  0.2266156031246  0.6378777258673  0.5118484850178 1.0
C      1  0.2519771389650  0.3309716646088  0.5128841511988 1.0
C      1  0.5213608868506  0.1951532589073  0.5060112088400 1.0
C      1  0.7733868465043  0.3621212033868  0.5118440244028 1.0
C      1  0.4912259771199  0.5962636586314  0.5304428103396 1.0
C      1  0.4130588238029  0.5403937076652  0.5292732818916 1.0
C      1  0.4219127590767  0.4454842599372  0.5294253633486 1.0
C      1  0.5087738102648  0.4037358025647  0.5304422901231 1.0
C      1  0.5869407366263  0.4596059990262  0.5292721394318 1.0
C      1  0.5780873166981  0.5545158499743  0.5294252323005 1.0
C      1  0.5050612312560  0.4045238350503  0.2790158983478 1.0
C      1  0.5860290202692  0.4564288777179  0.2796076265310 1.0
C      1  0.5808670626799  0.5521710671480  0.2794461269339 1.0
C      1  0.4949370013398  0.5954761844382  0.2790168943330 1.0
C      1  0.4139691024051  0.5435715260648  0.2796095721798 1.0
C      1  0.4191289828690  0.4478287310708  0.2794480550415 1.0
C      1  0.7810617992039  0.4484780760397  0.5577895560331 1.0
C      1  0.6819438159179  0.7282828458168  0.5527633570728 1.0
C      1  0.4061144192834  0.7639269715494  0.5594885533126 1.0
C      1  0.2189368289544  0.5515232920107  0.5577916463017 1.0
C      1  0.3180576763386  0.2717163996432  0.5527632804291 1.0
C      1  0.5938860517923  0.2360733593362  0.5594881065258 1.0
C      1  0.3844077630295  0.2142497852264  0.5269803949336 1.0
C      1  0.6787100789497  0.2654308684008  0.5411456656932 1.0
C      1  0.7840245184525  0.5379130465778  0.5395541394546 1.0
C      1  0.6155933323642  0.7857503370764  0.5269799827507 1.0
C      1  0.3212916750539  0.7345683951932  0.5411470430526 1.0
C      1  0.2159761592998  0.4620873072970  0.5395558582816 1.0
C      1  0.4080727551713  0.5429444757899  0.4258682004933 1.0
C      1  0.4171122289357  0.4416271603671  0.4260616498389 1.0
C      1  0.5090120519248  0.3989513420196  0.4259571806012 1.0
C      1  0.5919261535699  0.4570553730466  0.4258669944091 1.0
C      1  0.5828868491153  0.5583725035611  0.4260613589562 1.0
C      1  0.4909870629152  0.6010482335780  0.4259579205273 1.0
C      1  0.5658520046440  0.7340980897355  0.3710006738039 1.0
C      1  0.3311114824873  0.6769882819993  0.3771344911697 1.0
C      1  0.2632005605386  0.4413997018594  0.3766064803919 1.0
C      1  0.4341476720511  0.2659017864896  0.3710011091074 1.0
C      1  0.6688875565681  0.3230123588991  0.3771330197563 1.0
C      1  0.7367990881877  0.5586004024671  0.3766050770704 1.0
C      1  0.3422687201914  0.5756337824680  0.3502205028773 1.0
C      1  0.3557130878404  0.4012983625031  0.3486029202714 1.0
C      1  0.5137565924540  0.3265573496292  0.3469372478718 1.0
C      1  0.6577305886496  0.4243656998468  0.3502181458915 1.0
C      1  0.6442862558717  0.5987018307799  0.3486024586300 1.0
C      1  0.4862421317536  0.6734424535182  0.3469373720297 1.0
C      1  0.4046006546425  0.5337091536682  0.7221090787527 1.0
C      1  0.4269007267219  0.4403241130629  0.7251846375581 1.0
C      1  0.5178786441853  0.4090232078619  0.7208613452674 1.0
C      1  0.5953953269602  0.4662926001349  0.7221101805531 1.0
C      1  0.5730998630252  0.5596771078816  0.7251851108784 1.0
C      1  0.4821208331502  0.5909762700735  0.7208613214320 1.0
C      1  0.6067521312963  0.6431826658922  0.6864072054850 1.0
C      1  0.5101542717645  0.6761684100182  0.6820559605147 1.0
C      1  0.3231637090179  0.5642302055783  0.6924441057216 1.0
C      1  0.3932487345621  0.3568165468287  0.6864054643114 1.0
C      1  0.4898465635506  0.3238333907466  0.6820564742695 1.0
C      1  0.6768458929385  0.4357646843509  0.6924376381141 1.0
C      1  0.4034637901410  0.7229976929290  0.3493832148161 1.0
C      1  0.2577925613211  0.5290998334447  0.3542482230410 1.0
C      1  0.3541753274163  0.3049327650566  0.3536786001419 1.0
C      1  0.5965361392057  0.2770039348223  0.3493836136687 1.0
C      1  0.7422043111141  0.4709006902753  0.3542458552630 1.0
C      1  0.6458244011998  0.6950669556036  0.3536773460985 1.0
C      1  0.2459036694100  0.3847600078458  0.5919907424593 1.0
C      1  0.4622965420404  0.1962863378691  0.5818011542150 1.0
C      1  0.7436342719456  0.3177527875139  0.5923247874736 1.0
C      1  0.7540962341692  0.6152400910319  0.5919904169638 1.0
C      1  0.5377053371752  0.8037146974938  0.5818010827758 1.0
C      1  0.2563702419866  0.6822441893351  0.5923275281104 1.0
C      1  0.2595067040444  0.5951987805079  0.6402142614084 1.0
C      1  0.3199654406545  0.3342548852694  0.6330219117455 1.0
C      1  0.5229551300953  0.2508644072646  0.6329436822373 1.0
C      1  0.7404845312664  0.4048032424459  0.6402136685496 1.0
C      1  0.6800357889866  0.6657452141083  0.6330212980862 1.0
C      1  0.4770466689419  0.7491353819932  0.6329435605335 1.0
C      1  0.7741119202430  0.5949305623013  0.4557051716689 1.0
C      1  0.5543850074978  0.7906013451794  0.4461034589476 1.0
C      1  0.2813590558524  0.6940055182494  0.4554606753204 1.0
C      1  0.2258884876739  0.4050694822940  0.4557065934140 1.0
C      1  0.4456163122585  0.2093980927430  0.4461031895679 1.0
C      1  0.7186413551622  0.3059961080579  0.4554604532967 1.0
END
