TITL C-15713-8578-189 -0.705 3375.00 -97.53875009 0 0 13 (C2v) n - 1
REM
REM Run started: at 2020.12.30 15:41:47 in /gpfs/home/chem/mssmkc/CARBON/AIRSS/Generating-Clusters/Str-Search/Higher-Symm/C4-100
REM VASP from code version vasp.5.4.4.18Apr17-6-g9f103f2a35 (build Oct 11 2019 16:45:47) gamma-only
REM
REM
REM
REM
REM ./C.cell (6bd13a13d554368a30d355f37ece5b26)
REM AIRSS Version 0.9.1 bugfix July 2018 build 013d7b7c2542+ Fri, 06 Jul 2018 19:26:36 +0100
REM compiler GCC version 6.3.0
REM options -cpp -iprefix /gpfs/warwick/csc/orac/software/Core/GCCcore/6.3.0/bin/../lib/gcc/x86_64-pc-linux-gnu/6.3.0/ -mtune=generic -march=x86-64 -g -O0
REM seed 370516411 -661717191 -163609814 1498879512 -1034142684 -206624074 -1468305174 2105378757 1547182186 -1266118137 -632993431 1582821168
REM
REM C.POTCAR (d86ddea03c3ceb6dc662c8ad6801f873)
REM 
CELL 1.54180   15.00000   15.00000   15.00000   90.00000   90.00000   90.00000
LATT -1
SFAC C  
C      1  0.5454960981437  0.6427558903423  0.4101023576286 1.0
C      1  0.4557182570665  0.3506179717280  0.4109824359868 1.0
C      1  0.4557972853106  0.6423468929614  0.4099225814228 1.0
C      1  0.5454711023221  0.3502078686747  0.4112003103862 1.0
C      1  0.4002346145041  0.5817021483996  0.4288309779048 1.0
C      1  0.6004975171619  0.4115309246599  0.4296499850062 1.0
C      1  0.6006420780667  0.5816158747458  0.4286743168855 1.0
C      1  0.4003618299697  0.4114986508255  0.4298003900572 1.0
C      1  0.5856403432619  0.4968022060565  0.4640108504204 1.0
C      1  0.4155706585682  0.4968292112294  0.4638862003758 1.0
C      1  0.5005658320790  0.4972463931786  0.5216727712677 1.0
C      1  0.5003671975650  0.4977998506084  0.6105797668358 1.0
C      1  0.5002037859806  0.4969790165900  0.6972258558222 1.0
END
