TITL C-15713-8578-235 -2.732 3375.00 -455.10633535 0 0 56 (Cs) n - 1
REM
REM Run started: at 2020.12.31 01:19:13 in /gpfs/home/chem/mssmkc/CARBON/AIRSS/Generating-Clusters/Str-Search/Higher-Symm/C4-100
REM VASP from code version vasp.5.4.4.18Apr17-6-g9f103f2a35 (build Oct 11 2019 16:45:47) gamma-only
REM
REM
REM
REM
REM ./C.cell (6bd13a13d554368a30d355f37ece5b26)
REM AIRSS Version 0.9.1 bugfix July 2018 build 013d7b7c2542+ Fri, 06 Jul 2018 19:26:36 +0100
REM compiler GCC version 6.3.0
REM options -cpp -iprefix /gpfs/warwick/csc/orac/software/Core/GCCcore/6.3.0/bin/../lib/gcc/x86_64-pc-linux-gnu/6.3.0/ -mtune=generic -march=x86-64 -g -O0
REM seed -418008926 -170038143 -924033006 -344921611 798268476 -385745258 -770446614 -740163727 -1256488380 1317374565 -2016974002 1581471504
REM
REM C.POTCAR (d86ddea03c3ceb6dc662c8ad6801f873)
REM 
CELL 1.54180   15.00000   15.00000   15.00000   90.00000   90.00000   90.00000
LATT -1
SFAC C  
C      1  0.6530457104931  0.6399091077466  0.3904374046332 1.0
C      1  0.5489448377181  0.3115116486992  0.3908047364768 1.0
C      1  0.3016900973072  0.5478273540003  0.3889362520228 1.0
C      1  0.6529606314901  0.6396715056788  0.6183054400487 1.0
C      1  0.5490219645805  0.3116910780096  0.6178531679762 1.0
C      1  0.3018547767100  0.5475492374454  0.6202960005895 1.0
C      1  0.3610047776481  0.6252974616091  0.3924077181727 1.0
C      1  0.4500610990719  0.3085360265324  0.3904478031718 1.0
C      1  0.7026011437836  0.5540856104377  0.3908557746882 1.0
C      1  0.3611235923351  0.6251686080696  0.6165034543457 1.0
C      1  0.4501437679771  0.3086247552716  0.6180644483704 1.0
C      1  0.7024319977866  0.5537729566999  0.6177397968577 1.0
C      1  0.3859798603146  0.3274629084818  0.4543397973783 1.0
C      1  0.4117844591326  0.6696829325820  0.4550021684894 1.0
C      1  0.7123432951404  0.4885929078321  0.4545059535333 1.0
C      1  0.3860866826232  0.3274331568573  0.5540131669572 1.0
C      1  0.4118201947786  0.6695612248684  0.5536308940179 1.0
C      1  0.7122769861777  0.4885307235195  0.5537674912421 1.0
C      1  0.6127402123826  0.3299418486521  0.4540287023800 1.0
C      1  0.5988215985976  0.6777285632450  0.4548238795945 1.0
C      1  0.2849552238540  0.4828987789931  0.4539232628088 1.0
C      1  0.6126957608642  0.3299839259959  0.5543890578427 1.0
C      1  0.5988567412663  0.6776272367616  0.5537363836677 1.0
C      1  0.2850535259987  0.4828329697531  0.5551032631274 1.0
C      1  0.3848701665843  0.3819914682278  0.2517181798917 1.0
C      1  0.4574978128852  0.6565415815168  0.2456511218874 1.0
C      1  0.6550589794560  0.4628333126357  0.2567034327268 1.0
C      1  0.3847733822137  0.3817500617400  0.7570299590475 1.0
C      1  0.4577977826985  0.6562411266899  0.7635028878710 1.0
C      1  0.6550379325429  0.4626465892531  0.7519696919958 1.0
C      1  0.6072573107195  0.3944395875723  0.2574297402753 1.0
C      1  0.5421767865018  0.6280387333061  0.2695671718344 1.0
C      1  0.3389003927642  0.4513739406834  0.2588797617296 1.0
C      1  0.6070401327163  0.3944126921613  0.7515082084957 1.0
C      1  0.5424054350564  0.6279040145628  0.7393060153812 1.0
C      1  0.3391393072025  0.4513546733714  0.7505636505854 1.0
C      1  0.3901667529650  0.6027441792621  0.2990134548383 1.0
C      1  0.6772562161127  0.5417656659624  0.2963208825196 1.0
C      1  0.4502730851585  0.3354917178562  0.2961283314632 1.0
C      1  0.3904490772487  0.6027108870695  0.7099192648661 1.0
C      1  0.6773570354416  0.5414831170352  0.7123569626968 1.0
C      1  0.4501430526707  0.3354387995523  0.7124484106115 1.0
C      1  0.6342187271768  0.6278441804552  0.2936818067406 1.0
C      1  0.3182598426282  0.5332361276644  0.2930172027129 1.0
C      1  0.5467895552365  0.3382704792973  0.2957150397074 1.0
C      1  0.6343910240501  0.6276440535810  0.7151909779260 1.0
C      1  0.3185572714076  0.5332478255606  0.7162944972657 1.0
C      1  0.5466629607064  0.3382961129825  0.7129903569458 1.0
C      1  0.3095230058915  0.3891244440527  0.5528046278847 1.0
C      1  0.5038519500315  0.7061778982176  0.5518356850967 1.0
C      1  0.5038316706270  0.7062932164517  0.4564583970676 1.0
C      1  0.6890488726675  0.3920967134285  0.5516254126339 1.0
C      1  0.6890543739143  0.3920663225166  0.4563345764713 1.0
C      1  0.3094014116470  0.3892222548654  0.4556929761325 1.0
C      1  0.4818052661624  0.5646155969412  0.7079999097105 1.0
C      1  0.4816094888825  0.5646708977846  0.3007120865942 1.0
END
