TITL C-15713-8578-55 -0.63 3375.00 -91.44819573 0 0 12 (C2v) n - 1
REM
REM Run started: at 2020.12.29 13:35:15 in /gpfs/home/chem/mssmkc/CARBON/AIRSS/Generating-Clusters/Str-Search/Higher-Symm/C4-100
REM VASP from code version vasp.5.4.4.18Apr17-6-g9f103f2a35 (build Oct 11 2019 16:45:47) gamma-only
REM
REM
REM
REM
REM ./C.cell (6bd13a13d554368a30d355f37ece5b26)
REM AIRSS Version 0.9.1 bugfix July 2018 build 013d7b7c2542+ Fri, 06 Jul 2018 19:26:36 +0100
REM compiler GCC version 6.3.0
REM options -cpp -iprefix /gpfs/warwick/csc/orac/software/Core/GCCcore/6.3.0/bin/../lib/gcc/x86_64-pc-linux-gnu/6.3.0/ -mtune=generic -march=x86-64 -g -O0
REM seed 1557739828 1728163401 -774119027 -873955451 -1180645814 1335525522 701851009 1332966360 87872485 -1903548177 45137524 -856931221
REM
REM C.POTCAR (d86ddea03c3ceb6dc662c8ad6801f873)
REM 
CELL 1.54180   15.00000   15.00000   15.00000   90.00000   90.00000   90.00000
LATT -1
SFAC C  
C      1  0.4566855368993  0.5103457171778  0.3004077636966 1.0
C      1  0.5433144545712  0.5103456754268  0.6995922387427 1.0
C      1  0.5433144850807  0.5103452354518  0.3004073163332 1.0
C      1  0.4566855201821  0.5103452213110  0.6995926668855 1.0
C      1  0.4065803814204  0.5006638451173  0.3713361208325 1.0
C      1  0.5934196020151  0.5006638336567  0.6286638753307 1.0
C      1  0.5934193525444  0.5006641041513  0.3713361054394 1.0
C      1  0.4065806691958  0.5006640812223  0.6286638907333 1.0
C      1  0.5502823419975  0.4889905994157  0.4500976357455 1.0
C      1  0.4497176488370  0.4889905947642  0.5499023856555 1.0
C      1  0.4497176616654  0.4889905490163  0.4500975731921 1.0
C      1  0.5502823455912  0.4889905432888  0.5499024274129 1.0
END
