TITL C-15509-9577-57 -4.281 3375.00 -701.55412273 0 0 88 (C1) n - 1
REM
REM Run started: at 2021.01.04 20:16:16 in /gpfs/home/chem/mssmkc/CARBON/AIRSS/Generating-Clusters/Str-Search/Higher-Symm/C4-100
REM VASP from code version vasp.5.4.4.18Apr17-6-g9f103f2a35 (build Oct 11 2019 16:45:47) gamma-only
REM
REM
REM
REM
REM ./C.cell (6bd13a13d554368a30d355f37ece5b26)
REM AIRSS Version 0.9.1 bugfix July 2018 build 013d7b7c2542+ Fri, 06 Jul 2018 19:26:36 +0100
REM compiler GCC version 6.3.0
REM options -cpp -iprefix /gpfs/warwick/csc/orac/software/Core/GCCcore/6.3.0/bin/../lib/gcc/x86_64-pc-linux-gnu/6.3.0/ -mtune=generic -march=x86-64 -g -O0
REM seed -1396982934 341418955 2039033624 1416732724 -133316730 1886032878 120631722 625344686 -1938084984 1144531418 36060234 2116424888
REM
REM C.POTCAR (d86ddea03c3ceb6dc662c8ad6801f873)
REM 
CELL 1.54180   15.00000   15.00000   15.00000   90.00000   90.00000   90.00000
LATT -1
SFAC C  
C      1  0.7033457293636  0.3469856455497  0.3167640693035 1.0
C      1  0.7471253197804  0.6638994282472  0.3607992676376 1.0
C      1  0.6467878281703  0.6540661840704  0.5249997984165 1.0
C      1  0.7484673989610  0.4566558013903  0.7143794684527 1.0
C      1  0.7035606164245  0.3047706247232  0.5504049081616 1.0
C      1  0.5801399990512  0.4664223797553  0.1963823655899 1.0
C      1  0.5768230484925  0.8300388301449  0.4100084396003 1.0
C      1  0.5957841657323  0.7118972448425  0.7296011159690 1.0
C      1  0.5925791521449  0.2904065851234  0.7807283985402 1.0
C      1  0.5568107494377  0.1742526194729  0.4094598648166 1.0
C      1  0.4973369878673  0.2414230110621  0.6445796733150 1.0
C      1  0.4631953506899  0.2711408851622  0.3062139169281 1.0
C      1  0.5433909336046  0.5889607324473  0.3106757234279 1.0
C      1  0.4635249834299  0.8091986284644  0.5383320166138 1.0
C      1  0.5319560190026  0.5635630525629  0.7633890402247 1.0
C      1  0.5161843647370  0.2995076598592  0.7244242709860 1.0
C      1  0.4692213344685  0.2032264988143  0.3841942620455 1.0
C      1  0.5201071167912  0.5124934212359  0.2472977191775 1.0
C      1  0.4887524053723  0.8068717452277  0.4400829042541 1.0
C      1  0.5181644979644  0.6582048851405  0.7385703170754 1.0
C      1  0.2211581598310  0.6272335015531  0.5937269708863 1.0
C      1  0.2514757966058  0.4339085190499  0.6377079925984 1.0
C      1  0.2626656964633  0.3356410855605  0.4945162298664 1.0
C      1  0.2800571049243  0.3961403901805  0.3750081441319 1.0
C      1  0.2415007136634  0.6308292407057  0.4148234282851 1.0
C      1  0.2002432198576  0.3848123246133  0.4336676663694 1.0
C      1  0.2259806840871  0.5469443384875  0.3765373254833 1.0
C      1  0.2381504034874  0.6631930308450  0.5058249931976 1.0
C      1  0.2548071055031  0.5292287759516  0.6019417122515 1.0
C      1  0.2623810705002  0.3555544755945  0.5846446741461 1.0
C      1  0.4426359906574  0.4606540138993  0.2747015588983 1.0
C      1  0.4610721161286  0.7312887019768  0.3844059234916 1.0
C      1  0.4435686113952  0.6937030057162  0.6875684400824 1.0
C      1  0.4781288431372  0.3880303506060  0.7185960083228 1.0
C      1  0.4412901149003  0.2339455583245  0.4706122953671 1.0
C      1  0.3135584185883  0.6797303246918  0.4511413515784 1.0
C      1  0.2992657640976  0.6098116014997  0.6411747957131 1.0
C      1  0.3315954236661  0.3830700732768  0.6440085671899 1.0
C      1  0.3390065153425  0.3449696163977  0.4378840242230 1.0
C      1  0.2948427657067  0.4860561845915  0.3416702244413 1.0
C      1  0.4247394118221  0.5594580751374  0.4116261160110 1.0
C      1  0.4793754574569  0.6507355973270  0.5171010522025 1.0
C      1  0.4380177058804  0.5754100067526  0.5753447274714 1.0
C      1  0.4797283715182  0.3708477879089  0.5545528733712 1.0
C      1  0.5191538216435  0.3730018747964  0.4036068995100 1.0
C      1  0.5641047839745  0.5993417029426  0.4914234059335 1.0
C      1  0.5336364048362  0.5345049465861  0.5667814491572 1.0
C      1  0.5296482518524  0.4520613795467  0.5293398977055 1.0
C      1  0.5496386039142  0.4523019995448  0.4369736935936 1.0
C      1  0.5359255380260  0.5487076176287  0.4062207883844 1.0
C      1  0.7825236998434  0.5743448277061  0.3836355208324 1.0
C      1  0.7443780081405  0.6355113266521  0.5322179010175 1.0
C      1  0.7793153410114  0.5213619692083  0.6516370916137 1.0
C      1  0.7583197324781  0.3765618568476  0.5530907114141 1.0
C      1  0.7480017263024  0.3928789024118  0.3773435050218 1.0
C      1  0.6272686578237  0.3449649008953  0.2702519883503 1.0
C      1  0.6743175602732  0.7143677088873  0.3317600579050 1.0
C      1  0.6129019322458  0.7198927750098  0.5785512637014 1.0
C      1  0.6774857946142  0.4400407013796  0.7757000074066 1.0
C      1  0.6310594080116  0.2585235432780  0.5268694030643 1.0
C      1  0.5108438340993  0.6877680262951  0.3152250107928 1.0
C      1  0.4523466633359  0.7740201077937  0.6218600838873 1.0
C      1  0.5135175304966  0.4681435383861  0.7569223583168 1.0
C      1  0.4712729909191  0.2142001481228  0.5628775186788 1.0
C      1  0.4501642503962  0.3573245535509  0.2734527103444 1.0
C      1  0.5387309844562  0.3358556995822  0.3167749153299 1.0
C      1  0.5977730766971  0.6726347494727  0.2940792620873 1.0
C      1  0.5177233815574  0.7265110074642  0.5633743594468 1.0
C      1  0.5980644387862  0.4970500438467  0.7820815681476 1.0
C      1  0.5427795788100  0.2876110489160  0.5675189781575 1.0
C      1  0.7799759536268  0.5923178277430  0.6007052273588 1.0
C      1  0.7799444747923  0.4260644443665  0.6333233557259 1.0
C      1  0.7759678310949  0.4147020175983  0.4643628274892 1.0
C      1  0.7716446813410  0.4850316640791  0.4024819985928 1.0
C      1  0.7841346095234  0.6465697227372  0.4441387722010 1.0
C      1  0.3861551031803  0.5087554914505  0.3334390745911 1.0
C      1  0.4124526012592  0.6633540261149  0.4377235831393 1.0
C      1  0.3892663926127  0.6223440110446  0.6496828848182 1.0
C      1  0.4227124879955  0.3881768319427  0.6381910567016 1.0
C      1  0.4379488779542  0.3359404033242  0.4643308222061 1.0
C      1  0.6429132120878  0.7951210198612  0.3741677104691 1.0
C      1  0.6399172168995  0.7453730988847  0.6674902601214 1.0
C      1  0.6491018546685  0.3518988715348  0.7848665225439 1.0
C      1  0.6212084873503  0.1859721114235  0.4619458241088 1.0
C      1  0.6152056860866  0.3898249299901  0.1848549057342 1.0
C      1  0.2952962252892  0.5051939587625  0.5144978045119 1.0
C      1  0.3814136791467  0.5307987499124  0.5025564832401 1.0
C      1  0.2274956638396  0.4778590185334  0.4472006005305 1.0
END
