TITL C-15713-8578-117 -3.818 3375.00 -629.48817705 0 0 76 (C1) n - 1
REM
REM Run started: at 2020.12.30 03:03:27 in /gpfs/home/chem/mssmkc/CARBON/AIRSS/Generating-Clusters/Str-Search/Higher-Symm/C4-100
REM VASP from code version vasp.5.4.4.18Apr17-6-g9f103f2a35 (build Oct 11 2019 16:45:47) gamma-only
REM
REM
REM
REM
REM ./C.cell (6bd13a13d554368a30d355f37ece5b26)
REM AIRSS Version 0.9.1 bugfix July 2018 build 013d7b7c2542+ Fri, 06 Jul 2018 19:26:36 +0100
REM compiler GCC version 6.3.0
REM options -cpp -iprefix /gpfs/warwick/csc/orac/software/Core/GCCcore/6.3.0/bin/../lib/gcc/x86_64-pc-linux-gnu/6.3.0/ -mtune=generic -march=x86-64 -g -O0
REM seed -1757034488 1290122686 -402450350 -745233987 -311232125 1922360745 108371475 432779033 1912051958 -1705007891 -675417319 1055646586
REM
REM C.POTCAR (d86ddea03c3ceb6dc662c8ad6801f873)
REM 
CELL 1.54180   15.00000   15.00000   15.00000   90.00000   90.00000   90.00000
LATT -1
SFAC C  
C      1  0.5816700911515  0.2734706201429  0.5039352475934 1.0
C      1  0.2832520168576  0.3550775564154  0.5458152348660 1.0
C      1  0.3151011970401  0.5924722018844  0.5456144121455 1.0
C      1  0.5653415432866  0.7194487117550  0.5695752230400 1.0
C      1  0.7414610255411  0.4702832539949  0.5338031391635 1.0
C      1  0.5495656819532  0.7058606320766  0.4733792351622 1.0
C      1  0.3240809413412  0.5970749549960  0.4484066035134 1.0
C      1  0.3079925956293  0.3255097228523  0.4558305999352 1.0
C      1  0.5492287734796  0.3033623946879  0.4164984889217 1.0
C      1  0.7313002248411  0.5277003841335  0.4485001340976 1.0
C      1  0.4533659074182  0.7040742982856  0.4667045996215 1.0
C      1  0.6866882112258  0.6091097128688  0.4731669203137 1.0
C      1  0.5653702944371  0.4033997852568  0.4311243224006 1.0
C      1  0.3928509816846  0.2824636386494  0.4643403419490 1.0
C      1  0.2793731919917  0.5269031512023  0.3997621763823 1.0
C      1  0.5166644974993  0.2732796768543  0.5768283030785 1.0
C      1  0.7017167974507  0.3858215628124  0.5175032715044 1.0
C      1  0.5980828066553  0.6363833981415  0.6079652689096 1.0
C      1  0.3719065749456  0.6500339952446  0.5978632184389 1.0
C      1  0.2416725968399  0.4425043047922  0.5408078951849 1.0
C      1  0.5284486579888  0.4593064122615  0.4928559529234 1.0
C      1  0.4563632234711  0.2722342931291  0.3978006738361 1.0
C      1  0.2750185106470  0.3890549267889  0.3935125401712 1.0
C      1  0.3917535799367  0.6556221527937  0.4080353044271 1.0
C      1  0.6233890640312  0.6646973147265  0.4227638303449 1.0
C      1  0.5181780793291  0.5759552458452  0.6234931536860 1.0
C      1  0.4340961182575  0.6222829874336  0.6757580042784 1.0
C      1  0.2650119486223  0.5207121702118  0.5917095122118 1.0
C      1  0.3484805644072  0.3238381482204  0.6102295163985 1.0
C      1  0.6485309394289  0.3175600581979  0.5588062681579 1.0
C      1  0.5740438077777  0.4530349100788  0.8453852343450 1.0
C      1  0.4779533508055  0.4696796977063  0.8549843740238 1.0
C      1  0.4649007508455  0.5605008611400  0.8257811593871 1.0
C      1  0.5489658849089  0.6058371556522  0.8144875277971 1.0
C      1  0.6177890023175  0.5394882978310  0.8268668599248 1.0
C      1  0.5831069933634  0.5715817488700  0.1150075893003 1.0
C      1  0.4874907274494  0.5664745702381  0.1070479394134 1.0
C      1  0.4604445373954  0.4769393546746  0.1244878715389 1.0
C      1  0.5418095016935  0.4228220428539  0.1328621856622 1.0
C      1  0.6165810676843  0.4852742055402  0.1377781096149 1.0
C      1  0.4875798831357  0.7066541475103  0.7051897178914 1.0
C      1  0.7258098814837  0.5215955596886  0.6989497825966 1.0
C      1  0.5946027588480  0.3353236863745  0.7241115278473 1.0
C      1  0.3775655607079  0.3613907713144  0.7763161155127 1.0
C      1  0.3132474148499  0.5491403369870  0.7494240120834 1.0
C      1  0.5290853477169  0.2913040656674  0.2415277407783 1.0
C      1  0.7048853199775  0.4784209760545  0.2827545757915 1.0
C      1  0.6179058868421  0.6742230679011  0.2489333882987 1.0
C      1  0.4248073301583  0.6609695435084  0.2367427598118 1.0
C      1  0.3428638444733  0.4565628413875  0.2477285740696 1.0
C      1  0.5141491651213  0.2698000559094  0.3287284168636 1.0
C      1  0.3027716299135  0.4571843287872  0.3292071481837 1.0
C      1  0.4042857942311  0.6595592024826  0.3172944515496 1.0
C      1  0.6255135011819  0.6723750842938  0.3316972028862 1.0
C      1  0.7134121257955  0.4710861357653  0.3730476110417 1.0
C      1  0.4907376647130  0.7494947291567  0.6176451523395 1.0
C      1  0.2701758278933  0.5229962376245  0.6824737838569 1.0
C      1  0.3468450056697  0.3403310262463  0.6992643739402 1.0
C      1  0.5893727700940  0.3071096299588  0.6384991807165 1.0
C      1  0.7253589349064  0.5283936890658  0.6074593472056 1.0
C      1  0.3870657345804  0.4587652330029  0.1776415736409 1.0
C      1  0.4784627378663  0.6456433613065  0.1651550166215 1.0
C      1  0.5762800804512  0.6521210241540  0.1714197427095 1.0
C      1  0.6806180317368  0.4737646640195  0.2037424336115 1.0
C      1  0.5413540841686  0.3416757685586  0.1769099381603 1.0
C      1  0.3988965740739  0.5781798631804  0.7602711976564 1.0
C      1  0.4127316443976  0.4075113091520  0.8388920359051 1.0
C      1  0.5950747211628  0.3791326910884  0.7956036207663 1.0
C      1  0.6918441462496  0.5401913232197  0.7722248973022 1.0
C      1  0.5482948135487  0.6899537370354  0.7698968375540 1.0
C      1  0.4212330019744  0.7196406865387  0.5573143594873 1.0
C      1  0.4248608718105  0.2870038358143  0.5576360807431 1.0
C      1  0.6638591923341  0.4110711719049  0.4293068229796 1.0
C      1  0.6762190909204  0.6010018370702  0.5680099856333 1.0
C      1  0.2361411580443  0.4587571456712  0.4497318409877 1.0
C      1  0.5140844073371  0.5115740213589  0.5586640093119 1.0
END
