TITL C-159479-5093-13 -3.15 3375.00 -534.23754865 0 0 64 (C1) n - 1
REM
REM Run started: at 2020.12.04 19:45:18 in /rds/project/t2_vol4/rds-t2-cs072/BORA/CARBON/AIRSS/Generating-Clusters/Str-Search/Higher-Symm/C10-100
REM VASP from code version vasp.5.4.4.18Apr17-6-g9f103f2a35 (build Oct 11 2019 16:45:47) gamma-only
REM
REM
REM
REM
REM ./C.cell (f39ce9773e2efe3fa5bbdf770a4156b8)
REM AIRSS Version 0.9.1 bugfix July 2018 build 013d7b7c2542+ Fri, 06 Jul 2018 19:26:36 +0100
REM compiler GCC version 4.8.5 20150623 (Red Hat 4.8.5-39)
REM options -cpp -mtune=generic -march=x86-64 -g -O0
REM seed -723045880 -1356411947 -1735511748 1086397450 172777724 1858207997 -1700644063 430427656 -1969672176 -847703067 893314346 671601988
REM
REM C.POTCAR (d86ddea03c3ceb6dc662c8ad6801f873)
REM 
CELL 1.54180   15.00000   15.00000   15.00000   90.00000   90.00000   90.00000
LATT -1
SFAC C  
C      1  0.5974784894001  0.6841455469402  0.5515401131360 1.0
C      1  0.4440515217739  0.6714873052885  0.5961504516848 1.0
C      1  0.3070070302071  0.6024434801307  0.5894653095536 1.0
C      1  0.3046872377764  0.4462869840158  0.5988383904584 1.0
C      1  0.3739999759527  0.3049373468111  0.5644260673319 1.0
C      1  0.5150838342796  0.2416499404118  0.5432011222530 1.0
C      1  0.6561979254948  0.3030057225568  0.5224845339608 1.0
C      1  0.7358423977775  0.4316127362489  0.5188942814984 1.0
C      1  0.7143141779263  0.5829979730064  0.5307977149953 1.0
C      1  0.4627823123817  0.4984638125975  0.5427414741646 1.0
C      1  0.4110978882628  0.4462613756687  0.6121802792910 1.0
C      1  0.4393778300889  0.3527608929871  0.6163178495869 1.0
C      1  0.5268019218798  0.3192158848812  0.6037735805477 1.0
C      1  0.6167654280576  0.3585135620629  0.5915393282086 1.0
C      1  0.6680673598300  0.4422974276136  0.5901987243762 1.0
C      1  0.6569116125048  0.5377977236737  0.5955661318854 1.0
C      1  0.5841386020274  0.5976107508461  0.6020417599284 1.0
C      1  0.4956071885964  0.5809027163563  0.5831917620321 1.0
C      1  0.2756367705343  0.5240635641833  0.5476604924576 1.0
C      1  0.3042087101846  0.3663310043152  0.5389234319043 1.0
C      1  0.4239294676351  0.2370673709195  0.5152462116351 1.0
C      1  0.5907334342602  0.2435945433310  0.4837014360778 1.0
C      1  0.7201470129484  0.3502915267915  0.4707960473497 1.0
C      1  0.7574438419690  0.5143171670433  0.4783618967773 1.0
C      1  0.6740539095405  0.6633171753655  0.4961942154547 1.0
C      1  0.5114131556255  0.7230089903414  0.5382633161976 1.0
C      1  0.3584686294327  0.6692016330295  0.5470170452294 1.0
C      1  0.5711928873139  0.6407340896132  0.2830868333342 1.0
C      1  0.4771094659583  0.6603516549060  0.3035847532290 1.0
C      1  0.3947166296083  0.6208019601054  0.3130791240676 1.0
C      1  0.3536677917861  0.5307981161550  0.3183439265889 1.0
C      1  0.3904291954562  0.4473586515109  0.3314795925174 1.0
C      1  0.4840921405658  0.4439804736147  0.3703437484983 1.0
C      1  0.5681826689989  0.4142594325689  0.3234683763384 1.0
C      1  0.6334095799473  0.4746401657126  0.2935721811242 1.0
C      1  0.6331298448055  0.5705599872911  0.2881144562928 1.0
C      1  0.6739976540316  0.6735393562637  0.4001402624056 1.0
C      1  0.4646349749166  0.7348703446328  0.4541207753304 1.0
C      1  0.3733087959196  0.6967173277702  0.4596135073833 1.0
C      1  0.2674733946009  0.5013905558729  0.4574057667018 1.0
C      1  0.2856508080535  0.4052518429758  0.4503736816566 1.0
C      1  0.3935816553804  0.2350314764265  0.4283706902356 1.0
C      1  0.5776485192279  0.2610234398145  0.3937455791908 1.0
C      1  0.7068814699448  0.3600441699729  0.3764419876966 1.0
C      1  0.7501402061334  0.5209764485619  0.3835854360128 1.0
C      1  0.5076666699488  0.7259271726708  0.3715243851856 1.0
C      1  0.3370447447417  0.6461151335809  0.3875052827873 1.0
C      1  0.2889413452530  0.5612222482337  0.3860115109249 1.0
C      1  0.3349855328194  0.3762070331943  0.3732046108923 1.0
C      1  0.3583012640364  0.2867282180992  0.3726497195458 1.0
C      1  0.6149425450666  0.3321058015765  0.3517811587369 1.0
C      1  0.7197565409905  0.4442524020420  0.3359341161052 1.0
C      1  0.7042269188044  0.5985939956112  0.3493161824263 1.0
C      1  0.5983375674652  0.7064017466785  0.3506883426595 1.0
C      1  0.3489346508694  0.4814934192496  0.6873112933276 1.0
C      1  0.3595482112632  0.4394818934689  0.7728812533535 1.0
C      1  0.4018295542111  0.4448614152087  0.8438184039683 1.0
C      1  0.4502946826238  0.4801872165802  0.9123258273306 1.0
C      1  0.4862243642823  0.5554006803849  0.8988547989256 1.0
C      1  0.4912895658234  0.6291488267987  0.8491772732501 1.0
C      1  0.4667779944436  0.6453790887278  0.7704486145454 1.0
C      1  0.4190008527203  0.6435764267947  0.6929102852883 1.0
C      1  0.3464329466852  0.5822466694912  0.6742776401651 1.0
C      1  0.4806176989545  0.4708776604215  0.4574500540010 1.0
END
