TITL C-15713-8578-39 -3.09 3375.00 -520.34413586 0 0 65 (C1) n - 1
REM
REM Run started: at 2020.12.29 11:11:23 in /gpfs/home/chem/mssmkc/CARBON/AIRSS/Generating-Clusters/Str-Search/Higher-Symm/C4-100
REM VASP from code version vasp.5.4.4.18Apr17-6-g9f103f2a35 (build Oct 11 2019 16:45:47) gamma-only
REM
REM
REM
REM
REM ./C.cell (6bd13a13d554368a30d355f37ece5b26)
REM AIRSS Version 0.9.1 bugfix July 2018 build 013d7b7c2542+ Fri, 06 Jul 2018 19:26:36 +0100
REM compiler GCC version 6.3.0
REM options -cpp -iprefix /gpfs/warwick/csc/orac/software/Core/GCCcore/6.3.0/bin/../lib/gcc/x86_64-pc-linux-gnu/6.3.0/ -mtune=generic -march=x86-64 -g -O0
REM seed 214015588 2118946935 -1354405683 -111909090 1877742413 1743631329 -430393941 703068350 1399319539 -1363840070 -1366609816 -1593312338
REM
REM C.POTCAR (d86ddea03c3ceb6dc662c8ad6801f873)
REM 
CELL 1.54180   15.00000   15.00000   15.00000   90.00000   90.00000   90.00000
LATT -1
SFAC C  
C      1  0.2905288605713  0.5509250351473  0.3755159093673 1.0
C      1  0.4536821664375  0.2983530975145  0.3784492018554 1.0
C      1  0.7079313888322  0.4577053771387  0.3778841972432 1.0
C      1  0.5458894853821  0.7128175215737  0.3736589764558 1.0
C      1  0.2898819885413  0.4584032318370  0.3761253610278 1.0
C      1  0.4535545088807  0.7115489459960  0.3744700008549 1.0
C      1  0.7094874670014  0.5504226998243  0.3749167775513 1.0
C      1  0.5461423819139  0.2986181550420  0.3774481148226 1.0
C      1  0.2515721825226  0.6909267545536  0.4436786189898 1.0
C      1  0.3128603530195  0.2577130887254  0.4476578539154 1.0
C      1  0.7544877008718  0.3156145282879  0.4423040611403 1.0
C      1  0.6853232552003  0.7478469429782  0.4458927116614 1.0
C      1  0.2568141644373  0.3194831316983  0.4484445927853 1.0
C      1  0.3142458219576  0.7467882088859  0.4452085276481 1.0
C      1  0.7452883430304  0.6896801264207  0.4472776874999 1.0
C      1  0.6859379692943  0.2673910773035  0.4473233479182 1.0
C      1  0.3823278815233  0.5550762816726  0.3311214553753 1.0
C      1  0.4480422024899  0.3891220882107  0.3317420088644 1.0
C      1  0.6157926974797  0.4540024547883  0.3325642437093 1.0
C      1  0.5506798974993  0.6203149149349  0.3304775911544 1.0
C      1  0.3817748088705  0.4536660030630  0.3313468814659 1.0
C      1  0.4490909868452  0.6199147833787  0.3305893163308 1.0
C      1  0.6175024586410  0.5549129740087  0.3312700504064 1.0
C      1  0.5494356303228  0.3892042323554  0.3318478538568 1.0
C      1  0.4531300357569  0.2519288138737  0.5403544960375 1.0
C      1  0.7522815493852  0.4547754703812  0.5383168581403 1.0
C      1  0.5469483702359  0.7511084064728  0.5359020071260 1.0
C      1  0.2471526210637  0.5532916082770  0.5369487220007 1.0
C      1  0.4525659436160  0.7501718575730  0.5359412237125 1.0
C      1  0.7480979733015  0.5502020718959  0.5373001915357 1.0
C      1  0.5482796545225  0.2542456294500  0.5372201578610 1.0
C      1  0.2448644567496  0.4587926193814  0.5385897052627 1.0
C      1  0.6684499928771  0.5906116675094  0.5923360513520 1.0
C      1  0.4139146489765  0.6686247072013  0.5869607643540 1.0
C      1  0.3249294785195  0.4180114676758  0.5929770718590 1.0
C      1  0.5880485280090  0.3302754814891  0.5921421284948 1.0
C      1  0.6661892761929  0.4160929441788  0.5844872587736 1.0
C      1  0.4105275771028  0.3348691164251  0.5924476814040 1.0
C      1  0.3320489129897  0.5898399956384  0.5871497470257 1.0
C      1  0.5856306325960  0.6692352009381  0.5876267236955 1.0
C      1  0.2461601684360  0.6001403566790  0.4475877902007 1.0
C      1  0.4049476142867  0.2549076381985  0.4517693604641 1.0
C      1  0.7533036929007  0.4080241503284  0.4489580866688 1.0
C      1  0.5944287503731  0.7548302106287  0.4473746392045 1.0
C      1  0.2458939798696  0.4102011980801  0.4493078937471 1.0
C      1  0.4044011365057  0.7548096795330  0.4473060369663 1.0
C      1  0.7511940887248  0.5985754990466  0.4486999492874 1.0
C      1  0.5957651227898  0.2546608601674  0.4487325710238 1.0
C      1  0.3790943479172  0.5518245822017  0.6698258101537 1.0
C      1  0.4525922536950  0.3925715246770  0.6711260197004 1.0
C      1  0.6108096550951  0.4563614618782  0.6671540685404 1.0
C      1  0.5469142135949  0.6203036790210  0.6690270177320 1.0
C      1  0.3731948737375  0.4582932453481  0.6750333476460 1.0
C      1  0.4511192287635  0.6195196173977  0.6688259640688 1.0
C      1  0.6193764471884  0.5565804890382  0.6737124743022 1.0
C      1  0.5558331659855  0.3674126800994  0.6883838934979 1.0
C      1  0.5362147870189  0.4051126796263  0.5344336411427 1.0
C      1  0.6113906639845  0.5450190387781  0.5152597752130 1.0
C      1  0.4562794422639  0.6048641252847  0.5158142921653 1.0
C      1  0.3838500179490  0.4528811718817  0.5154994424102 1.0
C      1  0.5466593330148  0.6062673336538  0.5162539935554 1.0
C      1  0.6123238751742  0.4539330863267  0.5064233766250 1.0
C      1  0.4456858034153  0.3887486151936  0.5145021898976 1.0
C      1  0.3917386062137  0.5434902631159  0.5172409923315 1.0
C      1  0.5220650776419  0.4437471001159  0.6252679429200 1.0
END
