TITL C-15509-9577-38 -4.579 3375.00 -784.77890848 0 0 95 (C1) n - 1
REM
REM Run started: at 2021.01.04 16:25:14 in /gpfs/home/chem/mssmkc/CARBON/AIRSS/Generating-Clusters/Str-Search/Higher-Symm/C4-100
REM VASP from code version vasp.5.4.4.18Apr17-6-g9f103f2a35 (build Oct 11 2019 16:45:47) gamma-only
REM
REM
REM
REM
REM ./C.cell (6bd13a13d554368a30d355f37ece5b26)
REM AIRSS Version 0.9.1 bugfix July 2018 build 013d7b7c2542+ Fri, 06 Jul 2018 19:26:36 +0100
REM compiler GCC version 6.3.0
REM options -cpp -iprefix /gpfs/warwick/csc/orac/software/Core/GCCcore/6.3.0/bin/../lib/gcc/x86_64-pc-linux-gnu/6.3.0/ -mtune=generic -march=x86-64 -g -O0
REM seed 1470070541 -322690287 -892554031 -2006516999 -1399886768 -925395255 -15340454 -1439218287 -754418836 -406728140 -352627466 1313196672
REM
REM C.POTCAR (d86ddea03c3ceb6dc662c8ad6801f873)
REM 
CELL 1.54180   15.00000   15.00000   15.00000   90.00000   90.00000   90.00000
LATT -1
SFAC C  
C      1  0.3589704816804  0.5448254034000  0.5051140282441 1.0
C      1  0.4082810924475  0.5924306500162  0.3662331503430 1.0
C      1  0.6112247122359  0.5937926967931  0.3547180559851 1.0
C      1  0.6839873851407  0.5796710786483  0.5827304307181 1.0
C      1  0.4539578543257  0.5737334039394  0.6815870868535 1.0
C      1  0.5031312062442  0.7203583796907  0.6981604643114 1.0
C      1  0.3020876562700  0.7637878106645  0.5560277097426 1.0
C      1  0.3924734057545  0.7484298696878  0.3277737662372 1.0
C      1  0.6421604804179  0.7619391061741  0.3231539835136 1.0
C      1  0.7061962692543  0.7287388804317  0.5564131094487 1.0
C      1  0.7048215642837  0.7569635756491  0.3970279372793 1.0
C      1  0.6574648392017  0.7199650863167  0.6402387043685 1.0
C      1  0.4094077380892  0.7212237647017  0.6682044286959 1.0
C      1  0.2968462250251  0.7685479269321  0.4602063076922 1.0
C      1  0.4787838022386  0.7505440110267  0.2879254954208 1.0
C      1  0.5942624634194  0.8281623685946  0.4943893248857 1.0
C      1  0.5439864705348  0.8224045510545  0.5770084712045 1.0
C      1  0.4498850883214  0.8302599546484  0.5531890558820 1.0
C      1  0.4434375243298  0.8373924144585  0.4571222716908 1.0
C      1  0.5326015656821  0.8343788470260  0.4203051003977 1.0
C      1  0.5865629341951  0.5905744674518  0.5415019784270 1.0
C      1  0.5020230652097  0.5806011049901  0.5851088204974 1.0
C      1  0.4408557088790  0.5799167917162  0.5148249993963 1.0
C      1  0.4794104441492  0.5973724610583  0.4311064005866 1.0
C      1  0.5707919013336  0.6011398361196  0.4436080358936 1.0
C      1  0.6695365939411  0.6677910921496  0.3273691388780 1.0
C      1  0.7366233065325  0.6428778916697  0.5296674891072 1.0
C      1  0.5210007416625  0.6333191757674  0.7253262302060 1.0
C      1  0.2597989261435  0.6772492013220  0.5593587517754 1.0
C      1  0.3529019961573  0.6597659421614  0.3327110869532 1.0
C      1  0.4865325512231  0.1667543589007  0.5792506227035 1.0
C      1  0.4335900702808  0.1547332503129  0.5021622971773 1.0
C      1  0.4905528492696  0.1599802595896  0.4232809226854 1.0
C      1  0.5803343126833  0.1701362291861  0.4517623086492 1.0
C      1  0.5774068621693  0.1776595347771  0.5472633467196 1.0
C      1  0.4425489930947  0.2347609965233  0.7362450669563 1.0
C      1  0.2716660092644  0.2031525410198  0.4970103146270 1.0
C      1  0.4161502626809  0.2355237409699  0.2892702052633 1.0
C      1  0.7014657621685  0.2560955772379  0.3565357861047 1.0
C      1  0.6608392811964  0.2567454524160  0.6710021137781 1.0
C      1  0.4076813859104  0.2304396708904  0.8255515588701 1.0
C      1  0.1807890296734  0.1934968569889  0.4837186871459 1.0
C      1  0.3761102527764  0.2467214168098  0.2073433269233 1.0
C      1  0.7590416926679  0.2958746068720  0.2995456233318 1.0
C      1  0.7007656587936  0.2616331563907  0.7541380686953 1.0
C      1  0.6410406590327  0.4190687359175  0.6767344054467 1.0
C      1  0.4411525171950  0.3941906526166  0.7465397179037 1.0
C      1  0.2321645247010  0.3588490638073  0.5153815443361 1.0
C      1  0.3681003968490  0.3921846720179  0.3070161797796 1.0
C      1  0.7056278281151  0.4386524630740  0.3867914053749 1.0
C      1  0.3705001885596  0.7976637472397  0.4088788974399 1.0
C      1  0.5522509662903  0.7933447944421  0.3361119768835 1.0
C      1  0.6774736256706  0.7842917587930  0.4849782355958 1.0
C      1  0.5728803155714  0.7681437285804  0.6498955569196 1.0
C      1  0.3815267130839  0.7849251325685  0.6025211747090 1.0
C      1  0.6653140438554  0.6276265383679  0.6690949628169 1.0
C      1  0.3704959869338  0.6331905675282  0.6694505125956 1.0
C      1  0.2519339540959  0.6802899437290  0.4565781040748 1.0
C      1  0.5028823974384  0.6795493752165  0.2283249310818 1.0
C      1  0.7514008598467  0.6703090530675  0.3760842357580 1.0
C      1  0.4521377769859  0.2343766601721  0.6437058872291 1.0
C      1  0.3590756099634  0.2177967283478  0.4967675051184 1.0
C      1  0.4627516045111  0.2338248428138  0.3650426220826 1.0
C      1  0.6296643249978  0.2414183398731  0.4055293456509 1.0
C      1  0.6286802305268  0.2509946832407  0.5839915643618 1.0
C      1  0.5824874606560  0.4904808906621  0.7095246035534 1.0
C      1  0.2969395048921  0.5190556618825  0.5721954496249 1.0
C      1  0.3367557214392  0.5363869464766  0.4086167285753 1.0
C      1  0.5608993096307  0.5379475647947  0.2969431797843 1.0
C      1  0.7325024952910  0.5067873535197  0.4541411240538 1.0
C      1  0.2922084641972  0.6093966016151  0.6169645611139 1.0
C      1  0.2800769122222  0.6229506046794  0.3890043855166 1.0
C      1  0.5253594117944  0.5993582952449  0.2346013259575 1.0
C      1  0.7564235571553  0.6039042958142  0.4471750499596 1.0
C      1  0.6018392909846  0.5823060927635  0.7223519019942 1.0
C      1  0.4010780299364  0.3143483993662  0.5014759316906 1.0
C      1  0.4753235921772  0.3218325769365  0.4213995464683 1.0
C      1  0.5832641153908  0.3313720603681  0.4398066453523 1.0
C      1  0.6266102347592  0.3327894164681  0.5348769196138 1.0
C      1  0.4343064864369  0.3192678600126  0.5991981362189 1.0
C      1  0.6576651920636  0.4127895732744  0.5790799731256 1.0
C      1  0.4400425816081  0.3960769645888  0.6550517969617 1.0
C      1  0.3247834540555  0.3827304606118  0.4769685319052 1.0
C      1  0.4501608780795  0.4051510542059  0.3642818839270 1.0
C      1  0.6073999967282  0.4120254564434  0.3861558437838 1.0
C      1  0.3494229375366  0.4358299439803  0.3924861374847 1.0
C      1  0.5374324616841  0.4523752195778  0.3414609550965 1.0
C      1  0.6987771472830  0.4898459449278  0.5410733997193 1.0
C      1  0.4811740518960  0.4760306871499  0.7031105015736 1.0
C      1  0.2725421976855  0.4341410897957  0.5489378843597 1.0
C      1  0.7509781129504  0.3718563268899  0.3465975941352 1.0
C      1  0.6611077999927  0.3411789365875  0.7197113468457 1.0
C      1  0.4356038507037  0.3134328176862  0.7911121386283 1.0
C      1  0.1957481756878  0.2769465222847  0.5157121681789 1.0
C      1  0.3550839339052  0.3188470068327  0.2583738253724 1.0
END
