TITL C-159199-2942-1 -7.604 3375.00 -1270.55077401 0 0 156 (C2) n - 1
REM
REM Run started: at 2020.12.18 01:05:26 in /rds/project/t2_vol4/rds-t2-cs072/BORA/CARBON/AIRSS/Generating-Clusters/Str-Search/Higher-Symm/C100-200
REM VASP from code version vasp.5.4.4.18Apr17-6-g9f103f2a35 (build Oct 11 2019 16:45:47) gamma-only
REM
REM
REM
REM
REM ./C.cell (533062f00bc710175b3da973d35f2034)
REM AIRSS Version 0.9.1 bugfix July 2018 build 013d7b7c2542+ Fri, 06 Jul 2018 19:26:36 +0100
REM compiler GCC version 4.8.5 20150623 (Red Hat 4.8.5-39)
REM options -cpp -mtune=generic -march=x86-64 -g -O0
REM seed -1217597506 -1869553997 -1198413852 -778541306 1418749517 1848040966 -1903766430 -1852588194 -884184277 2112296334 -1694904130 -2078928614
REM
REM C.POTCAR (d86ddea03c3ceb6dc662c8ad6801f873)
REM 
CELL 1.54180   15.00000   15.00000   15.00000   90.00000   90.00000   90.00000
LATT -1
SFAC C  
C      1  0.1413788618838  0.5125359167813  0.4362040634620 1.0
C      1  0.8586213980142  0.4874629453495  0.4362085305571 1.0
C      1  0.6255183705460  0.4518138749540  0.1764433919450 1.0
C      1  0.3744864253560  0.5481918026050  0.1764433961056 1.0
C      1  0.7498494528245  0.3598831543383  0.3638678058371 1.0
C      1  0.2501512361065  0.6401174696281  0.3638673751080 1.0
C      1  0.7408733508952  0.3302205493912  0.2697029074903 1.0
C      1  0.2591276840481  0.6697821089971  0.2697030954592 1.0
C      1  0.6116661956966  0.5479321006714  0.6029550482769 1.0
C      1  0.3883326471199  0.4520681625678  0.6029514635069 1.0
C      1  0.4325669587824  0.6040297973743  0.3185102332591 1.0
C      1  0.5674361107850  0.3959757498671  0.3185092107900 1.0
C      1  0.5879499775547  0.5831157341064  0.3702291167535 1.0
C      1  0.4120506302661  0.4168884596897  0.3702265260883 1.0
C      1  0.7955368443136  0.4176362177015  0.4225212127807 1.0
C      1  0.2044645956648  0.5823630942418  0.4225196096898 1.0
C      1  0.1729164930053  0.4342077113409  0.2973325906678 1.0
C      1  0.8270842217630  0.5657991682396  0.2973379133613 1.0
C      1  0.5841056523248  0.2374542021971  0.7683460351112 1.0
C      1  0.4158925703704  0.7625421915198  0.7683495256393 1.0
C      1  0.6692375908236  0.3772482451418  0.7544786606900 1.0
C      1  0.3307603689265  0.6227470522221  0.7544852921698 1.0
C      1  0.3871540961673  0.8477197513303  0.2801555890658 1.0
C      1  0.6128461509187  0.1522808958243  0.2801510135503 1.0
C      1  0.3722515265080  0.1731959972999  0.4893614722111 1.0
C      1  0.6277490231787  0.8268053569360  0.4893695000392 1.0
C      1  0.8509686082901  0.4963502358500  0.6121106032100 1.0
C      1  0.1490325371227  0.5036458715248  0.6121064592820 1.0
C      1  0.8755776849228  0.5338233506401  0.3588446742629 1.0
C      1  0.1244227746696  0.4661791650653  0.3588360885948 1.0
C      1  0.4744227553079  0.4573543586230  0.6275007253368 1.0
C      1  0.5255722156174  0.5426437517820  0.6275027936086 1.0
C      1  0.8401102381080  0.5320471882066  0.5249316805010 1.0
C      1  0.1598889043666  0.4679511466046  0.5249262860561 1.0
C      1  0.4060057295126  0.1059786821948  0.5462783261682 1.0
C      1  0.5939937857634  0.8940192441305  0.5462824868125 1.0
C      1  0.4332924262668  0.1000208584392  0.6244237932548 1.0
C      1  0.5667041494024  0.8999798861277  0.6244341700440 1.0
C      1  0.3099921235770  0.6018690253184  0.2167101870849 1.0
C      1  0.6900121520629  0.3981371530250  0.2167111603280 1.0
C      1  0.3209003404247  0.6600263866118  0.4370731719505 1.0
C      1  0.6791001764925  0.3399738600866  0.4370728207641 1.0
C      1  0.5889281503906  0.3645246065266  0.4096952235649 1.0
C      1  0.4110730652398  0.6354779659113  0.4096957392964 1.0
C      1  0.5841340093260  0.7512345369344  0.6878456872051 1.0
C      1  0.4158633015083  0.2487626886396  0.6878423407066 1.0
C      1  0.4812829787739  0.3549601721275  0.8740325347067 1.0
C      1  0.5187167840022  0.6450336162143  0.8740328848660 1.0
C      1  0.6563398274566  0.7001630682684  0.1699838101805 1.0
C      1  0.3436645922077  0.2998401320371  0.1699763417017 1.0
C      1  0.6530282310640  0.7547561564328  0.5439289246074 1.0
C      1  0.3469732719096  0.2452451136680  0.5439215360179 1.0
C      1  0.2545867677706  0.7648418262471  0.2828938355442 1.0
C      1  0.7454125277200  0.2351603170029  0.2828914838220 1.0
C      1  0.2575080739725  0.3988669652914  0.3105782890436 1.0
C      1  0.7424944611790  0.6011381217123  0.3105864876136 1.0
C      1  0.5220148765502  0.3450238395146  0.4722704579492 1.0
C      1  0.4779855643885  0.6549782250351  0.4722727381729 1.0
C      1  0.1806755474828  0.6570354296663  0.5596271055073 1.0
C      1  0.8193258914565  0.3429630674262  0.5596276100358 1.0
C      1  0.4138652440449  0.6769048531119  0.6326400059765 1.0
C      1  0.5861297046786  0.3230909018707  0.6326363181045 1.0
C      1  0.3131802413112  0.8292293252243  0.2456658855614 1.0
C      1  0.6868205326345  0.1707723985827  0.2456623779375 1.0
C      1  0.4992425486196  0.5768349732152  0.9375802001124 1.0
C      1  0.5007572868192  0.4231595307818  0.9375792386467 1.0
C      1  0.4675171137333  0.1639682774023  0.6860179024775 1.0
C      1  0.5324817756268  0.8360287761876  0.6860215514557 1.0
C      1  0.1439503312581  0.5994348403103  0.6273346901334 1.0
C      1  0.8560514678260  0.4005605204407  0.6273375964519 1.0
C      1  0.6763529680239  0.5872490030842  0.5572910701167 1.0
C      1  0.3236434929292  0.4127506427009  0.5572838019995 1.0
C      1  0.2339763415322  0.4092610005628  0.5141047085143 1.0
C      1  0.7660221246311  0.5907362750126  0.5141135955009 1.0
C      1  0.6797997244947  0.7569462290533  0.3364969509110 1.0
C      1  0.3202013109337  0.2430567582644  0.3364864339343 1.0
C      1  0.4100400670787  0.4851418598422  0.8158178151334 1.0
C      1  0.5899584212971  0.5148544763680  0.8158161733420 1.0
C      1  0.4659324165537  0.1943368577027  0.3455832741627 1.0
C      1  0.5340682613149  0.8056669619641  0.3455913619510 1.0
C      1  0.4305559875718  0.3589247267484  0.4446499866280 1.0
C      1  0.5694443266227  0.6410786236321  0.4446541526018 1.0
C      1  0.7863307050873  0.6292465408035  0.6951781099488 1.0
C      1  0.2136566904184  0.3707509995907  0.6951726978599 1.0
C      1  0.4571831384611  0.2580804848513  0.2723447869960 1.0
C      1  0.5428201540471  0.7419235581679  0.2723511919428 1.0
C      1  0.5429224043541  0.6735624148954  0.7382144628584 1.0
C      1  0.4570743909735  0.3264342769212  0.7382130092911 1.0
C      1  0.2639061821345  0.3074328258117  0.6751902779718 1.0
C      1  0.7360987027076  0.6925575162030  0.6751993657657 1.0
C      1  0.4018598269754  0.5635272479886  0.7536411183399 1.0
C      1  0.5981383374683  0.4364690762354  0.7536376340612 1.0
C      1  0.4830297000874  0.7080234215981  0.8148140430994 1.0
C      1  0.5169684027731  0.2919733229652  0.8148120657188 1.0
C      1  0.5755251483197  0.2978469841960  0.5458765081147 1.0
C      1  0.4244723337721  0.7021518767912  0.5458805506728 1.0
C      1  0.4454450539843  0.5021550740926  0.9091677014971 1.0
C      1  0.5545544538131  0.4978395945218  0.9091670881438 1.0
C      1  0.5065844321866  0.5441153683060  0.3390403745843 1.0
C      1  0.4934171703657  0.4558889621111  0.3390394565110 1.0
C      1  0.6163660930164  0.8082891769709  0.3930379089890 1.0
C      1  0.3836333534033  0.1917143666686  0.3930306038612 1.0
C      1  0.6415919587904  0.2920096302157  0.7102412144461 1.0
C      1  0.3584058643675  0.7079860181308  0.7102471435197 1.0
C      1  0.3610712740371  0.5409564433350  0.2764983815515 1.0
C      1  0.6389319725474  0.4590489621078  0.2764995620757 1.0
C      1  0.7732667151870  0.2113472340543  0.3795523216456 1.0
C      1  0.2267323593869  0.7886521049763  0.3795552475541 1.0
C      1  0.7592465060920  0.3999384239581  0.7696353216406 1.0
C      1  0.2407525149894  0.6000535105639  0.7696375768124 1.0
C      1  0.6623884542462  0.5473208157958  0.3209163052852 1.0
C      1  0.3376135455904  0.4526851063425  0.3209114265196 1.0
C      1  0.4719070925841  0.5386870470385  0.1472569074564 1.0
C      1  0.5280984848143  0.4613197192005  0.1472568441226 1.0
C      1  0.5436215416825  0.1622179675169  0.7369047651645 1.0
C      1  0.4563750612957  0.8377795295754  0.7369076298618 1.0
C      1  0.5974397594653  0.6505099359806  0.1355921693157 1.0
C      1  0.4025688821009  0.3494993003099  0.1355850617332 1.0
C      1  0.2641220263755  0.3127978358232  0.3620388514565 1.0
C      1  0.7358794879778  0.6872061247906  0.3620486741018 1.0
C      1  0.1773733995127  0.4555689561352  0.6939141639348 1.0
C      1  0.8226265100229  0.5444229204206  0.6939194529182 1.0
C      1  0.5539321630456  0.1569934935299  0.3530873954649 1.0
C      1  0.4460670097786  0.8430088320476  0.3530930758645 1.0
C      1  0.4853602090169  0.6712459510033  0.2447516610731 1.0
C      1  0.5146436868320  0.3287607865714  0.2447488083061 1.0
C      1  0.6674836351212  0.7457135191762  0.6428669897159 1.0
C      1  0.3325163135030  0.2542845676453  0.6428609366805 1.0
C      1  0.1836008103021  0.5252428899545  0.7599070971295 1.0
C      1  0.8163992541938  0.4747486194498  0.7599113178957 1.0
C      1  0.5148393228035  0.6230428553025  0.1658376002808 1.0
C      1  0.4851649088662  0.3769626238107  0.1658349254935 1.0
C      1  0.8424652683943  0.2352656407332  0.4372361055099 1.0
C      1  0.1575321438105  0.7647333939275  0.4372382907656 1.0
C      1  0.3573001859625  0.7524340891393  0.4831969741530 1.0
C      1  0.6426960546119  0.2475656349019  0.4831929207987 1.0
C      1  0.2494873598704  0.6189453422267  0.4984271491708 1.0
C      1  0.7505126217912  0.3810540950573  0.4984285068989 1.0
C      1  0.8495602018189  0.2653214217325  0.5169315664149 1.0
C      1  0.1504377587588  0.7346768860079  0.5169322460278 1.0
C      1  0.7003535134991  0.1787977711723  0.4389476708630 1.0
C      1  0.2996444701317  0.8212010038037  0.4389516794843 1.0
C      1  0.3890072195596  0.8298087705162  0.4259406290116 1.0
C      1  0.6109908034410  0.1701927698995  0.4259337036803 1.0
C      1  0.6474236736548  0.6660983470673  0.4989482883395 1.0
C      1  0.3525760426509  0.3339051134017  0.4989387061129 1.0
C      1  0.2641565652445  0.3442415731387  0.4522535374054 1.0
C      1  0.7358453382507  0.6557604066521  0.4522628262185 1.0
C      1  0.4753001065395  0.6102448861746  0.6836762011088 1.0
C      1  0.5246957347069  0.3897524847339  0.6836737477614 1.0
C      1  0.8389482248726  0.3903407348777  0.7203280949705 1.0
C      1  0.1610538332442  0.6096533070277  0.7203266539750 1.0
C      1  0.4205926140550  0.3928300595552  0.8065532885030 1.0
C      1  0.5794055078728  0.6071660877428  0.8065519480493 1.0
C      1  0.3635170255443  0.2584653905691  0.2500244759110 1.0
C      1  0.6364856851510  0.7415384402225  0.2500338745477 1.0
END
