TITL C-1503-5108-30 -6.41 3375.00 -1098.61933419 0 0 136 (C1) n - 1
REM
REM Run started: at 2020.12.22 21:59:38 in /gpfs/home/chem/mssmkc/CARBON/AIRSS/Generating-Clusters/Str-Search/Higher-Symm/C100-200
REM VASP from code version vasp.5.4.4.18Apr17-6-g9f103f2a35 (build Oct 11 2019 16:45:47) gamma-only
REM
REM
REM
REM
REM ./C.cell (533062f00bc710175b3da973d35f2034)
REM AIRSS Version 0.9.1 bugfix July 2018 build 013d7b7c2542+ Fri, 06 Jul 2018 19:26:36 +0100
REM compiler GCC version 6.3.0
REM options -cpp -iprefix /gpfs/warwick/csc/orac/software/Core/GCCcore/6.3.0/bin/../lib/gcc/x86_64-pc-linux-gnu/6.3.0/ -mtune=generic -march=x86-64 -g -O0
REM seed 1319970505 -955618649 183851146 122182690 1178478003 1598256810 291071284 1546527195 -1879293334 942745841 -482926143 2023922853
REM
REM C.POTCAR (d86ddea03c3ceb6dc662c8ad6801f873)
REM 
CELL 1.54180   15.00000   15.00000   15.00000   90.00000   90.00000   90.00000
LATT -1
SFAC C  
C      1  0.6538884391412  0.8643680235456  0.4199611866306 1.0
C      1  0.6437279019032  0.3942271067201  0.8350017347164 1.0
C      1  0.6003288459048  0.3136399341904  0.2557073586124 1.0
C      1  0.4100854225349  0.2055584187859  0.6420771026439 1.0
C      1  0.4301325618328  0.5276493421544  0.1971903050135 1.0
C      1  0.4107520448564  0.7680618575427  0.6737088392431 1.0
C      1  0.2636298671316  0.6862732209830  0.7625300146126 1.0
C      1  0.2573128412690  0.1769152847756  0.5134696878393 1.0
C      1  0.2690437641316  0.6607021142186  0.2397134074446 1.0
C      1  0.4364236620335  0.6729193203925  0.5555141777364 1.0
C      1  0.4363987924220  0.3495042929144  0.6079043430253 1.0
C      1  0.5079352390360  0.4470703681554  0.3257853359792 1.0
C      1  0.6845623305084  0.2755837900694  0.6115620333556 1.0
C      1  0.7411916930979  0.5220659632537  0.2197379423798 1.0
C      1  0.6860200984659  0.7150563960453  0.6195577166984 1.0
C      1  0.8592785587329  0.3501850671280  0.5912954866829 1.0
C      1  0.8416171390444  0.4863196321142  0.3486827593344 1.0
C      1  0.8734651283353  0.6869869998922  0.6037991735502 1.0
C      1  0.5014467665191  0.5026211747191  0.1474333247912 1.0
C      1  0.5046322930424  0.7860024765791  0.6733432670432 1.0
C      1  0.5074079826771  0.2070624593501  0.6585059260659 1.0
C      1  0.6533651726220  0.1941126193640  0.3748056936390 1.0
C      1  0.6834194534542  0.7633480392817  0.2836556042943 1.0
C      1  0.6649304412358  0.5607552740345  0.8292132605244 1.0
C      1  0.3606063247282  0.5570221788528  0.7665471421996 1.0
C      1  0.3474401792622  0.2290367711708  0.4034718727386 1.0
C      1  0.3974437181862  0.6783941930807  0.3455829434075 1.0
C      1  0.7065233266240  0.8133160579095  0.3598862705597 1.0
C      1  0.6987763313874  0.4718083212920  0.8342264779929 1.0
C      1  0.6568665200616  0.2468786609379  0.2958768625318 1.0
C      1  0.5597652682307  0.6770041121396  0.2135247564226 1.0
C      1  0.5177495268135  0.6268190275805  0.7833044303516 1.0
C      1  0.5230803650727  0.1480826471254  0.4714893065804 1.0
C      1  0.3287455909267  0.5119702800706  0.1973902420348 1.0
C      1  0.3168288536780  0.7930687220730  0.6460127140648 1.0
C      1  0.3179393159042  0.2294229944831  0.6652909787128 1.0
C      1  0.5229303366708  0.4641452808262  0.6671458186556 1.0
C      1  0.5020243875264  0.2961976649029  0.3834960820140 1.0
C      1  0.5569338595642  0.7017022872282  0.4562799765450 1.0
C      1  0.2643967899737  0.7542781578667  0.7099879259869 1.0
C      1  0.2734138669180  0.2361724654275  0.5783503126976 1.0
C      1  0.2611311287133  0.5655962246461  0.2414691177037 1.0
C      1  0.7252620325873  0.5214950977571  0.6890875642130 1.0
C      1  0.7186306723907  0.3329061620513  0.4063274814184 1.0
C      1  0.7433890108839  0.6631533084968  0.3885755867958 1.0
C      1  0.5464564783390  0.2838512860576  0.7019511612763 1.0
C      1  0.5906606399282  0.5161019728745  0.1631548515906 1.0
C      1  0.5465972603166  0.8003332196916  0.5882426277004 1.0
C      1  0.3124621034648  0.4233335256176  0.2155219374188 1.0
C      1  0.2952237956434  0.7972346199030  0.5463677120931 1.0
C      1  0.2985335710852  0.3075608394356  0.7186403519397 1.0
C      1  0.2694158352580  0.7029808375571  0.5099889186322 1.0
C      1  0.2671488330165  0.3866039448697  0.6577061319977 1.0
C      1  0.2596819074353  0.3824859810711  0.2813124925648 1.0
C      1  0.4508440285234  0.7510965708211  0.3712181000904 1.0
C      1  0.4255138568367  0.4877643956192  0.7936331140732 1.0
C      1  0.4180609030354  0.2261671200274  0.3378539716512 1.0
C      1  0.3437713585202  0.3436394878994  0.7864254258657 1.0
C      1  0.3440985968873  0.3427236857544  0.2504624610645 1.0
C      1  0.3518397501947  0.8300767433790  0.4853715634669 1.0
C      1  0.2803159625700  0.1746754922483  0.4307944222745 1.0
C      1  0.3183746424108  0.6915172322920  0.2990894936510 1.0
C      1  0.2943218590999  0.6113947394729  0.7940478001585 1.0
C      1  0.5748084606739  0.4254018635516  0.5675253154268 1.0
C      1  0.5747298969573  0.4694828915466  0.4064327654069 1.0
C      1  0.5825582283565  0.6143133816640  0.5072239833039 1.0
C      1  0.4270809925159  0.8050922567145  0.4473208214311 1.0
C      1  0.4162952068824  0.3963313893643  0.7767317062954 1.0
C      1  0.4214715239962  0.2979429239646  0.2714700544869 1.0
C      1  0.7831423419873  0.7034164274765  0.6203506835385 1.0
C      1  0.7698488542015  0.3162231332512  0.5954753556346 1.0
C      1  0.8149491852007  0.4982437598239  0.2705681647771 1.0
C      1  0.2105761685680  0.5316989042610  0.3171154166453 1.0
C      1  0.3186197444835  0.5694669950486  0.5949263517237 1.0
C      1  0.2989329419179  0.3269015429972  0.5259163769570 1.0
C      1  0.3461463881459  0.3934392625815  0.5887647989296 1.0
C      1  0.2123246297539  0.4358357936900  0.3418310829928 1.0
C      1  0.3377153746868  0.6512403722174  0.5407152199693 1.0
C      1  0.5398783847134  0.2043815006507  0.5549404426250 1.0
C      1  0.6144597402910  0.6079499666392  0.1901032278442 1.0
C      1  0.5316738707817  0.6864984693874  0.7051321906018 1.0
C      1  0.4355763199156  0.2538065841562  0.5604259100183 1.0
C      1  0.4549587560795  0.5263948296979  0.2939397645279 1.0
C      1  0.4366075507667  0.6727523509644  0.6584518477281 1.0
C      1  0.4630911011659  0.3556755917392  0.4529223437669 1.0
C      1  0.4325154932416  0.5314868461732  0.4570549721999 1.0
C      1  0.4535342587836  0.5221532650461  0.6149663753526 1.0
C      1  0.7034727273416  0.6064115286752  0.2315931989293 1.0
C      1  0.6291027150658  0.6531213155394  0.6791421148428 1.0
C      1  0.6383335296611  0.2429893440791  0.5377900340961 1.0
C      1  0.5464246967709  0.7300496713548  0.3678580778598 1.0
C      1  0.5114665982645  0.5251077097027  0.7667246291480 1.0
C      1  0.4974604483715  0.1974205358438  0.3860212086663 1.0
C      1  0.7397263621241  0.7496896126147  0.4285987328349 1.0
C      1  0.7345912040803  0.4451143713380  0.7449661957543 1.0
C      1  0.7104671332803  0.3286946881111  0.3116976604515 1.0
C      1  0.1509591149864  0.5131292899650  0.4586755177063 1.0
C      1  0.1718868323258  0.5727954242931  0.5329935997206 1.0
C      1  0.1859118849950  0.3874772834664  0.5962004551978 1.0
C      1  0.7260376482051  0.6766987111652  0.2926713151113 1.0
C      1  0.6821854344790  0.5904284784257  0.7399739553066 1.0
C      1  0.6799965901687  0.2524355757363  0.4465120266467 1.0
C      1  0.7209993788953  0.5712860653327  0.4203300556332 1.0
C      1  0.7340599458704  0.5607560420437  0.5991959051708 1.0
C      1  0.7315444397281  0.4161467493954  0.4622415205708 1.0
C      1  0.6417275470876  0.7888368376894  0.5728343800371 1.0
C      1  0.6420026133080  0.2991899089455  0.6950001362928 1.0
C      1  0.6692546724688  0.4603634441977  0.1933932980264 1.0
C      1  0.6273832187552  0.5451552258088  0.4498928509450 1.0
C      1  0.6506809051453  0.6233203078274  0.5850461984693 1.0
C      1  0.6351101770420  0.4506510410085  0.4884238775987 1.0
C      1  0.7879144291845  0.3814771831051  0.5355110456939 1.0
C      1  0.7726040891491  0.4955630082401  0.4147128931110 1.0
C      1  0.8113807036771  0.6144283632849  0.6022621023682 1.0
C      1  0.3900309739274  0.5827566307122  0.6709930325102 1.0
C      1  0.3768600074633  0.2961834403942  0.4726944434287 1.0
C      1  0.4218074021481  0.5805996935548  0.3630149972307 1.0
C      1  0.5040297923949  0.3756909737932  0.5425725243714 1.0
C      1  0.4785932514814  0.4504758134471  0.4216457232162 1.0
C      1  0.4854114882108  0.5837158681735  0.5328121103714 1.0
C      1  0.2048936937441  0.4630910760258  0.6473270473984 1.0
C      1  0.1816832669591  0.4272293642757  0.4347733550009 1.0
C      1  0.1962599430118  0.6444372872204  0.4740588528480 1.0
C      1  0.5904704609333  0.7318687204176  0.2804670690928 1.0
C      1  0.5706740466621  0.5739513489984  0.8313738812300 1.0
C      1  0.5772151157889  0.1436087772481  0.3985060286512 1.0
C      1  0.6837209896433  0.3591944697829  0.7537260597091 1.0
C      1  0.6688530501593  0.3790649359003  0.2355722054609 1.0
C      1  0.6851374145132  0.8077257287857  0.4925899979773 1.0
C      1  0.1777261936040  0.5808164789700  0.3943369780529 1.0
C      1  0.2217869991115  0.5470394983651  0.6090005391723 1.0
C      1  0.2096392869583  0.3716503228542  0.5063122208500 1.0
C      1  0.5117477201348  0.3448430887096  0.2939122921761 1.0
C      1  0.4902501832674  0.7525114599206  0.5148355561663 1.0
C      1  0.4830722787296  0.3683514820754  0.6980914991492 1.0
C      1  0.3730930580532  0.4895811338584  0.5566506445699 1.0
END
