TITL C-151763-8073-15 -4.547 3375.00 -744.38717137 0 0 92 (C1) n - 1
REM
REM Run started: at 2020.12.01 02:52:57 in /rds/project/t2_vol4/rds-t2-cs072/BORA/CARBON/AIRSS/Generating-Clusters/Str-Search/Higher-Symm/C10-100
REM VASP from code version vasp.5.4.4.18Apr17-6-g9f103f2a35 (build Oct 11 2019 16:45:47) gamma-only
REM
REM
REM
REM
REM ./C.cell (f39ce9773e2efe3fa5bbdf770a4156b8)
REM AIRSS Version 0.9.1 bugfix July 2018 build 013d7b7c2542+ Fri, 06 Jul 2018 19:26:36 +0100
REM compiler GCC version 4.8.5 20150623 (Red Hat 4.8.5-39)
REM options -cpp -mtune=generic -march=x86-64 -g -O0
REM seed -267621007 -1494171336 1749433387 -1561136031 706080027 411794675 988110708 -1327308512 292024384 1562069281 -1261358540 686740484
REM
REM C.POTCAR (d86ddea03c3ceb6dc662c8ad6801f873)
REM 
CELL 1.54180   15.00000   15.00000   15.00000   90.00000   90.00000   90.00000
LATT -1
SFAC C  
C      1  0.5317279427282  0.4839859142101  0.0837351692055 1.0
C      1  0.4627073246890  0.4540340769806  0.1243484433752 1.0
C      1  0.4401072124693  0.3948588014897  0.1905171990845 1.0
C      1  0.5179123293557  0.3435365017916  0.2250865708966 1.0
C      1  0.6109770736633  0.3686701259141  0.2395758960954 1.0
C      1  0.6548093770259  0.4241307619244  0.1787192880271 1.0
C      1  0.6108556346249  0.4676253235485  0.1203029364734 1.0
C      1  0.4263670795022  0.4196044400349  0.7895417897957 1.0
C      1  0.5181707075155  0.3849992517722  0.7753636469524 1.0
C      1  0.6019164394291  0.4310177248899  0.7681733703188 1.0
C      1  0.6136669201115  0.5264524441027  0.7845189568964 1.0
C      1  0.5445232822706  0.5961291266655  0.7750740571312 1.0
C      1  0.4482129689688  0.5875050688625  0.7610409693183 1.0
C      1  0.3944180351432  0.5085170204614  0.7696874873323 1.0
C      1  0.2974035067572  0.3788606612733  0.4196656215250 1.0
C      1  0.3534327988201  0.3051288273248  0.4026173252432 1.0
C      1  0.5956377453912  0.4460853927365  0.3756993106421 1.0
C      1  0.6555875556114  0.5163185726369  0.3784103120574 1.0
C      1  0.6558432588237  0.6179081617865  0.4039301320338 1.0
C      1  0.4238122983601  0.6597171218551  0.3707757835016 1.0
C      1  0.3412141744358  0.6228922947124  0.3941211416746 1.0
C      1  0.5936256275660  0.7389277291347  0.5205279912794 1.0
C      1  0.4286065296356  0.7720460570704  0.5049214464041 1.0
C      1  0.2537404710619  0.5857112770748  0.5321691087863 1.0
C      1  0.2759518886710  0.3427590970796  0.5706366293414 1.0
C      1  0.4701344839799  0.2296024237317  0.5011516734674 1.0
C      1  0.6901285785062  0.2961557841723  0.4976366575313 1.0
C      1  0.7692708855832  0.5677307996412  0.5623092224670 1.0
C      1  0.5178286720099  0.7524776105042  0.4578850850640 1.0
C      1  0.3390827817570  0.7267889570798  0.4987315897103 1.0
C      1  0.2233939657336  0.4938046535903  0.5038804568215 1.0
C      1  0.3215839137030  0.2637013501970  0.5558587042685 1.0
C      1  0.5411188316189  0.2594549446625  0.4451063031930 1.0
C      1  0.7764930208962  0.4097039530643  0.5199377048059 1.0
C      1  0.7283709052733  0.6478959608843  0.5528732390445 1.0
C      1  0.2433580869655  0.5234279626527  0.6810723633622 1.0
C      1  0.3130973475400  0.3000533239910  0.7348799545214 1.0
C      1  0.5158763946274  0.2522673300326  0.6683278482697 1.0
C      1  0.7106002275105  0.3485933344230  0.6557816660009 1.0
C      1  0.7534813284650  0.6088754794382  0.7259559792485 1.0
C      1  0.5959531207350  0.7339053881230  0.6868885072585 1.0
C      1  0.3882217137953  0.7231249642424  0.6665660480316 1.0
C      1  0.7519131490923  0.4939193616493  0.3725518323459 1.0
C      1  0.6673875868664  0.6967669507785  0.3337136780583 1.0
C      1  0.4284437273545  0.7535654388212  0.3325660139821 1.0
C      1  0.2513551644417  0.6615287285594  0.3734925441959 1.0
C      1  0.2571154050903  0.4369413081626  0.3547405666996 1.0
C      1  0.3939571559248  0.3106483689051  0.3157758348080 1.0
C      1  0.6295105412858  0.3500620672509  0.3411743064980 1.0
C      1  0.5536524541709  0.2856792295378  0.3607847795855 1.0
C      1  0.7686353791333  0.4078708831339  0.4205693085271 1.0
C      1  0.7412668782327  0.6454360277958  0.3547244617692 1.0
C      1  0.5240822659109  0.7780541960406  0.3567745694284 1.0
C      1  0.2855763462090  0.7497105908807  0.4059069102626 1.0
C      1  0.2054358613115  0.5065734864729  0.4037122845869 1.0
C      1  0.3657880865906  0.3799315494985  0.2518879077989 1.0
C      1  0.1919066721267  0.5942922983314  0.3781653275137 1.0
C      1  0.2923986889181  0.4356764685552  0.2685661901729 1.0
C      1  0.4854809204111  0.2902725372325  0.2953234034427 1.0
C      1  0.7083331834817  0.3367060003175  0.4071456441903 1.0
C      1  0.7961513943000  0.5726249396683  0.3507403445474 1.0
C      1  0.6026757031153  0.7558382750746  0.3207495974696 1.0
C      1  0.3508003651353  0.7933310824808  0.3568133785302 1.0
C      1  0.5832943644325  0.5699314935740  0.5381198700982 1.0
C      1  0.4951252778947  0.5888885280126  0.5074434382953 1.0
C      1  0.4059818676734  0.5534599746504  0.5233250849042 1.0
C      1  0.3875125502771  0.4637877331097  0.5276839876723 1.0
C      1  0.4720563981751  0.4192852804078  0.5057857492658 1.0
C      1  0.5679438804854  0.4017385309819  0.5312787386435 1.0
C      1  0.6267404804289  0.4845481935922  0.5541881636017 1.0
C      1  0.3789095579808  0.2482653268824  0.4825141005619 1.0
C      1  0.5944695545174  0.2936522490072  0.5209287389790 1.0
C      1  0.7238874915102  0.4852785034763  0.5492635666633 1.0
C      1  0.6416586543743  0.6493545659614  0.5035408783803 1.0
C      1  0.4886612669710  0.6563536944638  0.4392411580064 1.0
C      1  0.3350348131995  0.6205476969756  0.4966955903587 1.0
C      1  0.2934882314301  0.4203207258448  0.5114689217333 1.0
C      1  0.6703843795168  0.3841048897890  0.7190815910834 1.0
C      1  0.6972672939790  0.5626985350368  0.7677298865743 1.0
C      1  0.5756090403200  0.6798223008979  0.7488473656845 1.0
C      1  0.4091347849292  0.6622630168845  0.7186928469123 1.0
C      1  0.3061103840425  0.5153672878630  0.7343757787091 1.0
C      1  0.3618288022825  0.3548108907849  0.7748073176987 1.0
C      1  0.5193532322663  0.3006211369984  0.7355094360156 1.0
C      1  0.7432631760947  0.3329403616050  0.5668659999639 1.0
C      1  0.7679357512926  0.6245937614357  0.6379364238256 1.0
C      1  0.5937508616674  0.7661516556229  0.6059600721014 1.0
C      1  0.3815925122998  0.7605798706454  0.5822989233211 1.0
C      1  0.2104370344205  0.5412970100317  0.5948633138286 1.0
C      1  0.2980264827780  0.2921336791299  0.6448311202113 1.0
C      1  0.5273364144313  0.2395348384093  0.5790974813415 1.0
C      1  0.5279286898948  0.4305290830141  0.4391806846937 1.0
END
