TITL C-1503-5108-23 -7.905 3375.00 -1385.42605189 0 0 168 (C1) n - 1
REM
REM Run started: at 2020.12.22 17:54:38 in /gpfs/home/chem/mssmkc/CARBON/AIRSS/Generating-Clusters/Str-Search/Higher-Symm/C100-200
REM VASP from code version vasp.5.4.4.18Apr17-6-g9f103f2a35 (build Oct 11 2019 16:45:47) gamma-only
REM
REM
REM
REM
REM ./C.cell (533062f00bc710175b3da973d35f2034)
REM AIRSS Version 0.9.1 bugfix July 2018 build 013d7b7c2542+ Fri, 06 Jul 2018 19:26:36 +0100
REM compiler GCC version 6.3.0
REM options -cpp -iprefix /gpfs/warwick/csc/orac/software/Core/GCCcore/6.3.0/bin/../lib/gcc/x86_64-pc-linux-gnu/6.3.0/ -mtune=generic -march=x86-64 -g -O0
REM seed 690158589 1380976573 1368330067 833632763 -1875128651 -850763936 2008258584 -1978674601 887953011 1941499892 -453068415 -642245344
REM
REM C.POTCAR (d86ddea03c3ceb6dc662c8ad6801f873)
REM 
CELL 1.54180   15.00000   15.00000   15.00000   90.00000   90.00000   90.00000
LATT -1
SFAC C  
C      1  0.5203936936232  0.4157842995335  0.1991333074999 1.0
C      1  0.5211167282538  0.7392957527136  0.3123871169055 1.0
C      1  0.4524408460675  0.7811884578034  0.6766551303880 1.0
C      1  0.5409391692650  0.3873789215399  0.7700001666056 1.0
C      1  0.5225799127124  0.2001787269503  0.4831526653410 1.0
C      1  0.7369213074293  0.7847066637093  0.5218281406626 1.0
C      1  0.7793455370055  0.5739909055268  0.7612020068191 1.0
C      1  0.7728044257919  0.2498963016390  0.6690570788324 1.0
C      1  0.8170417088277  0.2631849181409  0.3386923167044 1.0
C      1  0.8075229941816  0.5804374002162  0.2485336983348 1.0
C      1  0.7199514662028  0.2747681766950  0.8219405995739 1.0
C      1  0.6728593677294  0.1976454363221  0.3496310170801 1.0
C      1  0.7344448267026  0.5039029769811  0.1255586548076 1.0
C      1  0.7098297224771  0.8455468656892  0.3704185649044 1.0
C      1  0.6671656583419  0.6825729154335  0.8101500619187 1.0
C      1  0.4992187002971  0.5003944639553  0.1573205495960 1.0
C      1  0.4906841608777  0.7991869669414  0.3841817255075 1.0
C      1  0.4483202201147  0.6989345752218  0.7290007157269 1.0
C      1  0.4971530698333  0.2995291769636  0.7624696340265 1.0
C      1  0.5042915194929  0.2070826523244  0.3889430631135 1.0
C      1  0.3588938404900  0.8058435730717  0.6510159275995 1.0
C      1  0.4911802027659  0.4532561655601  0.7280481309590 1.0
C      1  0.4313783258989  0.2300288283688  0.5115879209455 1.0
C      1  0.4252542703677  0.4039577689752  0.2329900791707 1.0
C      1  0.4253436958787  0.7030436134377  0.3066563296281 1.0
C      1  0.1177713886461  0.3597488921952  0.5810902209114 1.0
C      1  0.1223205366803  0.4233852218278  0.3930318993381 1.0
C      1  0.1180458240310  0.6091438124852  0.3880274028236 1.0
C      1  0.1620935168971  0.6558827602926  0.5747060334236 1.0
C      1  0.1445525966258  0.5168339424912  0.6881317556792 1.0
C      1  0.3326744972222  0.2736607848831  0.3609340659100 1.0
C      1  0.2980761808116  0.6127789587914  0.2144246950492 1.0
C      1  0.3461669326205  0.7860371043717  0.4504436026860 1.0
C      1  0.4982736919322  0.6181540973468  0.7013679909958 1.0
C      1  0.3157763003655  0.2334443443125  0.6651175784982 1.0
C      1  0.1814790383269  0.3560506476849  0.4239547118800 1.0
C      1  0.1479570731382  0.5610731757364  0.3064248112303 1.0
C      1  0.2099564262323  0.7023482896594  0.5016025036694 1.0
C      1  0.2002602529167  0.5942838758744  0.7162222148937 1.0
C      1  0.1734577910534  0.3517839881270  0.6623502764555 1.0
C      1  0.7182940636262  0.1843101772234  0.4317297458825 1.0
C      1  0.7164988532949  0.4232233819344  0.1303245521473 1.0
C      1  0.7165578090387  0.7976712003409  0.3030957346730 1.0
C      1  0.6398103442649  0.7367165529636  0.7540996415289 1.0
C      1  0.7358319932966  0.3484754610690  0.8573269872515 1.0
C      1  0.3999641136343  0.7815062562458  0.3662880381130 1.0
C      1  0.3724811928305  0.6844713575904  0.7799338273233 1.0
C      1  0.4076383107259  0.2921066688050  0.7899454610386 1.0
C      1  0.4072086104233  0.2258801007239  0.4020528021972 1.0
C      1  0.4042706052778  0.4816705519366  0.1675689588407 1.0
C      1  0.5448969826985  0.4517831922847  0.5325781158093 1.0
C      1  0.5433726741003  0.4314122495474  0.4377519581497 1.0
C      1  0.5458513568204  0.5169824665599  0.3896563905537 1.0
C      1  0.5654499388148  0.5852130564055  0.4571448933177 1.0
C      1  0.5852274278830  0.5455979844752  0.5544913946484 1.0
C      1  0.4929970210053  0.5444717410684  0.7614174032473 1.0
C      1  0.3920833490870  0.1988443190165  0.6058162667151 1.0
C      1  0.3927954471208  0.3144417187910  0.2137854931692 1.0
C      1  0.3793561797926  0.6718806312837  0.2236736973472 1.0
C      1  0.4147042631545  0.8289369537989  0.5070351741039 1.0
C      1  0.2308120511305  0.7849020940174  0.5563495586319 1.0
C      1  0.2734498771288  0.5562400653081  0.7684114926202 1.0
C      1  0.2436750042493  0.2838879941049  0.6401463685852 1.0
C      1  0.2351031640307  0.3358623639018  0.2493328906607 1.0
C      1  0.2247715494994  0.6121268560969  0.2708974386819 1.0
C      1  0.9049458744966  0.4607470875805  0.4522783751458 1.0
C      1  0.8601779097794  0.5408917501114  0.4422071337868 1.0
C      1  0.8298261304874  0.5577761907858  0.5323528519002 1.0
C      1  0.8309077858525  0.4842597608717  0.5922135954728 1.0
C      1  0.8839182514396  0.4237957395445  0.5449061971444 1.0
C      1  0.8057771245176  0.2233000527826  0.4250391053498 1.0
C      1  0.8506402043744  0.4995090721782  0.2657737955675 1.0
C      1  0.7939724438391  0.7349947488502  0.4693601257648 1.0
C      1  0.8021747651316  0.6420771148220  0.7026078773605 1.0
C      1  0.8276261706666  0.3227777171650  0.6946414321547 1.0
C      1  0.3207715813894  0.3477774394223  0.5068556006997 1.0
C      1  0.3202010312850  0.4472972145148  0.3750098269029 1.0
C      1  0.3252882872148  0.6210761989221  0.4037112166593 1.0
C      1  0.3644419205280  0.6415502614851  0.5598257980668 1.0
C      1  0.3411908761501  0.4660678493941  0.6462823963183 1.0
C      1  0.1912101499757  0.4334398004020  0.7068761030177 1.0
C      1  0.1667396030994  0.3188706795002  0.5083472673838 1.0
C      1  0.1425856339260  0.4666355883847  0.3072052206639 1.0
C      1  0.1790611459288  0.6812535773900  0.4084588090885 1.0
C      1  0.2063576928376  0.6720783012313  0.6603936426058 1.0
C      1  0.7781773444802  0.5923904612262  0.4125336729038 1.0
C      1  0.7420012593778  0.5792047067389  0.5097603298318 1.0
C      1  0.7411781977931  0.4868290746720  0.6356250778510 1.0
C      1  0.8838297829637  0.3338583243830  0.5066534514026 1.0
C      1  0.9027340179878  0.3711118941529  0.4187183962839 1.0
C      1  0.7704892537683  0.6409075614762  0.3225567256821 1.0
C      1  0.7155099126191  0.7680696972219  0.6165215823578 1.0
C      1  0.7642769264492  0.4726882199396  0.7395334453443 1.0
C      1  0.7645183907943  0.2267279364166  0.5764222273676 1.0
C      1  0.8693682968770  0.3431454334449  0.3346762105001 1.0
C      1  0.4999662493163  0.8279594031242  0.4781029299210 1.0
C      1  0.5084003452605  0.5499626079625  0.8654375651658 1.0
C      1  0.5277518210901  0.2178997256256  0.7094602471905 1.0
C      1  0.5790449674225  0.2183233870102  0.3241680518914 1.0
C      1  0.5174945024102  0.5943208261131  0.1552330471661 1.0
C      1  0.5916783326255  0.7004719200618  0.2713775389600 1.0
C      1  0.5419684477479  0.8136491531525  0.6389256811767 1.0
C      1  0.6049452096274  0.4244237864357  0.8301930711383 1.0
C      1  0.5972338911843  0.1949690873279  0.5409785840305 1.0
C      1  0.5790241437898  0.3480850979060  0.1921981541799 1.0
C      1  0.8609240616069  0.4182473010811  0.2782119614061 1.0
C      1  0.8158554765424  0.6889100833961  0.3994105551563 1.0
C      1  0.7726911699938  0.7090266588925  0.6618356913297 1.0
C      1  0.8296393974147  0.3979791394354  0.7287903399584 1.0
C      1  0.8304713267129  0.2567565467662  0.5106221468543 1.0
C      1  0.7513026551493  0.5835195464805  0.1722901454380 1.0
C      1  0.6930880877514  0.8536149088162  0.4636742985116 1.0
C      1  0.7130125809220  0.6015126742135  0.8284279757087 1.0
C      1  0.7105385585320  0.2265969982923  0.7420416811480 1.0
C      1  0.7382585218329  0.2370999480299  0.2890350850743 1.0
C      1  0.0968357952074  0.5943403329101  0.5540963391316 1.0
C      1  0.0889556184897  0.5188767124915  0.6131797491866 1.0
C      1  0.0786696671192  0.4408583176562  0.5571928505114 1.0
C      1  0.0774432501023  0.4695421631687  0.4641537770799 1.0
C      1  0.0817291735040  0.5650659018933  0.4620555239855 1.0
C      1  0.4412058417730  0.1751951765684  0.6854176769786 1.0
C      1  0.3661893980495  0.2353458288930  0.1914312719612 1.0
C      1  0.4281902918224  0.6292724860217  0.1563828911809 1.0
C      1  0.3567222166460  0.8627260066504  0.5739090698787 1.0
C      1  0.4246981508016  0.5557099424117  0.8406007000565 1.0
C      1  0.6908994569165  0.1890662102733  0.5209961043568 1.0
C      1  0.6729205748402  0.3490142473537  0.1631128854424 1.0
C      1  0.6958377449259  0.7049553261333  0.2742792118252 1.0
C      1  0.6291288602093  0.7825733927963  0.6712520844762 1.0
C      1  0.7057841164694  0.4379995457131  0.8267730761790 1.0
C      1  0.2657459375459  0.7540808608422  0.6421130851455 1.0
C      1  0.2806375577143  0.4650804040872  0.7316100010772 1.0
C      1  0.2480119177556  0.2897138864253  0.5453052810540 1.0
C      1  0.1919322368674  0.4066053572744  0.2535169119700 1.0
C      1  0.2489567837768  0.6632860743357  0.3491228416950 1.0
C      1  0.4556648363510  0.3908916480264  0.4236335488077 1.0
C      1  0.4637091018747  0.5298504764650  0.3463304860707 1.0
C      1  0.4886713542829  0.6367985822854  0.4575831959897 1.0
C      1  0.5198391762964  0.6046616871914  0.6100728906374 1.0
C      1  0.4697582852845  0.3979686826194  0.5730492375127 1.0
C      1  0.5880105380021  0.2054623481464  0.6324264680069 1.0
C      1  0.5922409637670  0.2651251834593  0.2429796518622 1.0
C      1  0.5926575376035  0.6448520610765  0.1910608056890 1.0
C      1  0.5592807714481  0.8533490698890  0.5496063123639 1.0
C      1  0.5884728513489  0.5011866780788  0.8815551681539 1.0
C      1  0.4335762356228  0.4322817817998  0.6551188580057 1.0
C      1  0.4234222717681  0.3324580156905  0.5068632028210 1.0
C      1  0.4124540165181  0.4411907999359  0.3341942531034 1.0
C      1  0.4254954204605  0.6211868755630  0.3745997737432 1.0
C      1  0.4594192561962  0.6440898736288  0.5481494832111 1.0
C      1  0.3262275709004  0.5588569046461  0.5861405321103 1.0
C      1  0.3008635112084  0.4289768906628  0.5592229552140 1.0
C      1  0.2860927508686  0.3547199681622  0.4098518204204 1.0
C      1  0.2973178536043  0.5236007365636  0.4240169253867 1.0
C      1  0.3157823141702  0.6837717338359  0.4839153141661 1.0
C      1  0.3563033468399  0.5589345273627  0.1584030629486 1.0
C      1  0.2832781322228  0.8470243980980  0.5132753134437 1.0
C      1  0.3454622946620  0.6009535335771  0.8097479085239 1.0
C      1  0.3729745301516  0.2226601582486  0.7405826639845 1.0
C      1  0.3081542621651  0.2773435342052  0.2675254575665 1.0
C      1  0.6316637169611  0.8966502150391  0.5148742238834 1.0
C      1  0.6813120768171  0.5268706646336  0.8726165120519 1.0
C      1  0.6277739700075  0.1939088722368  0.7112946381304 1.0
C      1  0.6877805923059  0.2740861982276  0.2197577190495 1.0
C      1  0.6854541920388  0.6513727773572  0.1856862255919 1.0
C      1  0.2798275356958  0.5088277678034  0.5180464097582 1.0
C      1  0.6842185079288  0.5380787043042  0.5740103512302 1.0
C      1  0.4500944200706  0.4681665268600  0.4953342040718 1.0
END
