TITL C-15713-8578-50 -3.844 3375.00 -671.86946090 0 0 81 (C1) n - 1
REM
REM Run started: at 2020.12.29 13:02:44 in /gpfs/home/chem/mssmkc/CARBON/AIRSS/Generating-Clusters/Str-Search/Higher-Symm/C4-100
REM VASP from code version vasp.5.4.4.18Apr17-6-g9f103f2a35 (build Oct 11 2019 16:45:47) gamma-only
REM
REM
REM
REM
REM ./C.cell (6bd13a13d554368a30d355f37ece5b26)
REM AIRSS Version 0.9.1 bugfix July 2018 build 013d7b7c2542+ Fri, 06 Jul 2018 19:26:36 +0100
REM compiler GCC version 6.3.0
REM options -cpp -iprefix /gpfs/warwick/csc/orac/software/Core/GCCcore/6.3.0/bin/../lib/gcc/x86_64-pc-linux-gnu/6.3.0/ -mtune=generic -march=x86-64 -g -O0
REM seed -290363915 43495677 684180424 857392076 -505025800 -215180383 -498839798 -56511386 1695569541 1171846769 -1308558398 494579500
REM
REM C.POTCAR (d86ddea03c3ceb6dc662c8ad6801f873)
REM 
CELL 1.54180   15.00000   15.00000   15.00000   90.00000   90.00000   90.00000
LATT -1
SFAC C  
C      1  0.3453817796567  0.3139217314401  0.5841023306867 1.0
C      1  0.3411547549802  0.5064554071138  0.7298972420040 1.0
C      1  0.3284915720919  0.7327013561608  0.6304656973532 1.0
C      1  0.3748389471811  0.6041639709941  0.3261810609529 1.0
C      1  0.3496473962085  0.3686226757274  0.3501524722522 1.0
C      1  0.5897844232664  0.2342507436349  0.4676929736289 1.0
C      1  0.5923048214324  0.3896063569838  0.7362727652284 1.0
C      1  0.5718469605130  0.6994238270181  0.6668195364788 1.0
C      1  0.6108073985415  0.7222788615810  0.3653870464781 1.0
C      1  0.5910548467963  0.4329988893832  0.2217358498706 1.0
C      1  0.6091617758843  0.4483984906919  0.4188240708881 1.0
C      1  0.6132220380328  0.4107195451898  0.5122913912013 1.0
C      1  0.6131541095006  0.4883622258483  0.5767041545998 1.0
C      1  0.6086997748674  0.5739534397248  0.5229263073399 1.0
C      1  0.6099062121992  0.5476134833473  0.4248209614728 1.0
C      1  0.3432348455743  0.4159776423129  0.7017415439236 1.0
C      1  0.3183021895655  0.6629995978434  0.6904032595862 1.0
C      1  0.3885724075830  0.6775847749784  0.3884350058985 1.0
C      1  0.3535950033387  0.4512524128567  0.3039625659835 1.0
C      1  0.3464662428889  0.3010197066085  0.4904125617043 1.0
C      1  0.5121499812855  0.4102509070724  0.5142348220182 1.0
C      1  0.5115401224317  0.4868841232146  0.5764138489539 1.0
C      1  0.5063522051660  0.5698980438523  0.5257924004936 1.0
C      1  0.5072151407871  0.5440552761988  0.4306187278349 1.0
C      1  0.5087245974670  0.4457990493157  0.4236312646573 1.0
C      1  0.4239535932180  0.3628767892394  0.7116819726043 1.0
C      1  0.3928692397884  0.7216374099062  0.7017122020697 1.0
C      1  0.4706075406267  0.7247579398629  0.3727834610405 1.0
C      1  0.4294791729684  0.4768133496324  0.2498390777300 1.0
C      1  0.4231162438231  0.2638349416252  0.4423928757507 1.0
C      1  0.5165066102567  0.6306705196019  0.2423288585634 1.0
C      1  0.4992424466165  0.3277518127273  0.2981914949723 1.0
C      1  0.4983447076570  0.2569641906271  0.5967378949217 1.0
C      1  0.4933248063015  0.5060235534087  0.7737649802243 1.0
C      1  0.4623124752062  0.7555566693964  0.5708304922131 1.0
C      1  0.6952224695416  0.5766898881190  0.3773821556097 1.0
C      1  0.6962969880492  0.4162958657697  0.3597842090776 1.0
C      1  0.6905230019444  0.3416751952989  0.5267651463003 1.0
C      1  0.6849345897636  0.4841518112176  0.6500201401396 1.0
C      1  0.6747754822584  0.6449604016220  0.5579607422041 1.0
C      1  0.5928078083392  0.3080877467247  0.3138015646846 1.0
C      1  0.5912269457890  0.2650036864164  0.6231814832259 1.0
C      1  0.5821621110428  0.5463594853428  0.7582104000718 1.0
C      1  0.5453304533276  0.7546928422826  0.5227213317087 1.0
C      1  0.5783466479913  0.5937363980744  0.1813145418354 1.0
C      1  0.3416176687633  0.6794169174637  0.4728684456224 1.0
C      1  0.3174947796746  0.5310245023691  0.3450540048887 1.0
C      1  0.3016306349606  0.3629303342181  0.4327927533937 1.0
C      1  0.2977471159767  0.3882279254170  0.6226687481474 1.0
C      1  0.2971134552609  0.5732355268133  0.6765760670228 1.0
C      1  0.4397112111582  0.5757862033357  0.2607625761190 1.0
C      1  0.4242886074786  0.3055251897561  0.3531608101677 1.0
C      1  0.4231210937605  0.2956394570586  0.6397047914047 1.0
C      1  0.4106143655827  0.5435086950181  0.7824600806203 1.0
C      1  0.3707921205177  0.7364329376784  0.5451326424332 1.0
C      1  0.5448505296499  0.7528408555942  0.4309227052568 1.0
C      1  0.6064565256417  0.5157183888931  0.1861234970057 1.0
C      1  0.6344138870674  0.2759618014466  0.3937330262854 1.0
C      1  0.6367676522007  0.3331776473098  0.6739223572946 1.0
C      1  0.6162508572319  0.6207909061382  0.7044708132763 1.0
C      1  0.6393979516463  0.2584292387075  0.5434391285863 1.0
C      1  0.6349221308331  0.4731130812484  0.7339826738430 1.0
C      1  0.6120434614141  0.7204698135355  0.5834616318775 1.0
C      1  0.6875193749603  0.6753552009644  0.3948630882306 1.0
C      1  0.6443153535920  0.3807358577473  0.2808680563393 1.0
C      1  0.7076838413522  0.3332736106905  0.4214054358665 1.0
C      1  0.7085093399319  0.3790798103150  0.6251060037670 1.0
C      1  0.6905488128352  0.5933067926967  0.6479227275019 1.0
C      1  0.7310190864255  0.6709782908938  0.4778554860201 1.0
C      1  0.7463974514559  0.5043250582397  0.3543157476032 1.0
C      1  0.2677710259281  0.5503981917939  0.5854619991848 1.0
C      1  0.2846252695684  0.5982420869595  0.4961198579517 1.0
C      1  0.2712390726369  0.5278584474828  0.4269808400977 1.0
C      1  0.2611231634619  0.4409246554095  0.4697459181454 1.0
C      1  0.2578073231638  0.4538859281005  0.5653239416001 1.0
C      1  0.4984087221117  0.4111716141178  0.2422365226570 1.0
C      1  0.4974470187386  0.2373486559776  0.4958567096791 1.0
C      1  0.4994816124441  0.4076973941497  0.7487200026599 1.0
C      1  0.4793776351630  0.7321595733609  0.6640990327176 1.0
C      1  0.5340953693591  0.6982303311621  0.3059012487850 1.0
C      1  0.3512517963034  0.5189218419487  0.5241880415098 1.0
END
