TITL C-15713-8578-63 -0.432 3375.00 -68.63280803 0 0 10 (Td) n - 1
REM
REM Run started: at 2020.12.29 15:08:51 in /gpfs/home/chem/mssmkc/CARBON/AIRSS/Generating-Clusters/Str-Search/Higher-Symm/C4-100
REM VASP from code version vasp.5.4.4.18Apr17-6-g9f103f2a35 (build Oct 11 2019 16:45:47) gamma-only
REM
REM
REM
REM
REM ./C.cell (6bd13a13d554368a30d355f37ece5b26)
REM AIRSS Version 0.9.1 bugfix July 2018 build 013d7b7c2542+ Fri, 06 Jul 2018 19:26:36 +0100
REM compiler GCC version 6.3.0
REM options -cpp -iprefix /gpfs/warwick/csc/orac/software/Core/GCCcore/6.3.0/bin/../lib/gcc/x86_64-pc-linux-gnu/6.3.0/ -mtune=generic -march=x86-64 -g -O0
REM seed 49909272 -487876468 -374005992 -731891405 1968364746 124476809 -87020718 866744218 970085829 437880052 701626604 -1841542113
REM
REM C.POTCAR (d86ddea03c3ceb6dc662c8ad6801f873)
REM 
CELL 1.54180   15.00000   15.00000   15.00000   90.00000   90.00000   90.00000
LATT -1
SFAC C  
C      1  0.5138945986445  0.6109428954599  0.5043615048738 1.0
C      1  0.5138901411339  0.4064337160906  0.5043962342644 1.0
C      1  0.5139361702217  0.5087398187570  0.4022110885173 1.0
C      1  0.5138826731505  0.5087645968138  0.6068437245844 1.0
C      1  0.6162309199937  0.5087582029852  0.5043956955121 1.0
C      1  0.4113515818120  0.5087418644716  0.5043230433611 1.0
C      1  0.5772817465970  0.4452443275068  0.5678421895960 1.0
C      1  0.5773103229151  0.5722514364472  0.4409363933812 1.0
C      1  0.4504586006216  0.5722167778950  0.5678352043776 1.0
C      1  0.4504551449099  0.4452532635730  0.4409228215321 1.0
END
