TITL C-15713-8578-237 -4.233 3375.00 -724.90256083 0 0 88 (C1) n - 1
REM
REM Run started: at 2020.12.31 01:40:06 in /gpfs/home/chem/mssmkc/CARBON/AIRSS/Generating-Clusters/Str-Search/Higher-Symm/C4-100
REM VASP from code version vasp.5.4.4.18Apr17-6-g9f103f2a35 (build Oct 11 2019 16:45:47) gamma-only
REM
REM
REM
REM
REM ./C.cell (6bd13a13d554368a30d355f37ece5b26)
REM AIRSS Version 0.9.1 bugfix July 2018 build 013d7b7c2542+ Fri, 06 Jul 2018 19:26:36 +0100
REM compiler GCC version 6.3.0
REM options -cpp -iprefix /gpfs/warwick/csc/orac/software/Core/GCCcore/6.3.0/bin/../lib/gcc/x86_64-pc-linux-gnu/6.3.0/ -mtune=generic -march=x86-64 -g -O0
REM seed -442483762 -945688791 -502760096 -1947921763 -374195143 -1486303199 -1910387292 1911679554 -1726599702 -321803103 -393996296 1507268218
REM
REM C.POTCAR (d86ddea03c3ceb6dc662c8ad6801f873)
REM 
CELL 1.54180   15.00000   15.00000   15.00000   90.00000   90.00000   90.00000
LATT -1
SFAC C  
C      1  0.4441931389854  0.4584306659010  0.5868322115373 1.0
C      1  0.4428167212869  0.6282341380733  0.4859084002948 1.0
C      1  0.5909162132866  0.5059956007835  0.4775635842234 1.0
C      1  0.4999668920160  0.5327335719269  0.6243103953879 1.0
C      1  0.4512681276303  0.5705266877733  0.4085030207349 1.0
C      1  0.5232990508985  0.5145631004769  0.4061740681954 1.0
C      1  0.5360175417479  0.4336542008112  0.4537926311614 1.0
C      1  0.4620552763535  0.4121224794952  0.5111511107265 1.0
C      1  0.5033314405131  0.6064689416078  0.5582083944392 1.0
C      1  0.3746566189069  0.5546468018190  0.4674337876949 1.0
C      1  0.5752945835462  0.5508522981442  0.5585923644865 1.0
C      1  0.3780005308376  0.4647493587540  0.5124317931177 1.0
C      1  0.4094419839225  0.2302015913470  0.5288376071683 1.0
C      1  0.2445429373600  0.5271660767563  0.3956526483002 1.0
C      1  0.5076538899839  0.4055505505338  0.2441270209453 1.0
C      1  0.5900185163548  0.7590856179799  0.5279134107692 1.0
C      1  0.4205022297184  0.7307021592782  0.4709955891964 1.0
C      1  0.5929449727774  0.2423776534974  0.4929669040384 1.0
C      1  0.7538215893089  0.4910057219987  0.4087558454439 1.0
C      1  0.2549714847495  0.4901367630974  0.5908724875289 1.0
C      1  0.7783867337517  0.5305204971126  0.5912603099851 1.0
C      1  0.4692871649430  0.5873727056732  0.2128048232645 1.0
C      1  0.5139040893702  0.5619393424468  0.7246355927971 1.0
C      1  0.4737445967720  0.3934921050750  0.7715285033752 1.0
C      1  0.2834990343516  0.4194566611897  0.6554105957547 1.0
C      1  0.4149606706139  0.6559235880176  0.2608303226661 1.0
C      1  0.6517764322131  0.2921259430745  0.4299055731176 1.0
C      1  0.7232145054557  0.5814651216760  0.6556041291389 1.0
C      1  0.2721682703930  0.5946313427264  0.3273027187150 1.0
C      1  0.7077362924126  0.4264123080362  0.3483193315038 1.0
C      1  0.5711746504495  0.3465638950525  0.2936451154347 1.0
C      1  0.4099441094660  0.3349675756142  0.7259972947475 1.0
C      1  0.5795549302535  0.6385483120830  0.7141090940916 1.0
C      1  0.3533581684060  0.7229281177474  0.3965306422105 1.0
C      1  0.6527860577125  0.7207834737442  0.5920759711779 1.0
C      1  0.3439225470698  0.2776538462048  0.5863081672262 1.0
C      1  0.7553588875982  0.5845935157477  0.4328923556987 1.0
C      1  0.5683333451869  0.4086399562814  0.7572499700504 1.0
C      1  0.4249194127101  0.7615209718598  0.5672371258295 1.0
C      1  0.2514843253932  0.4374470568640  0.4160736211352 1.0
C      1  0.7792731855071  0.4376610630542  0.5690747034997 1.0
C      1  0.2593768654697  0.5820928268822  0.5676258636022 1.0
C      1  0.4242111033942  0.5542419270468  0.7731886506876 1.0
C      1  0.5615861940615  0.5650570441848  0.2167724124093 1.0
C      1  0.4145362515143  0.4307132051863  0.2419115464187 1.0
C      1  0.5681000887530  0.2414651034843  0.5854084043220 1.0
C      1  0.4333304592369  0.2219103176115  0.4370381502302 1.0
C      1  0.5808053566752  0.7508158196640  0.4312424962059 1.0
C      1  0.3393349088216  0.5923479326773  0.2629465032361 1.0
C      1  0.5792381073753  0.2833104850926  0.3600850053449 1.0
C      1  0.2890323033869  0.3510015961799  0.5824597478796 1.0
C      1  0.6404886651011  0.4192276022824  0.2859682525676 1.0
C      1  0.3427076211621  0.4089054575706  0.7282150453973 1.0
C      1  0.6527203047458  0.5702313728356  0.7176704219944 1.0
C      1  0.4258850361466  0.7215822541368  0.3301902317251 1.0
C      1  0.5798909189834  0.7124841084287  0.6591053182017 1.0
C      1  0.4096910211057  0.2707709542239  0.6613048041059 1.0
C      1  0.7188056960222  0.6565501706982  0.5906994466291 1.0
C      1  0.2845266567216  0.6627953842039  0.3967884860416 1.0
C      1  0.7155539100131  0.3576094495725  0.4217244906110 1.0
C      1  0.7668924565250  0.5994842962996  0.5257449061753 1.0
C      1  0.5914712311030  0.5002690861003  0.7491710318969 1.0
C      1  0.5172553249321  0.7571950537880  0.5923209853255 1.0
C      1  0.2793684918028  0.4257062357596  0.5144554361996 1.0
C      1  0.7647471379558  0.4222199088344  0.4755304716891 1.0
C      1  0.2761065704435  0.5900955071323  0.4669253926014 1.0
C      1  0.4061951017437  0.4609593813846  0.7835514918907 1.0
C      1  0.5767413222647  0.4715712070002  0.2334538124330 1.0
C      1  0.3999536037215  0.5226852213804  0.2241331792422 1.0
C      1  0.4743412719776  0.2314757123716  0.5993703684136 1.0
C      1  0.5274017579144  0.2299907125747  0.4235626395318 1.0
C      1  0.4915436470920  0.7497065200484  0.4000159844857 1.0
C      1  0.3544249483734  0.7266879695835  0.6196033720756 1.0
C      1  0.7205398668406  0.6556685385861  0.3795841754733 1.0
C      1  0.6226740406701  0.3366005929103  0.7252662241211 1.0
C      1  0.6218298165686  0.2739059750031  0.6567777736386 1.0
C      1  0.3753650488395  0.2298361593594  0.3646339372856 1.0
C      1  0.6553452317343  0.7215682405193  0.3791722481740 1.0
C      1  0.2801435121363  0.3786613101222  0.3467830487072 1.0
C      1  0.7649405714258  0.3737442253750  0.6338611343933 1.0
C      1  0.2937698889965  0.6544879336703  0.6170819651821 1.0
C      1  0.3656651955883  0.6222023703463  0.7660721729732 1.0
C      1  0.6262448660098  0.6281138784030  0.2349428345383 1.0
C      1  0.3436207853300  0.3777925125542  0.2792555596184 1.0
C      1  0.7007904952326  0.3263277914791  0.6693034968682 1.0
C      1  0.6691504087466  0.6669448646016  0.2998887803558 1.0
C      1  0.3437055737755  0.6737462835787  0.6976261345312 1.0
C      1  0.3318794133520  0.2988745199353  0.3316643277582 1.0
END
