TITL C-15713-8578-211 -4.172 3375.00 -712.39775644 0 0 89 (C1) n - 1
REM
REM Run started: at 2020.12.30 20:29:22 in /gpfs/home/chem/mssmkc/CARBON/AIRSS/Generating-Clusters/Str-Search/Higher-Symm/C4-100
REM VASP from code version vasp.5.4.4.18Apr17-6-g9f103f2a35 (build Oct 11 2019 16:45:47) gamma-only
REM
REM
REM
REM
REM ./C.cell (6bd13a13d554368a30d355f37ece5b26)
REM AIRSS Version 0.9.1 bugfix July 2018 build 013d7b7c2542+ Fri, 06 Jul 2018 19:26:36 +0100
REM compiler GCC version 6.3.0
REM options -cpp -iprefix /gpfs/warwick/csc/orac/software/Core/GCCcore/6.3.0/bin/../lib/gcc/x86_64-pc-linux-gnu/6.3.0/ -mtune=generic -march=x86-64 -g -O0
REM seed -1149220194 -1062581371 -543655455 933813751 -569773714 -405523230 -306038813 868617248 -589437763 211908838 -127361604 1710184312
REM
REM C.POTCAR (d86ddea03c3ceb6dc662c8ad6801f873)
REM 
CELL 1.54180   15.00000   15.00000   15.00000   90.00000   90.00000   90.00000
LATT -1
SFAC C  
C      1  0.8019267220880  0.3728577759572  0.5446111012829 1.0
C      1  0.2038068812122  0.6226970397142  0.5490029608914 1.0
C      1  0.8107950194598  0.3791147924917  0.4452446596380 1.0
C      1  0.1871969120268  0.6186618812054  0.4527123213993 1.0
C      1  0.7038743826188  0.5793972282190  0.5823218537288 1.0
C      1  0.2036018534352  0.3823979144393  0.6224543034531 1.0
C      1  0.7691677595850  0.6350113357191  0.3665916303871 1.0
C      1  0.3124555367419  0.4273117813737  0.4172572498744 1.0
C      1  0.2641067537446  0.6469853888465  0.6148191934291 1.0
C      1  0.7440935699009  0.3529151013772  0.6159514375356 1.0
C      1  0.2346800733775  0.6401676874797  0.3770098792254 1.0
C      1  0.7693601727761  0.3595568607159  0.3627234519528 1.0
C      1  0.3313379774592  0.5087538707399  0.5653128971346 1.0
C      1  0.6794734794920  0.4862942517628  0.5487622672723 1.0
C      1  0.3193764839939  0.5192154205536  0.4621004403090 1.0
C      1  0.6796654104408  0.4516020312567  0.4573177935390 1.0
C      1  0.5314565742343  0.2764134093231  0.6228872909052 1.0
C      1  0.4725038417416  0.7706628422784  0.6651425221477 1.0
C      1  0.5422534935191  0.2533505505942  0.3832714757510 1.0
C      1  0.4682726695858  0.7162194296103  0.3995737452516 1.0
C      1  0.7474764572479  0.6841540253391  0.4471437124467 1.0
C      1  0.2787639174251  0.3448480003900  0.4696726639641 1.0
C      1  0.7273383286391  0.6626282407382  0.5353422928897 1.0
C      1  0.2332858109212  0.3271191604425  0.5545951534883 1.0
C      1  0.3899484514040  0.2413610303094  0.5503086023357 1.0
C      1  0.6079340242585  0.7836491880175  0.5565958144563 1.0
C      1  0.3955603354528  0.2222721302363  0.4536696426031 1.0
C      1  0.6093454288486  0.7830440889262  0.4560678397098 1.0
C      1  0.5971173182118  0.2874912833784  0.3079233660647 1.0
C      1  0.4075769625187  0.6992260521837  0.3206814334530 1.0
C      1  0.5814484530033  0.3153461267767  0.6996362720198 1.0
C      1  0.4225786072267  0.6996478895771  0.7020543107046 1.0
C      1  0.5205382392916  0.5280109584476  0.3255003953164 1.0
C      1  0.5240081613114  0.4360989507679  0.3181790856855 1.0
C      1  0.4852264588632  0.5556417270730  0.6675789329350 1.0
C      1  0.5227612109374  0.4615908636266  0.6508749488511 1.0
C      1  0.7628612016109  0.5300712805580  0.6565410607840 1.0
C      1  0.2045409153981  0.4719869953589  0.6545122375529 1.0
C      1  0.7638768451122  0.5415803380105  0.3480978366710 1.0
C      1  0.2540473744953  0.4633725803761  0.3448412694967 1.0
C      1  0.6932545515651  0.6884600400135  0.3216960524612 1.0
C      1  0.3851992016483  0.3717506677545  0.3743589444484 1.0
C      1  0.6320836410874  0.6315541295164  0.6320786433642 1.0
C      1  0.3710011091306  0.4131793722892  0.5933758886967 1.0
C      1  0.5406047836420  0.6095623624089  0.6040401883575 1.0
C      1  0.4695243654526  0.4264288591339  0.5664076231935 1.0
C      1  0.4985226396254  0.5450066631157  0.4189588288498 1.0
C      1  0.4816571558309  0.3983470088079  0.4036435382408 1.0
C      1  0.7238673907680  0.5490954458284  0.7354845220223 1.0
C      1  0.2555827666305  0.4093900182379  0.7010963222663 1.0
C      1  0.6873650652552  0.5470671190505  0.2957094959194 1.0
C      1  0.2915048675610  0.4445469288138  0.2624312854450 1.0
C      1  0.6394233196773  0.6247492649860  0.2730846780125 1.0
C      1  0.3699559756608  0.3882056531341  0.2702183138319 1.0
C      1  0.6466286812923  0.6066224686368  0.7341509453116 1.0
C      1  0.3534956069403  0.4031037071948  0.6978594864603 1.0
C      1  0.7673324139251  0.4500304194655  0.5954168735598 1.0
C      1  0.2397090318626  0.5468586834299  0.6018794870456 1.0
C      1  0.7655264039469  0.4562789218254  0.4037132883789 1.0
C      1  0.2289048383931  0.5408228111183  0.4082943029432 1.0
C      1  0.5370391798279  0.3507285948955  0.5503775779680 1.0
C      1  0.4708989840114  0.6200106510704  0.5478079917021 1.0
C      1  0.5482609482172  0.3369454084522  0.4499576266516 1.0
C      1  0.4598073585718  0.6296094914392  0.4518295051789 1.0
C      1  0.5423749621625  0.6106676855641  0.2701687783092 1.0
C      1  0.4463798880964  0.3561760271179  0.2319044156682 1.0
C      1  0.5696214264425  0.6272426787381  0.7764635454012 1.0
C      1  0.4257416682145  0.3822022981615  0.7452500473986 1.0
C      1  0.3687272114853  0.5961548199143  0.4237409188418 1.0
C      1  0.6361434265413  0.3755624875453  0.4282771035294 1.0
C      1  0.4005803535856  0.5770067054979  0.6064762415120 1.0
C      1  0.6126346387755  0.4323175565273  0.6052279330698 1.0
C      1  0.6752838672006  0.3291768424715  0.3545547983629 1.0
C      1  0.3285129731655  0.6542556132418  0.3628532055235 1.0
C      1  0.6564694667587  0.3594922033468  0.6544262710202 1.0
C      1  0.3529490094475  0.6555491525113  0.6498209303633 1.0
C      1  0.3430517629667  0.2923920613789  0.4153622934857 1.0
C      1  0.6815625846714  0.7399195789284  0.4059271646242 1.0
C      1  0.3320026039880  0.3245983158518  0.5603335256269 1.0
C      1  0.6653242466540  0.7144598234458  0.5861378096434 1.0
C      1  0.4739483520944  0.2040871851071  0.4097094066131 1.0
C      1  0.5297957618244  0.7758934773420  0.4140284378382 1.0
C      1  0.4599800401751  0.2277467218127  0.6042775313334 1.0
C      1  0.5321965297299  0.7966364564347  0.6119467409451 1.0
C      1  0.5328710729183  0.3556726401307  0.2604983906709 1.0
C      1  0.4692669328377  0.6641028519234  0.2656645618691 1.0
C      1  0.5123511484106  0.3859528473498  0.7180175189592 1.0
C      1  0.4877038272968  0.6276655352556  0.7377627241932 1.0
C      1  0.4830917944222  0.4692437395910  0.4716366483512 1.0
END
