TITL C-153172-3080-1 -9.029 3375.00 -1534.79738600 0 0 189 (C1) n - 1
REM
REM Run started: at 2020.12.06 23:59:16 in /rds/project/t2_vol4/rds-t2-cs072/BORA/CARBON/AIRSS/Generating-Clusters/Str-Search/Higher-Symm/C100-200
REM VASP from code version vasp.5.4.4.18Apr17-6-g9f103f2a35 (build Oct 11 2019 16:45:47) gamma-only
REM
REM
REM
REM
REM ./C.cell (533062f00bc710175b3da973d35f2034)
REM AIRSS Version 0.9.1 bugfix July 2018 build 013d7b7c2542+ Fri, 06 Jul 2018 19:26:36 +0100
REM compiler GCC version 4.8.5 20150623 (Red Hat 4.8.5-39)
REM options -cpp -mtune=generic -march=x86-64 -g -O0
REM seed -699812966 -852249966 -1030698296 -1801211076 594361697 -1069134106 1132498487 -1077177535 849944904 1849764275 333812228 1115245690
REM
REM C.POTCAR (d86ddea03c3ceb6dc662c8ad6801f873)
REM 
CELL 1.54180   15.00000   15.00000   15.00000   90.00000   90.00000   90.00000
LATT -1
SFAC C  
C      1  0.4452718314900  0.5847228967389  0.5426395811663 1.0
C      1  0.4453534286364  0.4109278577629  0.5419283349536 1.0
C      1  0.5548648591757  0.7764272106214  0.6667949778812 1.0
C      1  0.5603495385886  0.2252372291760  0.6476772742303 1.0
C      1  0.4893232895258  0.8495510354538  0.6744701882610 1.0
C      1  0.4893276967470  0.1616469313463  0.6726964881552 1.0
C      1  0.2098709085593  0.7738804472283  0.5060363877323 1.0
C      1  0.2095924809313  0.2253901153764  0.5056515551424 1.0
C      1  0.6006613782217  0.4348665711209  0.6308249053054 1.0
C      1  0.5668154685293  0.6174115499612  0.6568084211250 1.0
C      1  0.4071937144248  0.7257857534132  0.4688297672197 1.0
C      1  0.4054723809441  0.2707750578519  0.4656656479914 1.0
C      1  0.3899058840629  0.3888291577260  0.1871549329615 1.0
C      1  0.3915339923855  0.6103338122555  0.1894653917149 1.0
C      1  0.8904562528296  0.3946103412021  0.5051233782296 1.0
C      1  0.8917595671263  0.6130927425725  0.5098326937604 1.0
C      1  0.6529520866752  0.1965284316153  0.6377691269916 1.0
C      1  0.6478717726295  0.8036537384343  0.6452679091871 1.0
C      1  0.5278698864986  0.6956383788682  0.6102905429370 1.0
C      1  0.5303566317389  0.2926936059545  0.5933013506770 1.0
C      1  0.2573452275334  0.3619332346858  0.5871820291013 1.0
C      1  0.2588831591619  0.6371697403304  0.5872201510533 1.0
C      1  0.5614866035620  0.2976976982029  0.4021572732589 1.0
C      1  0.5643460055485  0.6971386537866  0.4055564262144 1.0
C      1  0.4231675493819  0.5456850930676  0.1221452436702 1.0
C      1  0.4222846488855  0.4543115863414  0.1207748239009 1.0
C      1  0.7301291843860  0.6893731477593  0.7349544118149 1.0
C      1  0.7244885225312  0.3184199322685  0.7246578752718 1.0
C      1  0.2880228182603  0.4006134390941  0.4918198555957 1.0
C      1  0.2888527580064  0.5971121455393  0.4921510729077 1.0
C      1  0.6049343419880  0.7146251033168  0.8642834562273 1.0
C      1  0.5953976318352  0.2876985841677  0.8492813123835 1.0
C      1  0.5302558627307  0.6868968345331  0.1810838214578 1.0
C      1  0.5290663732728  0.3120974263152  0.1790218000626 1.0
C      1  0.3534830789132  0.6546855274652  0.6362307009185 1.0
C      1  0.3510012718657  0.3428746908410  0.6370989818197 1.0
C      1  0.3109472809422  0.3937130673735  0.2489626075299 1.0
C      1  0.3121976760396  0.6045491322861  0.2504680264789 1.0
C      1  0.4429342582147  0.2061926743848  0.3267703595365 1.0
C      1  0.4452272350168  0.7890673616045  0.3291918566222 1.0
C      1  0.3571376797127  0.5451843009297  0.5324974657243 1.0
C      1  0.3571616723349  0.4514457034864  0.5321455071472 1.0
C      1  0.4781951579149  0.6259391047887  0.2448729064961 1.0
C      1  0.4759520761401  0.3722233917742  0.2424824395886 1.0
C      1  0.5118566003120  0.2438303542194  0.8322576678360 1.0
C      1  0.5231759202521  0.7599460387868  0.8444530764792 1.0
C      1  0.9247131638616  0.4605017574474  0.4668237321786 1.0
C      1  0.9253708014716  0.5490502746235  0.4679272375268 1.0
C      1  0.3408770761281  0.3203718664333  0.7353308836974 1.0
C      1  0.3507890120136  0.6777384102046  0.7340172043462 1.0
C      1  0.5587105987478  0.7827537466163  0.2180799119175 1.0
C      1  0.5567650925678  0.2158342203279  0.2159497249792 1.0
C      1  0.4095071737359  0.7319701366138  0.7780363486329 1.0
C      1  0.3897343231472  0.2593768220165  0.7812172777044 1.0
C      1  0.7186945994518  0.1424924551106  0.5092231392503 1.0
C      1  0.7150029673813  0.8549282256230  0.5135873917339 1.0
C      1  0.7264610022394  0.2593144059292  0.6507164441344 1.0
C      1  0.7253397379932  0.7460772089333  0.6590153752269 1.0
C      1  0.3503193141443  0.3550110080555  0.4127786075392 1.0
C      1  0.3516302594155  0.6421727223117  0.4140054444953 1.0
C      1  0.4216901663242  0.7041173778222  0.1613198557004 1.0
C      1  0.4199724785637  0.2950839560812  0.1594069890094 1.0
C      1  0.6244784504624  0.8411067467698  0.3725333700177 1.0
C      1  0.6250110142959  0.1553147061259  0.3707070066157 1.0
C      1  0.3692547500619  0.8690494464182  0.5490086964925 1.0
C      1  0.3698339115331  0.1300379888460  0.5489333544232 1.0
C      1  0.2366203056588  0.5500581094608  0.2691901516256 1.0
C      1  0.2361767209056  0.4487873665822  0.2688242320135 1.0
C      1  0.4881526251450  0.5891771660025  0.3256600090684 1.0
C      1  0.4850965759092  0.4072096725558  0.3238732965977 1.0
C      1  0.5289919862396  0.0429984001722  0.4606610276362 1.0
C      1  0.5285588502345  0.9529326605592  0.4609479706544 1.0
C      1  0.2889260778220  0.1769218544387  0.5406496796530 1.0
C      1  0.2888982516042  0.8227708627738  0.5417842244302 1.0
C      1  0.4331348401041  0.6820960066044  0.5644824471872 1.0
C      1  0.4335068063715  0.3132666162693  0.5609223320912 1.0
C      1  0.7844904982074  0.7852634396069  0.5142661639185 1.0
C      1  0.7857192349559  0.2172937543705  0.5077378975579 1.0
C      1  0.2348301161070  0.5511073221598  0.7455683413059 1.0
C      1  0.2334055088170  0.4521643176300  0.7463045017812 1.0
C      1  0.3911203402291  0.2202396665202  0.2044833435277 1.0
C      1  0.3931004771758  0.7784530065257  0.2071832001488 1.0
C      1  0.7117270599723  0.8515701119739  0.4191017053746 1.0
C      1  0.7131573857916  0.1454234072765  0.4157678530428 1.0
C      1  0.4365888359447  0.7333316380988  0.8717475837284 1.0
C      1  0.4256261048988  0.2549867901241  0.8743003500948 1.0
C      1  0.1999133884144  0.5492468811450  0.4730796286636 1.0
C      1  0.1994609556300  0.4497102455558  0.4729269073258 1.0
C      1  0.6019535061598  0.6315217556394  0.5766163627899 1.0
C      1  0.5971715545433  0.3621603941217  0.5740339972862 1.0
C      1  0.2988423610060  0.8161053188270  0.3809263531866 1.0
C      1  0.2965088526182  0.1810889548245  0.3790983945136 1.0
C      1  0.1732261742042  0.6130737963339  0.3212487509924 1.0
C      1  0.1727406109727  0.3860261542075  0.3211204176138 1.0
C      1  0.5533709302511  0.4478780707486  0.8204039658948 1.0
C      1  0.5550262365393  0.5571652266424  0.8279264514878 1.0
C      1  0.3506733999852  0.7706396566570  0.3049799793104 1.0
C      1  0.3486032607566  0.2265311320984  0.3028612586981 1.0
C      1  0.2183353378465  0.2264234919821  0.4037520191352 1.0
C      1  0.2194124178774  0.7723779672425  0.4042474341266 1.0
C      1  0.3052697522740  0.3988633221183  0.7832938125208 1.0
C      1  0.3081511078658  0.6034541480942  0.7832185712272 1.0
C      1  0.4143220729783  0.4360582091337  0.3865907018469 1.0
C      1  0.4156312392658  0.5616349699747  0.3872066468480 1.0
C      1  0.6311592089885  0.7399164478357  0.3648214037092 1.0
C      1  0.6297934237629  0.2565414308525  0.3614656583275 1.0
C      1  0.1834644999787  0.6934854768917  0.5449761505283 1.0
C      1  0.1820767167128  0.3058128326064  0.5448237005886 1.0
C      1  0.6606457634856  0.4547891830088  0.9309818668140 1.0
C      1  0.6616566422855  0.5385581660073  0.9347477188446 1.0
C      1  0.7867412943478  0.2134030573020  0.4069459321527 1.0
C      1  0.7866690887183  0.7876871982277  0.4111447690842 1.0
C      1  0.7837551101780  0.2652706792060  0.3297218870637 1.0
C      1  0.7848670007760  0.7345083371336  0.3341608144611 1.0
C      1  0.5412221485412  0.1380313444644  0.4305400012388 1.0
C      1  0.5405959749720  0.8576616963532  0.4320965053167 1.0
C      1  0.1427493868465  0.5984102778908  0.4095065009620 1.0
C      1  0.1421924243406  0.4009298893834  0.4092212990790 1.0
C      1  0.5215845711306  0.5479607944250  0.0991920463268 1.0
C      1  0.5210410749018  0.4519159688562  0.0979866187443 1.0
C      1  0.6460812685768  0.5497318346217  0.4190448522673 1.0
C      1  0.6452003041823  0.4405418329221  0.4121303744184 1.0
C      1  0.1428121024738  0.4514849936712  0.7023435600584 1.0
C      1  0.1435673573432  0.5514451832492  0.7017486413166 1.0
C      1  0.2178273883962  0.5536995494456  0.6369528042839 1.0
C      1  0.2170413658083  0.4473339842642  0.6371331586534 1.0
C      1  0.5824880416651  0.3972406084413  0.1407889647075 1.0
C      1  0.5833663829124  0.6022929103060  0.1427603437153 1.0
C      1  0.7621278324822  0.6001708112878  0.7130322344298 1.0
C      1  0.7580931458372  0.4080640083746  0.7083909786467 1.0
C      1  0.6557412129045  0.5508113412399  0.1902410111104 1.0
C      1  0.6552629519058  0.4489731545127  0.1881569684943 1.0
C      1  0.6265737183505  0.6146433562480  0.8796080497032 1.0
C      1  0.6221097019325  0.3857773731923  0.8683087032383 1.0
C      1  0.2155571310748  0.6948246862713  0.3414945146149 1.0
C      1  0.2144724278473  0.3038692829503  0.3408058195437 1.0
C      1  0.7539457733720  0.3211886030444  0.2578278670517 1.0
C      1  0.7559042065190  0.6767757023416  0.2632910426813 1.0
C      1  0.4657724922993  0.2078066256979  0.7527529782312 1.0
C      1  0.4895190413593  0.7859600110021  0.7490055860818 1.0
C      1  0.6290882206393  0.1842438066511  0.2652694635745 1.0
C      1  0.6307275416988  0.8138452169792  0.2672844833665 1.0
C      1  0.4853431553731  0.2316877932305  0.4115319112507 1.0
C      1  0.4870409184800  0.7631038679399  0.4144074658229 1.0
C      1  0.4594357541634  0.1273438769021  0.5904822045611 1.0
C      1  0.4589056713173  0.8742389503451  0.5914240563421 1.0
C      1  0.8111751746211  0.5599969314012  0.6421873111356 1.0
C      1  0.8091101691307  0.4473807867494  0.6395038467366 1.0
C      1  0.7883743196768  0.7231219424979  0.5849964194875 1.0
C      1  0.7886785910522  0.2818705520851  0.5776532143653 1.0
C      1  0.4578005677181  0.4545798127452  0.8528250761881 1.0
C      1  0.4583013226236  0.5467869813429  0.8563620051847 1.0
C      1  0.6898805286042  0.4625803725974  0.7426634888903 1.0
C      1  0.6902268473156  0.5503266047453  0.7434674207566 1.0
C      1  0.8317612808155  0.3725477114139  0.5730775565420 1.0
C      1  0.8346050865377  0.6345114931535  0.5793186078234 1.0
C      1  0.6961029283065  0.2514676404908  0.2856147469977 1.0
C      1  0.6974396509720  0.7467254481004  0.2892788631189 1.0
C      1  0.3528493585278  0.8157622319226  0.4671644720661 1.0
C      1  0.3511704706004  0.1806125981841  0.4650476171210 1.0
C      1  0.4875137128490  0.5493104349630  0.4604193515830 1.0
C      1  0.4868661140250  0.4466253933345  0.4592026132722 1.0
C      1  0.4740729718972  0.8159555658448  0.2469644438904 1.0
C      1  0.4720263525158  0.1822494905708  0.2436789299501 1.0
C      1  0.6667294346646  0.3176227664904  0.8023952077434 1.0
C      1  0.6762846540289  0.6860329371536  0.8160452681219 1.0
C      1  0.5477009947125  0.8859118285813  0.5324506921244 1.0
C      1  0.5491100589369  0.1104104748153  0.5312782710853 1.0
C      1  0.6555343189159  0.4086865255439  0.5069600969991 1.0
C      1  0.6503648929581  0.5684662005391  0.5211976742884 1.0
C      1  0.7135179882667  0.4533771889670  0.3367941008389 1.0
C      1  0.7148881274443  0.5429058019851  0.3409729762974 1.0
C      1  0.1324482732958  0.3751916157563  0.4961240047251 1.0
C      1  0.1334593928446  0.6239558064168  0.4964013933794 1.0
C      1  0.6400211123696  0.8609430532622  0.5709510001325 1.0
C      1  0.6443525090865  0.1348066843914  0.5677058687484 1.0
C      1  0.5565815910590  0.5971368152206  0.4001898440355 1.0
C      1  0.5538871245205  0.3972269479374  0.3967721648736 1.0
C      1  0.3118186187714  0.6777097765008  0.3197911808349 1.0
C      1  0.3106380172861  0.3200600121950  0.3180450473353 1.0
C      1  0.7167119129374  0.4080194966338  0.2523814613497 1.0
C      1  0.7171976881504  0.5905603350277  0.2573836598852 1.0
C      1  0.5890248627883  0.4591351535222  0.7232181012675 1.0
C      1  0.5889422569767  0.5626793185450  0.7321594845546 1.0
C      1  0.3605709023139  0.4508074542172  0.8347147694005 1.0
C      1  0.3609557554423  0.5506380328616  0.8364984342343 1.0
C      1  0.3927204414627  0.5529652594592  0.6242919995258 1.0
C      1  0.3926201785011  0.4422503163644  0.6238676304745 1.0
C      1  0.6519901063094  0.4861540805031  0.5622740059799 1.0
END
