TITL C-159479-5093-10 -3.485 3375.00 -596.34402383 0 0 71 (C1) n - 1
REM
REM Run started: at 2020.12.04 18:58:28 in /rds/project/t2_vol4/rds-t2-cs072/BORA/CARBON/AIRSS/Generating-Clusters/Str-Search/Higher-Symm/C10-100
REM VASP from code version vasp.5.4.4.18Apr17-6-g9f103f2a35 (build Oct 11 2019 16:45:47) gamma-only
REM
REM
REM
REM
REM ./C.cell (f39ce9773e2efe3fa5bbdf770a4156b8)
REM AIRSS Version 0.9.1 bugfix July 2018 build 013d7b7c2542+ Fri, 06 Jul 2018 19:26:36 +0100
REM compiler GCC version 4.8.5 20150623 (Red Hat 4.8.5-39)
REM options -cpp -mtune=generic -march=x86-64 -g -O0
REM seed -1346443785 956257234 -2122443542 1131939454 -1858426161 -1029124411 803018787 -2021340604 -1389765510 1415488684 1960000021 -503189152
REM
REM C.POTCAR (d86ddea03c3ceb6dc662c8ad6801f873)
REM 
CELL 1.54180   15.00000   15.00000   15.00000   90.00000   90.00000   90.00000
LATT -1
SFAC C  
C      1  0.3571620859106  0.6065630417167  0.3282791521070 1.0
C      1  0.4388683937488  0.6697250801878  0.3338298375285 1.0
C      1  0.5316133394832  0.6605715742144  0.3399652295279 1.0
C      1  0.5682954090669  0.5723820693174  0.3180595011208 1.0
C      1  0.6553891896139  0.5355319113618  0.3392238729191 1.0
C      1  0.6641902590744  0.4414580409010  0.3418335077940 1.0
C      1  0.6047565287811  0.3584771664756  0.3452050434799 1.0
C      1  0.5161059871982  0.3272808987425  0.3507700019698 1.0
C      1  0.4164562220707  0.3511093827213  0.3477825660008 1.0
C      1  0.3498105285999  0.4154976644180  0.3316707540349 1.0
C      1  0.3273532797949  0.5181154632893  0.3279367456413 1.0
C      1  0.4957874847772  0.2587191096716  0.4187036778575 1.0
C      1  0.4018947116790  0.2832076675943  0.4197352514769 1.0
C      1  0.2720118946318  0.4055526186803  0.3907122698334 1.0
C      1  0.2552086021662  0.4988163410086  0.3919075189493 1.0
C      1  0.3162833674909  0.6635298450000  0.3978781701584 1.0
C      1  0.3936744117013  0.7190404563645  0.4025305829918 1.0
C      1  0.5792011153253  0.7066917989653  0.4119958884439 1.0
C      1  0.6697025353448  0.6777617222572  0.4304599672905 1.0
C      1  0.7063596472201  0.5910862655699  0.4012268742253 1.0
C      1  0.7243394853838  0.3998828590953  0.4047077248498 1.0
C      1  0.6706723364650  0.3187155035876  0.4073713559521 1.0
C      1  0.5576815562329  0.2263844678786  0.4793903610806 1.0
C      1  0.3353934621587  0.2873217645827  0.4856401286264 1.0
C      1  0.2672532181765  0.3541405527014  0.4676968163334 1.0
C      1  0.2347174546907  0.5457911447373  0.4716556635134 1.0
C      1  0.2710505724418  0.6349141613636  0.4756773241314 1.0
C      1  0.4329163466575  0.7486162740155  0.4824905728240 1.0
C      1  0.5301567693686  0.7508788715525  0.4843754244529 1.0
C      1  0.7168049973611  0.7165394820756  0.5016426110454 1.0
C      1  0.7594215259181  0.5460536473468  0.4654808372470 1.0
C      1  0.7693507267131  0.4499962225988  0.4669525563597 1.0
C      1  0.6489881557913  0.2600552221253  0.4741549095596 1.0
C      1  0.3437844600506  0.2840354821440  0.5830700347417 1.0
C      1  0.2436211801531  0.3989023945084  0.5491318149460 1.0
C      1  0.2270645076994  0.4918020045138  0.5520672624505 1.0
C      1  0.3025128146510  0.6728111101433  0.5589334252400 1.0
C      1  0.3802362759323  0.7304654201817  0.5619046589601 1.0
C      1  0.5731121618404  0.7561546809197  0.5701237768485 1.0
C      1  0.6649159195031  0.7310306598852  0.5781406773661 1.0
C      1  0.7687602058769  0.5475377126601  0.5656168082944 1.0
C      1  0.7726382891322  0.4512451318651  0.5665640646220 1.0
C      1  0.6544550489481  0.2603081311922  0.5735779721711 1.0
C      1  0.5640549600403  0.2237640177738  0.5777159486999 1.0
C      1  0.6169085033809  0.6275231302160  0.7098797410462 1.0
C      1  0.6705821328138  0.5421327127441  0.7034274100630 1.0
C      1  0.6688390951378  0.4489222612192  0.7002491657627 1.0
C      1  0.6119697898162  0.3647159498293  0.7021614105411 1.0
C      1  0.5251088335836  0.3283500171554  0.7056976710253 1.0
C      1  0.4233216816203  0.3451701346010  0.7059850606730 1.0
C      1  0.3458466049983  0.4057274289107  0.6906365405596 1.0
C      1  0.3210538888166  0.4968515989972  0.6976115985386 1.0
C      1  0.3589212843010  0.5933934652303  0.7039400716684 1.0
C      1  0.4306352635660  0.6518090854906  0.7090617264909 1.0
C      1  0.5324720116994  0.6663016673203  0.7122050831425 1.0
C      1  0.6755160751704  0.3250913485431  0.6351170753394 1.0
C      1  0.5075962879166  0.2522260340143  0.6437733768703 1.0
C      1  0.4147395794157  0.2728281035939  0.6433330879365 1.0
C      1  0.2954865556549  0.3586705892819  0.6188199921260 1.0
C      1  0.2559446405284  0.5316004243543  0.6330023950056 1.0
C      1  0.2917503532071  0.6187200231970  0.6357744964444 1.0
C      1  0.4272640882208  0.7260240132736  0.6432381033461 1.0
C      1  0.5197651695817  0.7381990586081  0.6464086365682 1.0
C      1  0.6827163514868  0.6720462596843  0.6506293944195 1.0
C      1  0.7298033027397  0.5896024690309  0.6390597261017 1.0
C      1  0.7284480682288  0.4057116850717  0.6337575707555 1.0
C      1  0.5017219098712  0.4956533285594  0.6881841746424 1.0
C      1  0.5077598327791  0.5186521480664  0.3580823385196 1.0
C      1  0.4936754954957  0.4896844275578  0.6026739009705 1.0
C      1  0.4835304865478  0.4883556004423  0.4334439799663 1.0
C      1  0.4845119885554  0.4843416971010  0.5180735278095 1.0
END
