TITL C-15509-9577-14 -2.85 3375.00 -491.39867392 0 0 59 (C1) n - 1
REM
REM Run started: at 2021.01.04 11:59:10 in /gpfs/home/chem/mssmkc/CARBON/AIRSS/Generating-Clusters/Str-Search/Higher-Symm/C4-100
REM VASP from code version vasp.5.4.4.18Apr17-6-g9f103f2a35 (build Oct 11 2019 16:45:47) gamma-only
REM
REM
REM
REM
REM ./C.cell (6bd13a13d554368a30d355f37ece5b26)
REM AIRSS Version 0.9.1 bugfix July 2018 build 013d7b7c2542+ Fri, 06 Jul 2018 19:26:36 +0100
REM compiler GCC version 6.3.0
REM options -cpp -iprefix /gpfs/warwick/csc/orac/software/Core/GCCcore/6.3.0/bin/../lib/gcc/x86_64-pc-linux-gnu/6.3.0/ -mtune=generic -march=x86-64 -g -O0
REM seed -784459844 -1362905230 -247092650 -1098253277 1071540694 -1509035804 98982676 1405884603 348203637 -1257005068 282456202 -1556846148
REM
REM C.POTCAR (d86ddea03c3ceb6dc662c8ad6801f873)
REM 
CELL 1.54180   15.00000   15.00000   15.00000   90.00000   90.00000   90.00000
LATT -1
SFAC C  
C      1  0.4661498112514  0.4860699911831  0.7321381556408 1.0
C      1  0.6853196611077  0.4567658111753  0.6353840438217 1.0
C      1  0.6786288443433  0.4795069195967  0.3361239653067 1.0
C      1  0.3755975852370  0.4231097831073  0.3004302157703 1.0
C      1  0.2916362876316  0.4886201630582  0.4919112418162 1.0
C      1  0.4299833661666  0.5019339921626  0.2914347151942 1.0
C      1  0.7347442212753  0.5477827824954  0.3694384499123 1.0
C      1  0.6410741272058  0.5262859596991  0.6814395187736 1.0
C      1  0.4006218461947  0.5497780974415  0.7491678131202 1.0
C      1  0.2804796317825  0.5681328485473  0.4412157602517 1.0
C      1  0.6578972930852  0.6082929280257  0.6302306655802 1.0
C      1  0.6692824914246  0.6158196882231  0.3832126231005 1.0
C      1  0.4201083511990  0.5909465730421  0.3291687178339 1.0
C      1  0.2900658404852  0.6398476391226  0.5057689663062 1.0
C      1  0.4335159971969  0.6311174489519  0.7107477080329 1.0
C      1  0.6653829184017  0.4023884772714  0.3903848894664 1.0
C      1  0.6543773149342  0.3668110854685  0.6394549849773 1.0
C      1  0.4361739639740  0.4088303642468  0.6798530938750 1.0
C      1  0.3132805831006  0.4004381256453  0.4662733050465 1.0
C      1  0.4353063597112  0.3451243160711  0.2904255019265 1.0
C      1  0.4976500972759  0.2851721904414  0.5847009293172 1.0
C      1  0.5767449234338  0.2842126369255  0.5281139484860 1.0
C      1  0.5400602002649  0.2935265908741  0.4371210262360 1.0
C      1  0.4429473348388  0.2703516625423  0.4375092077509 1.0
C      1  0.4185803106842  0.2886545639977  0.5297609292504 1.0
C      1  0.5077389939815  0.6950317390077  0.4286975093228 1.0
C      1  0.5871568299697  0.7067858016941  0.4897537412117 1.0
C      1  0.5508385772372  0.7204763428833  0.5785510571172 1.0
C      1  0.4509507791906  0.7073618030064  0.5690462840885 1.0
C      1  0.4243422738548  0.7233052604097  0.4733701643380 1.0
C      1  0.5039661597974  0.6410767124561  0.3462569032480 1.0
C      1  0.3414482746842  0.6927960080813  0.4417398977569 1.0
C      1  0.3899607616393  0.6645663906461  0.6350352289223 1.0
C      1  0.5889548849344  0.6722919847049  0.6496064057825 1.0
C      1  0.6605619733718  0.6476534337389  0.4724071360303 1.0
C      1  0.5011130460071  0.3386618983039  0.6636478943144 1.0
C      1  0.3552408008353  0.3579322036888  0.5438465322892 1.0
C      1  0.3931342829456  0.3000097074842  0.3650059411995 1.0
C      1  0.5825469403909  0.3505162039177  0.3649984465264 1.0
C      1  0.6520137486944  0.3359607089463  0.5486352746822 1.0
C      1  0.3330683091158  0.3747930753086  0.3779481034811 1.0
C      1  0.3642226324445  0.4234210298625  0.6164958595112 1.0
C      1  0.5863351568806  0.3514783192342  0.7010086864912 1.0
C      1  0.6870058603321  0.4072431675571  0.4869579100505 1.0
C      1  0.5246660940964  0.3721459086438  0.2852436354134 1.0
C      1  0.3225746858018  0.6087897283677  0.5893936416476 1.0
C      1  0.3416929365860  0.6169171427716  0.3798054255245 1.0
C      1  0.5885910074928  0.6049602225944  0.3268242006541 1.0
C      1  0.6878677234425  0.5866770847757  0.5438846932245 1.0
C      1  0.5300825407878  0.6281597063173  0.7107115961068 1.0
C      1  0.3215954932065  0.5078928161599  0.5823903049131 1.0
C      1  0.5968364255768  0.5170890748277  0.2908707543481 1.0
C      1  0.5209056807662  0.4684933775145  0.2712651855707 1.0
C      1  0.7035253282865  0.4849006508135  0.5433086039465 1.0
C      1  0.5555563544831  0.5347955399174  0.7226228474823 1.0
C      1  0.4744570506531  0.5407257671505  0.5066867071233 1.0
C      1  0.4967724305664  0.4669584952430  0.4691795200125 1.0
C      1  0.5244089803236  0.3941810070286  0.4360125188961 1.0
C      1  0.4728579194169  0.6276602476267  0.5049146119791 1.0
END
