TITL C-15509-9577-4 -4.239 3375.00 -714.57340298 0 0 86 (C1) n - 1
REM
REM Run started: at 2021.01.04 10:36:14 in /gpfs/home/chem/mssmkc/CARBON/AIRSS/Generating-Clusters/Str-Search/Higher-Symm/C4-100
REM VASP from code version vasp.5.4.4.18Apr17-6-g9f103f2a35 (build Oct 11 2019 16:45:47) gamma-only
REM
REM
REM
REM
REM ./C.cell (6bd13a13d554368a30d355f37ece5b26)
REM AIRSS Version 0.9.1 bugfix July 2018 build 013d7b7c2542+ Fri, 06 Jul 2018 19:26:36 +0100
REM compiler GCC version 6.3.0
REM options -cpp -iprefix /gpfs/warwick/csc/orac/software/Core/GCCcore/6.3.0/bin/../lib/gcc/x86_64-pc-linux-gnu/6.3.0/ -mtune=generic -march=x86-64 -g -O0
REM seed 239899505 -1391991557 124662567 -1383584891 -216461641 -1305332307 -89172709 -954172692 -669654163 746719554 -1798922545 104194300
REM
REM C.POTCAR (d86ddea03c3ceb6dc662c8ad6801f873)
REM 
CELL 1.54180   15.00000   15.00000   15.00000   90.00000   90.00000   90.00000
LATT -1
SFAC C  
C      1  0.3158624367696  0.3218934033633  0.3297106873559 1.0
C      1  0.2971098389053  0.7076094648248  0.4582125417814 1.0
C      1  0.4111812581115  0.5175345009172  0.7432749068778 1.0
C      1  0.6835077514477  0.6738840977417  0.3387926084122 1.0
C      1  0.6698751308275  0.2627013687084  0.4016677928908 1.0
C      1  0.5989323830941  0.5041990154842  0.7604241674579 1.0
C      1  0.6817833256091  0.4783119522689  0.7187270083454 1.0
C      1  0.7079847509664  0.3381176030341  0.3678509030081 1.0
C      1  0.6914780612469  0.6658909852545  0.4259415199328 1.0
C      1  0.3249758872413  0.5414472703449  0.7087993005639 1.0
C      1  0.2842755315033  0.6516256727958  0.3796502273346 1.0
C      1  0.3169791662924  0.3388754407701  0.4163441738013 1.0
C      1  0.1963387711588  0.5952460344413  0.4978549753862 1.0
C      1  0.2144288065121  0.4581166052961  0.5989391057701 1.0
C      1  0.2016612493310  0.4456957394823  0.4457272645504 1.0
C      1  0.8085530702611  0.3933073833258  0.4992292786915 1.0
C      1  0.7959561416856  0.5396344611973  0.6036837101794 1.0
C      1  0.7949135071032  0.5430262423141  0.4511897343539 1.0
C      1  0.3681440955854  0.7603474855752  0.4919928328103 1.0
C      1  0.4515584181143  0.4341802332951  0.7319551003878 1.0
C      1  0.3658899242996  0.3538064225550  0.2619513488347 1.0
C      1  0.6159020592044  0.2198602835980  0.4586931966676 1.0
C      1  0.5625098116999  0.5892881599283  0.7382543655357 1.0
C      1  0.6288039880064  0.6412484040791  0.2744879714797 1.0
C      1  0.7606817014477  0.6288034280682  0.4807188857068 1.0
C      1  0.7349121427545  0.5441808272378  0.6802469794364 1.0
C      1  0.7773695699457  0.3951219545286  0.4085256667665 1.0
C      1  0.2476534752823  0.3667769842582  0.4770497380546 1.0
C      1  0.2808245154378  0.4698501252441  0.6687412989676 1.0
C      1  0.2166529499516  0.5912941401396  0.4028425941503 1.0
C      1  0.5597234675545  0.6874419769487  0.2284782001297 1.0
C      1  0.4677679264011  0.5967046427081  0.7598759430985 1.0
C      1  0.5299150157793  0.1799392373954  0.4475136708207 1.0
C      1  0.4393086789239  0.3111778780187  0.2192669488183 1.0
C      1  0.5386519156548  0.4282024618383  0.7726519993447 1.0
C      1  0.4450861447852  0.8011085912300  0.4586018159153 1.0
C      1  0.4518845995799  0.7217597114015  0.6412311295453 1.0
C      1  0.4749773067385  0.3127772053765  0.6046591735451 1.0
C      1  0.4515524063903  0.5079396617469  0.2466506700281 1.0
C      1  0.5664049395972  0.2830315840628  0.6164088241387 1.0
C      1  0.5440543328791  0.7079082391079  0.6194362207131 1.0
C      1  0.5467853767231  0.4863394467505  0.2472387897404 1.0
C      1  0.6617166264021  0.4033437760743  0.6599910106172 1.0
C      1  0.6590157126847  0.3966606312723  0.3078948767533 1.0
C      1  0.6076114927481  0.6519602165049  0.4776347377459 1.0
C      1  0.3249704760551  0.6352023041165  0.6885484393653 1.0
C      1  0.3522259800203  0.5905604934723  0.3353379960349 1.0
C      1  0.3997650330779  0.3726221240422  0.4628874442260 1.0
C      1  0.6087615319694  0.3303925762852  0.6911576487643 1.0
C      1  0.5785735280205  0.3941109409062  0.2594922004113 1.0
C      1  0.5700770022621  0.7236410437763  0.5267090076697 1.0
C      1  0.4140130978609  0.6737970960597  0.7185060785153 1.0
C      1  0.4238351167702  0.5991712163269  0.2667075625894 1.0
C      1  0.4393022184958  0.3023944756595  0.5146769064582 1.0
C      1  0.5662456058958  0.3379799982827  0.7746801209041 1.0
C      1  0.5187493743056  0.3275116089124  0.2355959784887 1.0
C      1  0.5252139581050  0.7893811863321  0.4780485131870 1.0
C      1  0.4358516474685  0.6776592666083  0.8145219371388 1.0
C      1  0.4804171242680  0.6661917673069  0.2444260550624 1.0
C      1  0.4622054457337  0.2229164146217  0.4718977900653 1.0
C      1  0.2478429485065  0.6671719997126  0.5327407143754 1.0
C      1  0.2579847831699  0.3758285685597  0.5709393557147 1.0
C      1  0.2286111924154  0.4999294645223  0.3710359122970 1.0
C      1  0.7910932688412  0.3151481477768  0.5482166847939 1.0
C      1  0.7586277519623  0.6261509578092  0.5746917694647 1.0
C      1  0.7626718932047  0.4874083741461  0.3801944053768 1.0
C      1  0.3048178793676  0.5030085213190  0.3105307173714 1.0
C      1  0.2991345008896  0.6832789855200  0.6123909194013 1.0
C      1  0.3271181302677  0.3877947994229  0.6422179097009 1.0
C      1  0.6892876733725  0.4877259054750  0.3160138253710 1.0
C      1  0.7229095373587  0.2703053632498  0.5657287499524 1.0
C      1  0.6951745465415  0.6285044200314  0.6512094456801 1.0
C      1  0.4800266635888  0.5403151384864  0.4662665495724 1.0
C      1  0.4201235434756  0.4643995417245  0.4584375877285 1.0
C      1  0.4035787817370  0.5477299229855  0.4157927134406 1.0
C      1  0.6466160737899  0.4352862916352  0.5738894172201 1.0
C      1  0.5691076979550  0.5629382663327  0.4862810805786 1.0
C      1  0.6165357258029  0.4919668364419  0.5221435606281 1.0
C      1  0.4188264659950  0.3698623707547  0.6636459506323 1.0
C      1  0.3694158772881  0.4517847944296  0.2638101200384 1.0
C      1  0.3751988477940  0.7389319914607  0.5859309451567 1.0
C      1  0.6038247165011  0.6501694085398  0.6736107511497 1.0
C      1  0.6236811653841  0.5439043460705  0.2744715509227 1.0
C      1  0.6322604069714  0.2492271606535  0.5536969301631 1.0
C      1  0.1829600567651  0.5046446811260  0.5242086823273 1.0
C      1  0.8186484681077  0.4868313785965  0.5283975756154 1.0
END
