TITL C-15713-8578-173 -3.928 3375.00 -670.06817492 0 0 83 (C1) n - 1
REM
REM Run started: at 2020.12.30 14:23:25 in /gpfs/home/chem/mssmkc/CARBON/AIRSS/Generating-Clusters/Str-Search/Higher-Symm/C4-100
REM VASP from code version vasp.5.4.4.18Apr17-6-g9f103f2a35 (build Oct 11 2019 16:45:47) gamma-only
REM
REM
REM
REM
REM ./C.cell (6bd13a13d554368a30d355f37ece5b26)
REM AIRSS Version 0.9.1 bugfix July 2018 build 013d7b7c2542+ Fri, 06 Jul 2018 19:26:36 +0100
REM compiler GCC version 6.3.0
REM options -cpp -iprefix /gpfs/warwick/csc/orac/software/Core/GCCcore/6.3.0/bin/../lib/gcc/x86_64-pc-linux-gnu/6.3.0/ -mtune=generic -march=x86-64 -g -O0
REM seed -1040721079 261003453 1511873585 -1125288807 -1955538278 1037130097 -1598522265 757769217 987882933 -356014892 -1774446539 -240647644
REM
REM C.POTCAR (d86ddea03c3ceb6dc662c8ad6801f873)
REM 
CELL 1.54180   15.00000   15.00000   15.00000   90.00000   90.00000   90.00000
LATT -1
SFAC C  
C      1  0.6251630988236  0.4018727952588  0.3029459121357 1.0
C      1  0.6376774499758  0.5759662817996  0.3102500498957 1.0
C      1  0.4223023549111  0.7189651782718  0.5234962705828 1.0
C      1  0.4293040578685  0.2605096225539  0.5263717229170 1.0
C      1  0.3129418045917  0.4263290142441  0.2922051676630 1.0
C      1  0.3214267241436  0.5763887770040  0.2865310879583 1.0
C      1  0.2492070740187  0.4117790378697  0.5776325639842 1.0
C      1  0.2390293847628  0.5746132560852  0.5861982072985 1.0
C      1  0.3600194190252  0.6876118352633  0.6690643920034 1.0
C      1  0.3683360922352  0.3005755592490  0.6687358683005 1.0
C      1  0.7680345343485  0.4352265315248  0.2901466354086 1.0
C      1  0.7879945288226  0.5281613682012  0.3050184095001 1.0
C      1  0.5331356088430  0.4013984390768  0.4705428818944 1.0
C      1  0.5472379357413  0.5833662395645  0.4780671808951 1.0
C      1  0.4368346061422  0.2737207009133  0.4322866746214 1.0
C      1  0.4434972418837  0.7108597901582  0.4306616566729 1.0
C      1  0.4779068087198  0.5371872616117  0.2038741316602 1.0
C      1  0.4677569094886  0.4461016384328  0.2034858443200 1.0
C      1  0.5851805779064  0.4219655049530  0.7447280072707 1.0
C      1  0.5791334744009  0.5843002144039  0.7576290010238 1.0
C      1  0.7079199309216  0.7072427214444  0.5790027519366 1.0
C      1  0.7194855842787  0.3628069591087  0.5121241842979 1.0
C      1  0.6188046611165  0.7288600151521  0.4344234738286 1.0
C      1  0.6122415020373  0.2651660187814  0.4303905326656 1.0
C      1  0.6553887314917  0.3926988985385  0.5895254561941 1.0
C      1  0.6524571577365  0.6514890621187  0.6243668982812 1.0
C      1  0.4602213278957  0.3754958734381  0.2709843548172 1.0
C      1  0.4776771011700  0.6086274555057  0.2702112721179 1.0
C      1  0.2669264279016  0.6538076138439  0.5435644737842 1.0
C      1  0.2830331411528  0.3345762955572  0.5354200136613 1.0
C      1  0.4330471904386  0.5424574731229  0.5834168460938 1.0
C      1  0.4308530759720  0.4512779710177  0.5816852002870 1.0
C      1  0.5437306932451  0.6694069843925  0.4108125298807 1.0
C      1  0.5293016059743  0.3131037583692  0.4053466200884 1.0
C      1  0.3779553252824  0.7068354793479  0.3662516862420 1.0
C      1  0.3622466585512  0.2959571945519  0.3838841227916 1.0
C      1  0.3472954182015  0.2817707038967  0.5762591866891 1.0
C      1  0.3390305540988  0.7020923053553  0.5753249804434 1.0
C      1  0.5374936597293  0.3553128598117  0.3145293784215 1.0
C      1  0.5524815695472  0.6256473088210  0.3198687350043 1.0
C      1  0.3411601680310  0.3823304823588  0.7137419058531 1.0
C      1  0.3358075936175  0.6045932923853  0.7152336139868 1.0
C      1  0.3864885004885  0.6454996392827  0.2976274454878 1.0
C      1  0.3676883387292  0.3512708991847  0.3083838208969 1.0
C      1  0.4533906045312  0.5476863783080  0.4842041885765 1.0
C      1  0.4454385951899  0.4449892714690  0.4820342062744 1.0
C      1  0.5598122292589  0.3613349314729  0.5648540751961 1.0
C      1  0.5638991788732  0.6326904207823  0.5750945989181 1.0
C      1  0.6845457575412  0.2952724192748  0.4564016802657 1.0
C      1  0.6729655245258  0.7292903011233  0.4981097602189 1.0
C      1  0.7208683912269  0.5868126151780  0.2805628268836 1.0
C      1  0.7028000343645  0.3826626179232  0.2562820122765 1.0
C      1  0.5033718448414  0.2768561156114  0.5837626081970 1.0
C      1  0.4933731984912  0.7054739114999  0.5858931308666 1.0
C      1  0.4921484293158  0.6269746225199  0.7313177108627 1.0
C      1  0.5004679609497  0.3702961233623  0.7246633064281 1.0
C      1  0.4655189771989  0.2922673194977  0.6741863480691 1.0
C      1  0.4557803561975  0.7023491560307  0.6778387808338 1.0
C      1  0.4899492000264  0.3926492229767  0.6275927612634 1.0
C      1  0.4901523797298  0.6007510567905  0.6322429874134 1.0
C      1  0.4190179149963  0.4132422905575  0.7634809636558 1.0
C      1  0.4133444839959  0.5776192514794  0.7662277756881 1.0
C      1  0.6569681056672  0.5931843377399  0.7054656354010 1.0
C      1  0.6602868827792  0.4309419728178  0.6865339828587 1.0
C      1  0.2802997798031  0.4425026004969  0.6669741902263 1.0
C      1  0.2759647761502  0.5414555018946  0.6699687722665 1.0
C      1  0.6699564360680  0.4556519535448  0.5132227804833 1.0
C      1  0.6432176657587  0.4829119591991  0.3630552568331 1.0
C      1  0.5492621049378  0.4992038774581  0.7880519839012 1.0
C      1  0.7100836639961  0.5141482312436  0.6898861462966 1.0
C      1  0.2294756186348  0.4949486462027  0.5268587919058 1.0
C      1  0.2539229988460  0.5039284807713  0.3150073334146 1.0
C      1  0.7506704156340  0.4739166015011  0.3825236661106 1.0
C      1  0.4500519655363  0.4955532667652  0.7948130321685 1.0
C      1  0.7855400661939  0.5154608523267  0.6326716856704 1.0
C      1  0.5978132107673  0.4843874565175  0.4529374027489 1.0
C      1  0.2949720010135  0.5073155407047  0.4565880328790 1.0
C      1  0.8101259585949  0.4977918822721  0.5559104222717 1.0
C      1  0.3640876592813  0.5002520112269  0.3225094761202 1.0
C      1  0.4731684692212  0.4916872963728  0.1198162121335 1.0
C      1  0.2195006516670  0.5073058676196  0.4127383192905 1.0
C      1  0.7646194756723  0.4509794721088  0.4821041372855 1.0
C      1  0.3860160282602  0.5023266535315  0.4250740680892 1.0
END
