TITL C-15713-8578-221 -1.632 3375.00 -259.42055605 0 0 33 (C2) n - 1
REM
REM Run started: at 2020.12.30 21:53:28 in /gpfs/home/chem/mssmkc/CARBON/AIRSS/Generating-Clusters/Str-Search/Higher-Symm/C4-100
REM VASP from code version vasp.5.4.4.18Apr17-6-g9f103f2a35 (build Oct 11 2019 16:45:47) gamma-only
REM
REM
REM
REM
REM ./C.cell (6bd13a13d554368a30d355f37ece5b26)
REM AIRSS Version 0.9.1 bugfix July 2018 build 013d7b7c2542+ Fri, 06 Jul 2018 19:26:36 +0100
REM compiler GCC version 6.3.0
REM options -cpp -iprefix /gpfs/warwick/csc/orac/software/Core/GCCcore/6.3.0/bin/../lib/gcc/x86_64-pc-linux-gnu/6.3.0/ -mtune=generic -march=x86-64 -g -O0
REM seed -1337538843 1778344224 -885018814 2133621290 1166954232 861736818 -1741595141 562403336 1235110248 -1694087604 -386207816 1601166033
REM
REM C.POTCAR (d86ddea03c3ceb6dc662c8ad6801f873)
REM 
CELL 1.54180   15.00000   15.00000   15.00000   90.00000   90.00000   90.00000
LATT -1
SFAC C  
C      1  0.3805810172596  0.3367422337513  0.5645201078149 1.0
C      1  0.3808964289054  0.6623170848604  0.4324374261207 1.0
C      1  0.6624646979955  0.6126918426651  0.5291383009278 1.0
C      1  0.6628720182820  0.3873293535578  0.4709896942181 1.0
C      1  0.6325020563289  0.6129470946763  0.4366063746626 1.0
C      1  0.6319443281550  0.3870545647569  0.5632133023316 1.0
C      1  0.3079194530283  0.6562127052991  0.4708466807249 1.0
C      1  0.3077058851333  0.3427203011129  0.5259272684961 1.0
C      1  0.5486898846036  0.3544323933735  0.5822658529600 1.0
C      1  0.5493683851692  0.6453214744986  0.4165179252598 1.0
C      1  0.5100947522824  0.5717979581041  0.6036864437799 1.0
C      1  0.5112362261089  0.4280052789630  0.3948321083303 1.0
C      1  0.5943175231865  0.5305512424192  0.6413755673322 1.0
C      1  0.5957530909198  0.4693919354506  0.3580808855561 1.0
C      1  0.4162512468411  0.4226666344567  0.3957353394242 1.0
C      1  0.4151547571015  0.5769437536899  0.6015544558792 1.0
C      1  0.6002319035175  0.6152991885204  0.5989737546265 1.0
C      1  0.6014067765852  0.3846343315072  0.4004477703768 1.0
C      1  0.4632319451666  0.5466665525943  0.5141502320686 1.0
C      1  0.4635212235012  0.4529484389498  0.4838655653445 1.0
C      1  0.4669099400158  0.3753437078430  0.5544706420576 1.0
C      1  0.4673036085442  0.6241173260702  0.4433402744634 1.0
C      1  0.7156745649666  0.4727587442462  0.4543448495434 1.0
C      1  0.7152350574591  0.5272949999874  0.5463681897859 1.0
C      1  0.6568962907073  0.4708012193998  0.6055734216888 1.0
C      1  0.6579004052211  0.5292146437257  0.3945465001681 1.0
C      1  0.2667109280881  0.6058597634941  0.5401644899042 1.0
C      1  0.2671739443334  0.3931081304452  0.4561682294208 1.0
C      1  0.3303543577626  0.5982696492857  0.6072257053146 1.0
C      1  0.3315824291105  0.4011113455996  0.3899688658345 1.0
C      1  0.2081455122055  0.5360484330523  0.5173463103048 1.0
C      1  0.2085539577977  0.4629351496960  0.4785108291542 1.0
C      1  0.7971725037167  0.4999707239479  0.5007741361245 1.0
END
