TITL C-15713-8578-79 -4.171 3375.00 -723.81917410 0 0 92 (C4h) n - 1
REM
REM Run started: at 2020.12.29 18:28:08 in /gpfs/home/chem/mssmkc/CARBON/AIRSS/Generating-Clusters/Str-Search/Higher-Symm/C4-100
REM VASP from code version vasp.5.4.4.18Apr17-6-g9f103f2a35 (build Oct 11 2019 16:45:47) gamma-only
REM
REM
REM
REM
REM ./C.cell (6bd13a13d554368a30d355f37ece5b26)
REM AIRSS Version 0.9.1 bugfix July 2018 build 013d7b7c2542+ Fri, 06 Jul 2018 19:26:36 +0100
REM compiler GCC version 6.3.0
REM options -cpp -iprefix /gpfs/warwick/csc/orac/software/Core/GCCcore/6.3.0/bin/../lib/gcc/x86_64-pc-linux-gnu/6.3.0/ -mtune=generic -march=x86-64 -g -O0
REM seed -1104718310 650171830 1460148663 1707948528 -420897075 1742922870 -505032385 548077775 1516181678 1298153596 -977286167 -443626115
REM
REM C.POTCAR (d86ddea03c3ceb6dc662c8ad6801f873)
REM 
CELL 1.54180   15.00000   15.00000   15.00000   90.00000   90.00000   90.00000
LATT -1
SFAC C  
C      1  0.7041386208146  0.2936868357130  0.3775855181012 1.0
C      1  0.7063210020653  0.7041364559307  0.3775900800860 1.0
C      1  0.2958627565564  0.7063140603004  0.3775853135986 1.0
C      1  0.2936827303528  0.2958621028964  0.3775859179996 1.0
C      1  0.7039768777681  0.2933681866395  0.6254826042050 1.0
C      1  0.7066265488505  0.7039756716257  0.6254801032145 1.0
C      1  0.2960217007204  0.7066313368915  0.6254821185371 1.0
C      1  0.2933664238662  0.2960228350071  0.6254783876872 1.0
C      1  0.6454308266891  0.4336761179816  0.2812757229111 1.0
C      1  0.5663318875347  0.6454318027480  0.2812725682491 1.0
C      1  0.3545751762687  0.5663263931990  0.2812760946774 1.0
C      1  0.4336757660285  0.3545781685675  0.2812704478853 1.0
C      1  0.6453724752884  0.4339506311857  0.7216793279951 1.0
C      1  0.5660420165203  0.6453788979897  0.7216788019532 1.0
C      1  0.3546258521135  0.5660443699148  0.7216802181859 1.0
C      1  0.4339562172283  0.3546205715934  0.7216766212641 1.0
C      1  0.6052277665721  0.7010827084175  0.5859766368705 1.0
C      1  0.2989175156374  0.6052402462649  0.5859816071237 1.0
C      1  0.3947676566659  0.2989144939534  0.5859751688606 1.0
C      1  0.7010831016885  0.3947609775885  0.5859814329063 1.0
C      1  0.6049772636735  0.7012981299372  0.4173602455631 1.0
C      1  0.2986992872947  0.6049727240568  0.4173634504617 1.0
C      1  0.3950258765509  0.2987015245045  0.4173593775448 1.0
C      1  0.7013023578639  0.3950271076437  0.4173616458089 1.0
C      1  0.3617083518437  0.2924928013761  0.3038363383256 1.0
C      1  0.7075157328327  0.3617165209257  0.3038364580030 1.0
C      1  0.6382934182878  0.7075080159963  0.3038374396804 1.0
C      1  0.2924894543032  0.6382867866608  0.3038330579199 1.0
C      1  0.3616616289152  0.2928612698138  0.6988616671438 1.0
C      1  0.7071369507738  0.3616640287721  0.6988647049574 1.0
C      1  0.6383327785959  0.7071357182204  0.6988644577830 1.0
C      1  0.2928593391612  0.6383338103828  0.6988620345983 1.0
C      1  0.4547710863390  0.2744391639066  0.6648865439502 1.0
C      1  0.7255600287176  0.4547710802353  0.6648861515524 1.0
C      1  0.5452241055317  0.7255583014443  0.6648881720505 1.0
C      1  0.2744359396439  0.5452263059996  0.6648821822161 1.0
C      1  0.4547569129341  0.2744288611333  0.3382435770339 1.0
C      1  0.7255751876868  0.4547552955856  0.3382500394181 1.0
C      1  0.5452474579034  0.7255702109753  0.3382423980913 1.0
C      1  0.2744289383925  0.5452473078759  0.3382488917813 1.0
C      1  0.3940807266321  0.6236474205582  0.5518604253933 1.0
C      1  0.3763512546398  0.3940821457289  0.5518582209163 1.0
C      1  0.6059195034367  0.3763532225915  0.5518577936070 1.0
C      1  0.6236465816813  0.6059161820164  0.5518582282614 1.0
C      1  0.3939990985878  0.6235176019552  0.4510745471790 1.0
C      1  0.3764840647734  0.3940014688971  0.4510702570835 1.0
C      1  0.6060017395773  0.3764828128242  0.4510726269889 1.0
C      1  0.6235172379707  0.6059978390770  0.4510720044709 1.0
C      1  0.6736398931979  0.7586666938061  0.4557538105204 1.0
C      1  0.2413335965715  0.6736411265566  0.4557441209007 1.0
C      1  0.3263614359178  0.2413336929455  0.4557476438508 1.0
C      1  0.7586684001238  0.3263610774781  0.4557439889121 1.0
C      1  0.6737187097160  0.7586482838619  0.5474525918416 1.0
C      1  0.2413518306099  0.6737219513720  0.5474528440041 1.0
C      1  0.3262764737179  0.2413513886644  0.5474562751320 1.0
C      1  0.7586471893271  0.3262797257625  0.5474571775277 1.0
C      1  0.7898098532988  0.5600322490420  0.4558131375059 1.0
C      1  0.4399724923600  0.7898030862423  0.4558023242451 1.0
C      1  0.2101904783531  0.4399671820903  0.4558054605167 1.0
C      1  0.5600301208551  0.2101955815389  0.4558049879592 1.0
C      1  0.7897878187933  0.5597609414161  0.5469046032303 1.0
C      1  0.4402378409460  0.7897890003483  0.5468971595519 1.0
C      1  0.2102109618783  0.4402390905788  0.5468978094295 1.0
C      1  0.5597609420481  0.2102106640955  0.5468941822495 1.0
C      1  0.2287845381056  0.4674291124412  0.6347796994628 1.0
C      1  0.5325718287230  0.2287852302898  0.6347742418479 1.0
C      1  0.7712111677124  0.5325730785476  0.6347818184815 1.0
C      1  0.4674275776949  0.7712157377903  0.6347810200155 1.0
C      1  0.2289185262572  0.4673058440330  0.3680613200745 1.0
C      1  0.5326920019870  0.2289228352957  0.3680528754576 1.0
C      1  0.7710859501913  0.5326938815912  0.3680625166452 1.0
C      1  0.4673058684987  0.7710781083385  0.3680602746598 1.0
C      1  0.7183586620484  0.6066455245077  0.4061484662576 1.0
C      1  0.3933606581989  0.7183581536456  0.4061466894339 1.0
C      1  0.2816421349142  0.3933569681391  0.4061451400732 1.0
C      1  0.6066469430522  0.2816468381321  0.4061446679280 1.0
C      1  0.7184764701459  0.6064633510033  0.5966893420976 1.0
C      1  0.3935288817780  0.7184761191092  0.5966862181799 1.0
C      1  0.2815234865001  0.3935343188365  0.5966859873765 1.0
C      1  0.6064690187454  0.2815248007458  0.5966846659745 1.0
C      1  0.4691070113896  0.4363700986033  0.2626567881837 1.0
C      1  0.5636317144392  0.4691097269190  0.2626582785299 1.0
C      1  0.5308939255034  0.5636277673644  0.2626519377724 1.0
C      1  0.4363716072923  0.5308954915156  0.2626566763935 1.0
C      1  0.4692275499792  0.4363207462058  0.7408942096896 1.0
C      1  0.5636720856020  0.4692258466288  0.7408956270201 1.0
C      1  0.5307683359738  0.5636729782551  0.7408981630075 1.0
C      1  0.4363208745692  0.5307707387812  0.7408933417837 1.0
C      1  0.5459549129862  0.4422716211859  0.5015647362924 1.0
C      1  0.5577272250221  0.5459519661407  0.5015622103415 1.0
C      1  0.4422724388178  0.4540463401805  0.5015622970681 1.0
C      1  0.4540453423832  0.5577285164710  0.5015662424790 1.0
END
