TITL C-159479-5093-6 -4.276 3375.00 -752.05767386 0 0 89 (C1) n - 1
REM
REM Run started: at 2020.12.04 17:54:05 in /rds/project/t2_vol4/rds-t2-cs072/BORA/CARBON/AIRSS/Generating-Clusters/Str-Search/Higher-Symm/C10-100
REM VASP from code version vasp.5.4.4.18Apr17-6-g9f103f2a35 (build Oct 11 2019 16:45:47) gamma-only
REM
REM
REM
REM
REM ./C.cell (f39ce9773e2efe3fa5bbdf770a4156b8)
REM AIRSS Version 0.9.1 bugfix July 2018 build 013d7b7c2542+ Fri, 06 Jul 2018 19:26:36 +0100
REM compiler GCC version 4.8.5 20150623 (Red Hat 4.8.5-39)
REM options -cpp -mtune=generic -march=x86-64 -g -O0
REM seed -1110973023 1626335388 296747354 -879482065 994288100 495516603 1825387938 -882480085 -280879619 1727537463 134694073 -1244976657
REM
REM C.POTCAR (d86ddea03c3ceb6dc662c8ad6801f873)
REM 
CELL 1.54180   15.00000   15.00000   15.00000   90.00000   90.00000   90.00000
LATT -1
SFAC C  
C      1  0.5501435510274  0.2361885957871  0.6851803018476 1.0
C      1  0.5620241970382  0.3385251785228  0.2445444559904 1.0
C      1  0.5441503252266  0.7477736780905  0.3416199698071 1.0
C      1  0.5529532616510  0.6700378675331  0.7611382450776 1.0
C      1  0.4538127748619  0.2384145866097  0.6824725691788 1.0
C      1  0.4680825833382  0.3385694508182  0.2406581175940 1.0
C      1  0.4495201213155  0.7542615689104  0.3386251337815 1.0
C      1  0.4590174965795  0.6653319893065  0.7588094227500 1.0
C      1  0.3293123240753  0.5599558852989  0.2610976013939 1.0
C      1  0.3442356610716  0.6971995569805  0.5498126892128 1.0
C      1  0.3494431194168  0.4540178438162  0.7165112337792 1.0
C      1  0.3564996244834  0.3030544123221  0.4571926637081 1.0
C      1  0.7022609299408  0.5644571449379  0.2903704177963 1.0
C      1  0.6922540195929  0.7186229107582  0.5657957270927 1.0
C      1  0.6535813783926  0.4508766151905  0.7145780565463 1.0
C      1  0.6585478737374  0.2700510529343  0.4624083305375 1.0
C      1  0.5798267104166  0.3104000463268  0.7421099836754 1.0
C      1  0.5866289062758  0.2714940219033  0.3128590722330 1.0
C      1  0.5758192946495  0.6820307601632  0.2799269563567 1.0
C      1  0.5824598265272  0.7283015843154  0.6889207771995 1.0
C      1  0.4236088589987  0.3122764015186  0.7399438778363 1.0
C      1  0.4345420648232  0.2848111509966  0.3143732924545 1.0
C      1  0.4198261019832  0.6947781478477  0.2701061569514 1.0
C      1  0.4277441129527  0.7210729256198  0.6861510664224 1.0
C      1  0.6484107629801  0.3592445997947  0.6961904055788 1.0
C      1  0.6586768446505  0.2893727960233  0.3690085077293 1.0
C      1  0.6570531041702  0.6431748996583  0.3166876486837 1.0
C      1  0.6635585437972  0.6872271060693  0.6508913743166 1.0
C      1  0.3520120563760  0.3573449632405  0.6985824134861 1.0
C      1  0.3759465281607  0.3341065931680  0.3683151739620 1.0
C      1  0.3421240426263  0.6459213280885  0.3012544765611 1.0
C      1  0.3535975463502  0.6821897674373  0.6415414393696 1.0
C      1  0.3908150479760  0.4323750244862  0.3398201366007 1.0
C      1  0.3249667738534  0.6757289765069  0.3939186482395 1.0
C      1  0.3380086744340  0.5971549412601  0.6910225115403 1.0
C      1  0.3407140760652  0.3188913905875  0.6117224355639 1.0
C      1  0.6881885548583  0.3793373918408  0.3606222420442 1.0
C      1  0.6724548802904  0.6902980473845  0.4053003609842 1.0
C      1  0.6740910426330  0.6032494679043  0.6939741696279 1.0
C      1  0.6651894927215  0.3153763990839  0.6107610883862 1.0
C      1  0.3924388406184  0.5252235358778  0.2027328016825 1.0
C      1  0.4091096808951  0.7528498545565  0.5056974563901 1.0
C      1  0.4196100935949  0.4975062265908  0.7773538641710 1.0
C      1  0.4184626542715  0.2390387832371  0.4954388296965 1.0
C      1  0.6787775114760  0.4756679004735  0.2451395263872 1.0
C      1  0.6490165810819  0.8038172162174  0.5580993489992 1.0
C      1  0.5887254525251  0.4971549903212  0.7710869770899 1.0
C      1  0.5860825882901  0.2231425062806  0.5014317954372 1.0
C      1  0.2512065878021  0.4257003151124  0.5301707879147 1.0
C      1  0.2327092937414  0.4827443430240  0.3710021726783 1.0
C      1  0.2521146811581  0.5646032046090  0.5111073779255 1.0
C      1  0.2712108004202  0.5047702745975  0.5901997761610 1.0
C      1  0.7170991020925  0.4337821792982  0.5015222911492 1.0
C      1  0.7643739140761  0.5136821592558  0.3461051304078 1.0
C      1  0.7433195525256  0.5741078587478  0.5039862784551 1.0
C      1  0.7219231435059  0.5083357887321  0.5711178749293 1.0
C      1  0.3920089655855  0.7442142885511  0.4123048703076 1.0
C      1  0.4046829877019  0.5889895072218  0.7643807106222 1.0
C      1  0.4125064136147  0.2546304307706  0.5930810651552 1.0
C      1  0.4340371555331  0.4334080780928  0.2373856657046 1.0
C      1  0.6008945695268  0.7539239846321  0.4159079929575 1.0
C      1  0.6068986489000  0.5909707251924  0.7611018054002 1.0
C      1  0.5895262194409  0.2515704123924  0.5965088476149 1.0
C      1  0.5962726171905  0.4319315835837  0.2258363136950 1.0
C      1  0.7022826245924  0.3346117344291  0.5278915744208 1.0
C      1  0.7426893793299  0.4306557370722  0.3029000498129 1.0
C      1  0.7118771007698  0.6627049270560  0.4890448432967 1.0
C      1  0.6974552367515  0.5171873623319  0.6590091007623 1.0
C      1  0.3052946675281  0.3484366066173  0.5292103775168 1.0
C      1  0.3054044391805  0.4901060648878  0.3231528317454 1.0
C      1  0.2952707018326  0.6429789863755  0.4824162741764 1.0
C      1  0.2732978135464  0.5199890427281  0.6908916562326 1.0
C      1  0.5038926090017  0.4518547894819  0.7904580054426 1.0
C      1  0.5030915773264  0.2195743721459  0.4505124532564 1.0
C      1  0.4800005880198  0.5656181410165  0.1963437750286 1.0
C      1  0.4912740452893  0.7815329742028  0.5472494604977 1.0
C      1  0.5014930978236  0.3114708079435  0.6115526048999 1.0
C      1  0.5191301020440  0.4820822744068  0.2167295673332 1.0
C      1  0.5760829114568  0.7921162108577  0.5010596903912 1.0
C      1  0.3615760121270  0.5136273732887  0.6325385463031 1.0
C      1  0.5026715793227  0.3574706712400  0.7763040922673 1.0
C      1  0.5023604915702  0.7592803058629  0.6406525859171 1.0
C      1  0.5062017747070  0.2367575877572  0.3563631920807 1.0
C      1  0.4972644998407  0.6508504280843  0.2315409357887 1.0
C      1  0.6401069165809  0.4296932296461  0.4342063794471 1.0
C      1  0.4704424219376  0.4558246422096  0.3958375796480 1.0
C      1  0.7645479417692  0.5094860917321  0.4390850463536 1.0
C      1  0.2257161705501  0.4849726356372  0.4609175871219 1.0
C      1  0.5481882512148  0.4435895865776  0.4249920774299 1.0
END
