TITL C-15509-9577-20 -3.921 3375.00 -672.30248021 0 0 84 (D2) n - 1
REM
REM Run started: at 2021.01.04 13:07:10 in /gpfs/home/chem/mssmkc/CARBON/AIRSS/Generating-Clusters/Str-Search/Higher-Symm/C4-100
REM VASP from code version vasp.5.4.4.18Apr17-6-g9f103f2a35 (build Oct 11 2019 16:45:47) gamma-only
REM
REM
REM
REM
REM ./C.cell (6bd13a13d554368a30d355f37ece5b26)
REM AIRSS Version 0.9.1 bugfix July 2018 build 013d7b7c2542+ Fri, 06 Jul 2018 19:26:36 +0100
REM compiler GCC version 6.3.0
REM options -cpp -iprefix /gpfs/warwick/csc/orac/software/Core/GCCcore/6.3.0/bin/../lib/gcc/x86_64-pc-linux-gnu/6.3.0/ -mtune=generic -march=x86-64 -g -O0
REM seed -1459609285 863022217 1574499365 -268060611 -263501336 401314029 190721303 2032106068 -1033858357 -2097349626 1524178831 142459365
REM
REM C.POTCAR (d86ddea03c3ceb6dc662c8ad6801f873)
REM 
CELL 1.54180   15.00000   15.00000   15.00000   90.00000   90.00000   90.00000
LATT -1
SFAC C  
C      1  0.4909008132648  0.2690196672278  0.6262199953145 1.0
C      1  0.5090993484531  0.2690196548022  0.3737799275418 1.0
C      1  0.5090999954383  0.7309817819907  0.6262195923240 1.0
C      1  0.4908990761964  0.7309827622636  0.3737812324253 1.0
C      1  0.5994747938933  0.2907701771998  0.3902280594339 1.0
C      1  0.4005252322839  0.2907699878264  0.6097720284160 1.0
C      1  0.4005237997627  0.7092297160335  0.3902285282491 1.0
C      1  0.5994752547948  0.7092299555356  0.6097715401096 1.0
C      1  0.7416036547848  0.3516347619825  0.5818813528104 1.0
C      1  0.2583957491883  0.3516341270875  0.4181191179590 1.0
C      1  0.2583993176782  0.6483659758135  0.5818847861073 1.0
C      1  0.7415982055629  0.6483651740694  0.4181144384994 1.0
C      1  0.4641407176536  0.2398026031013  0.4612118685947 1.0
C      1  0.5358592120991  0.2398026626861  0.5387878065043 1.0
C      1  0.5358567301465  0.7602006467302  0.4612137059156 1.0
C      1  0.4641413975097  0.7601978685339  0.5387880790494 1.0
C      1  0.3498252481789  0.3565535765668  0.6576241790295 1.0
C      1  0.6501755699902  0.3565533058650  0.3423759453676 1.0
C      1  0.6501750258036  0.6434457303561  0.6576223669557 1.0
C      1  0.3498250314221  0.6434448440238  0.3423774171021 1.0
C      1  0.4684508670593  0.5341974343658  0.7782717282618 1.0
C      1  0.5315509302969  0.5341977032935  0.2217287001021 1.0
C      1  0.5315482977167  0.4658036398055  0.7782725589134 1.0
C      1  0.4684535452296  0.4658036188624  0.2217275292985 1.0
C      1  0.7388110063759  0.6090697520898  0.5067504575848 1.0
C      1  0.2611881779501  0.6090697684239  0.4932487786619 1.0
C      1  0.2611866710311  0.3909280193150  0.5067557343590 1.0
C      1  0.7388131695757  0.3909281336344  0.4932444401838 1.0
C      1  0.4094589205830  0.3094747531921  0.5117092188913 1.0
C      1  0.5905410592560  0.3094750091501  0.4882908139139 1.0
C      1  0.5905411853797  0.6905261904389  0.5117088688985 1.0
C      1  0.4094581542785  0.6905252266587  0.4882912208280 1.0
C      1  0.2889301822924  0.5988829419234  0.4078692185840 1.0
C      1  0.7110698434927  0.5988836518644  0.5921304340320 1.0
C      1  0.7110696632116  0.4011165750584  0.4078652468622 1.0
C      1  0.2889307049549  0.4011166663376  0.5921349443628 1.0
C      1  0.6064817648812  0.4003650601626  0.2683054786537 1.0
C      1  0.3935197233689  0.4003657740067  0.7316940396755 1.0
C      1  0.3935208607932  0.5996324197319  0.2683073927207 1.0
C      1  0.6064800901087  0.5996333041731  0.7316926127693 1.0
C      1  0.3808857928580  0.5045876984800  0.2472695944061 1.0
C      1  0.6191165584803  0.5045881712993  0.7527300345489 1.0
C      1  0.6191197265606  0.4954107429941  0.2472685897917 1.0
C      1  0.3808824879697  0.4954113116706  0.7527306867651 1.0
C      1  0.7085151560110  0.2661897536045  0.5768035919729 1.0
C      1  0.2914844853947  0.2661896712866  0.4231968663675 1.0
C      1  0.2914871097072  0.7338115820278  0.5768065187158 1.0
C      1  0.7085121763635  0.7338112232027  0.4231924588405 1.0
C      1  0.4852972142217  0.5546622630886  0.5703093463443 1.0
C      1  0.5147016904178  0.5546624607286  0.4296917229701 1.0
C      1  0.5147037241258  0.4453383139899  0.5703084856234 1.0
C      1  0.4852955244072  0.4453386127885  0.4296919151961 1.0
C      1  0.5803425254219  0.6047576562394  0.3648528507283 1.0
C      1  0.4196558282035  0.6047590683708  0.6351458366244 1.0
C      1  0.4196515637634  0.3952400353968  0.3648564231319 1.0
C      1  0.5803471554555  0.3952407838640  0.6351432085803 1.0
C      1  0.3109353191064  0.4580360119849  0.2854609521968 1.0
C      1  0.6890659863454  0.4580373255236  0.7145383120066 1.0
C      1  0.6890711296045  0.5419587446541  0.2854601925836 1.0
C      1  0.3109312246696  0.5419606769061  0.7145395092106 1.0
C      1  0.6344861698722  0.7658195580216  0.4554978995748 1.0
C      1  0.3655127507917  0.7658196536521  0.5445027424509 1.0
C      1  0.3655127245842  0.2341815396075  0.4554981053609 1.0
C      1  0.6344877486906  0.2341818958599  0.5445015423767 1.0
C      1  0.5720212120706  0.5884184582946  0.5093014945379 1.0
C      1  0.4279780103869  0.5884183447527  0.4906986214933 1.0
C      1  0.4279786776973  0.4115821090587  0.5093033198299 1.0
C      1  0.5720209296452  0.4115823914174  0.4906963663667 1.0
C      1  0.5336212589351  0.6728032259172  0.3126100339573 1.0
C      1  0.4663784873805  0.6728023704890  0.6873912349311 1.0
C      1  0.4663796640690  0.3272011513477  0.3126093598627 1.0
C      1  0.5336210960800  0.3272007225644  0.6873902318446 1.0
C      1  0.4874261935567  0.3811580272010  0.7498874922929 1.0
C      1  0.5125753106624  0.3811581190079  0.2501127207205 1.0
C      1  0.5125734340000  0.6188428941697  0.7498858783383 1.0
C      1  0.4874276589455  0.6188428603576  0.2501151987491 1.0
C      1  0.3381792081625  0.4542966466147  0.5178815154278 1.0
C      1  0.6618204723773  0.4542967852983  0.4821183876935 1.0
C      1  0.6618203853161  0.5457025862261  0.5178791621629 1.0
C      1  0.3381789459972  0.5457024880413  0.4821209150828 1.0
C      1  0.3183835427328  0.5956715897755  0.6439448884572 1.0
C      1  0.6816153750899  0.5956701342766  0.3560544511397 1.0
C      1  0.6816180437146  0.4043274041389  0.6439418022125 1.0
C      1  0.3183813282130  0.4043263136253  0.3560581532646 1.0
END
