TITL C-15509-9577-63 -1.426 3375.00 -223.53267228 0 0 28 (C1) n - 1
REM
REM Run started: at 2021.01.04 21:04:10 in /gpfs/home/chem/mssmkc/CARBON/AIRSS/Generating-Clusters/Str-Search/Higher-Symm/C4-100
REM VASP from code version vasp.5.4.4.18Apr17-6-g9f103f2a35 (build Oct 11 2019 16:45:47) gamma-only
REM
REM
REM
REM
REM ./C.cell (6bd13a13d554368a30d355f37ece5b26)
REM AIRSS Version 0.9.1 bugfix July 2018 build 013d7b7c2542+ Fri, 06 Jul 2018 19:26:36 +0100
REM compiler GCC version 6.3.0
REM options -cpp -iprefix /gpfs/warwick/csc/orac/software/Core/GCCcore/6.3.0/bin/../lib/gcc/x86_64-pc-linux-gnu/6.3.0/ -mtune=generic -march=x86-64 -g -O0
REM seed -423754260 1727371130 1078051082 -823025439 561171165 -341214151 -2030410662 -320668704 -1135700342 -1817097122 -58159647 -776612396
REM
REM C.POTCAR (d86ddea03c3ceb6dc662c8ad6801f873)
REM 
CELL 1.54180   15.00000   15.00000   15.00000   90.00000   90.00000   90.00000
LATT -1
SFAC C  
C      1  0.5033010663603  0.3632696578601  0.3445362010134 1.0
C      1  0.4596361408912  0.5293696519056  0.3259829943289 1.0
C      1  0.5658478689373  0.3173087738716  0.5132590858952 1.0
C      1  0.5624804339462  0.7034314199117  0.5620907855162 1.0
C      1  0.2794033356427  0.5015623976589  0.5183112320323 1.0
C      1  0.2819568111100  0.5780205334196  0.5545302495965 1.0
C      1  0.6345029890478  0.4540078434364  0.3894534026506 1.0
C      1  0.6096852596992  0.5489523859217  0.3830562003485 1.0
C      1  0.4996780453519  0.5795447046918  0.6341775445896 1.0
C      1  0.4908524016605  0.4284062811341  0.5934880605040 1.0
C      1  0.4840819191967  0.3572096365439  0.5308091147378 1.0
C      1  0.4907817287665  0.6741040417455  0.6126120755004 1.0
C      1  0.4207049433100  0.3930957083586  0.3818764744349 1.0
C      1  0.3904844732479  0.4779236595766  0.3452883488972 1.0
C      1  0.6277623756486  0.5892997227189  0.4692488831529 1.0
C      1  0.6564550904640  0.4344099993283  0.4808116855452 1.0
C      1  0.6113245925434  0.6733224369311  0.5017554032785 1.0
C      1  0.6443003587236  0.3473599730696  0.5154897551108 1.0
C      1  0.4070697851953  0.5505333494325  0.6367559309695 1.0
C      1  0.4035694945876  0.4641748841914  0.6036591736458 1.0
C      1  0.3483939079326  0.4385747938157  0.5281418888481 1.0
C      1  0.3474969421706  0.6215493271949  0.6066919025168 1.0
C      1  0.3985029974328  0.7007678305768  0.5974336515860 1.0
C      1  0.4031927435399  0.3772822630788  0.4749777934684 1.0
C      1  0.5315944840930  0.5755696856505  0.3393717172127 1.0
C      1  0.5813292660295  0.3919032314658  0.3445352937522 1.0
C      1  0.5546183445217  0.5059051988654  0.5980877774013 1.0
C      1  0.6257101999491  0.5118869076444  0.5320807734666 1.0
END
