TITL C-15509-9577-45 -1.722 3375.00 -295.67234756 0 0 36 (C1) n - 1
REM
REM Run started: at 2021.01.04 17:23:30 in /gpfs/home/chem/mssmkc/CARBON/AIRSS/Generating-Clusters/Str-Search/Higher-Symm/C4-100
REM VASP from code version vasp.5.4.4.18Apr17-6-g9f103f2a35 (build Oct 11 2019 16:45:47) gamma-only
REM
REM
REM
REM
REM ./C.cell (6bd13a13d554368a30d355f37ece5b26)
REM AIRSS Version 0.9.1 bugfix July 2018 build 013d7b7c2542+ Fri, 06 Jul 2018 19:26:36 +0100
REM compiler GCC version 6.3.0
REM options -cpp -iprefix /gpfs/warwick/csc/orac/software/Core/GCCcore/6.3.0/bin/../lib/gcc/x86_64-pc-linux-gnu/6.3.0/ -mtune=generic -march=x86-64 -g -O0
REM seed -231378472 408519659 -998313975 -1193807129 61958507 -420258997 1597135084 -580633085 -1894139665 -1682884672 681458051 2140850615
REM
REM C.POTCAR (d86ddea03c3ceb6dc662c8ad6801f873)
REM 
CELL 1.54180   15.00000   15.00000   15.00000   90.00000   90.00000   90.00000
LATT -1
SFAC C  
C      1  0.5074517134470  0.3238636107236  0.4154245219938 1.0
C      1  0.3469277013274  0.4592707933571  0.4219411932617 1.0
C      1  0.3273312554016  0.5551397628614  0.4377840188423 1.0
C      1  0.4021201363845  0.6194721221419  0.4224229519420 1.0
C      1  0.6110250073328  0.6353881745636  0.4125041574861 1.0
C      1  0.6601367526896  0.5480359461586  0.4189341416859 1.0
C      1  0.6023025619180  0.3530896926653  0.4126225584252 1.0
C      1  0.3862840552050  0.4848496758531  0.6355834500258 1.0
C      1  0.4164274935864  0.5772874657110  0.6365942589698 1.0
C      1  0.5071152855709  0.6087141080990  0.6280947525084 1.0
C      1  0.5873939588743  0.5570445388645  0.6333989978669 1.0
C      1  0.6017909512103  0.4622460742225  0.6324574007860 1.0
C      1  0.5358356843062  0.3929858945633  0.6287527747490 1.0
C      1  0.4398147875559  0.4058405754403  0.6254560360431 1.0
C      1  0.5768223637160  0.4216657578269  0.3452321822250 1.0
C      1  0.4823959453710  0.3886731854276  0.3505029784756 1.0
C      1  0.4067544596111  0.4462211313927  0.3492773298121 1.0
C      1  0.4133045935858  0.5267260523580  0.2958260990897 1.0
C      1  0.4571625754928  0.5944623131129  0.3484148287731 1.0
C      1  0.5530601954199  0.5945983049875  0.3468637832395 1.0
C      1  0.6052322945127  0.5100378043621  0.3412286828365 1.0
C      1  0.5105100021128  0.6688560015872  0.5485241898243 1.0
C      1  0.6424049215128  0.5922745662391  0.5580689705818 1.0
C      1  0.6589206691036  0.4455448865552  0.5470186907929 1.0
C      1  0.5585245541598  0.3294587175593  0.5596725790598 1.0
C      1  0.4061932711162  0.3569641835116  0.5466373535576 1.0
C      1  0.3117508984584  0.4779442137280  0.5718932721462 1.0
C      1  0.3625864307618  0.6257581287449  0.5715690263629 1.0
C      1  0.4223380436258  0.6631833662891  0.5072040408481 1.0
C      1  0.5920633204158  0.6597808569872  0.5038994889005 1.0
C      1  0.7077912763356  0.5293090745775  0.5116160276881 1.0
C      1  0.6296743070803  0.3614187353069  0.5029379275714 1.0
C      1  0.4791343030168  0.3132042787415  0.5057093620894 1.0
C      1  0.3380268542761  0.4118502834626  0.5067568608852 1.0
C      1  0.3035114401424  0.5624998765590  0.5289807926694 1.0
C      1  0.6072471353624  0.5163217454584  0.4972349179847 1.0
END
