TITL C-15713-8578-42 -1.856 3375.00 -292.17355306 0 0 36 (D6h) n - 1
REM
REM Run started: at 2020.12.29 12:02:50 in /gpfs/home/chem/mssmkc/CARBON/AIRSS/Generating-Clusters/Str-Search/Higher-Symm/C4-100
REM VASP from code version vasp.5.4.4.18Apr17-6-g9f103f2a35 (build Oct 11 2019 16:45:47) gamma-only
REM
REM
REM
REM
REM ./C.cell (6bd13a13d554368a30d355f37ece5b26)
REM AIRSS Version 0.9.1 bugfix July 2018 build 013d7b7c2542+ Fri, 06 Jul 2018 19:26:36 +0100
REM compiler GCC version 6.3.0
REM options -cpp -iprefix /gpfs/warwick/csc/orac/software/Core/GCCcore/6.3.0/bin/../lib/gcc/x86_64-pc-linux-gnu/6.3.0/ -mtune=generic -march=x86-64 -g -O0
REM seed -1438389130 1014953800 732130076 -1924969695 327762893 -822139056 2092313919 1670908130 1720388160 -1813240798 -1828704143 1154780826
REM
REM C.POTCAR (d86ddea03c3ceb6dc662c8ad6801f873)
REM 
CELL 1.54180   15.00000   15.00000   15.00000   90.00000   90.00000   90.00000
LATT -1
SFAC C  
C      1  0.3389438061335  0.4044033621218  0.5003113067071 1.0
C      1  0.3391454692451  0.4518943466741  0.4173973794959 1.0
C      1  0.3390138869877  0.5474740523785  0.4171231539147 1.0
C      1  0.3389437711509  0.5955966384849  0.4996887793759 1.0
C      1  0.3391454381080  0.5481056577946  0.5826027110889 1.0
C      1  0.3390138840973  0.4525259432975  0.5828769376516 1.0
C      1  0.6610562412052  0.5955966589412  0.5003113070995 1.0
C      1  0.6608545890929  0.5481056967938  0.4173973614842 1.0
C      1  0.6609861310820  0.4525259768022  0.4171230125194 1.0
C      1  0.6610562160977  0.4044033403366  0.4996886098444 1.0
C      1  0.6608545568437  0.4518943065872  0.5826025495217 1.0
C      1  0.6609861254595  0.5474740156301  0.5828768971638 1.0
C      1  0.6177673312719  0.5914445364156  0.3434346438658 1.0
C      1  0.6179856901723  0.6813215936390  0.5006804235658 1.0
C      1  0.6176494232110  0.5900851642576  0.6569738675561 1.0
C      1  0.6177673533362  0.4085554801629  0.6565653320666 1.0
C      1  0.6179856722365  0.3186784048587  0.4993195907137 1.0
C      1  0.6176493914558  0.4099148292888  0.3430260829546 1.0
C      1  0.3822326973443  0.4085555222342  0.3434346257589 1.0
C      1  0.3820142904059  0.3186784049220  0.5006802656180 1.0
C      1  0.3823505646067  0.4099147692310  0.6569739062340 1.0
C      1  0.3822327186254  0.5914444997373  0.6565653968874 1.0
C      1  0.3820142733896  0.6813215874350  0.4993197220369 1.0
C      1  0.3823505334982  0.5900852245901  0.3430261425248 1.0
C      1  0.5455197558381  0.2798841993249  0.4997540137147 1.0
C      1  0.5456685517799  0.3897397943234  0.3089381146839 1.0
C      1  0.5453791965720  0.6105433278911  0.3094887029423 1.0
C      1  0.5455197506560  0.7201157420203  0.5002458466963 1.0
C      1  0.5456685348683  0.6102602378158  0.6910617108756 1.0
C      1  0.5453791770686  0.3894566862171  0.6905111655281 1.0
C      1  0.4544802113933  0.7201157499784  0.4997543805103 1.0
C      1  0.4543314737154  0.6102602573319  0.3089383794498 1.0
C      1  0.4546208207958  0.3894567150401  0.3094886997711 1.0
C      1  0.4544802183350  0.2798842078739  0.5002457677061 1.0
C      1  0.4543314499561  0.3897397538203  0.6910617936592 1.0
C      1  0.4546208039642  0.6105433157480  0.6905114188131 1.0
END
