TITL C-154822-2977-2 -7.708 3375.00 -1336.52016250 0 0 162 (C1) n - 1
REM
REM Run started: at 2021.01.02 15:03:20 in /rds/project/t2_vol4/rds-t2-cs072/BORA/CARBON/AIRSS/Generating-Clusters/Str-Search/Higher-Symm/C100-200
REM VASP from code version vasp.5.4.4.18Apr17-6-g9f103f2a35 (build Oct 11 2019 16:45:47) gamma-only
REM
REM
REM
REM
REM ./C.cell (533062f00bc710175b3da973d35f2034)
REM AIRSS Version 0.9.1 bugfix July 2018 build 013d7b7c2542+ Fri, 06 Jul 2018 19:26:36 +0100
REM compiler GCC version 4.8.5 20150623 (Red Hat 4.8.5-39)
REM options -cpp -mtune=generic -march=x86-64 -g -O0
REM seed -362617980 -314781236 1984849083 1549849798 -1098535154 209879231 85791839 -713823865 -1234784762 1540402735 -1941551463 -1184797693
REM
REM C.POTCAR (d86ddea03c3ceb6dc662c8ad6801f873)
REM 
CELL 1.54180   15.00000   15.00000   15.00000   90.00000   90.00000   90.00000
LATT -1
SFAC C  
C      1  0.3961891696246  0.1324534565875  0.5631575024473 1.0
C      1  0.8028684616865  0.2809355443461  0.5349270985014 1.0
C      1  0.7837613122732  0.6946257198260  0.5306391680242 1.0
C      1  0.3798757460034  0.8694286362864  0.5539221897897 1.0
C      1  0.0983907222332  0.4690969596911  0.5573278225721 1.0
C      1  0.6151074343533  0.1369161499843  0.4501479632373 1.0
C      1  0.2113819513243  0.2697377847811  0.4529131450012 1.0
C      1  0.2086549945844  0.6960024129224  0.4665901807865 1.0
C      1  0.6095534576925  0.8563720472077  0.4355201835499 1.0
C      1  0.8914788069572  0.4862915449132  0.4249967769264 1.0
C      1  0.4344624629907  0.4491464419669  0.5856084809775 1.0
C      1  0.5296590840423  0.4418752063215  0.5827513361500 1.0
C      1  0.5674761660106  0.5281242867729  0.5676666170975 1.0
C      1  0.4959006112561  0.5867691890510  0.5634761411425 1.0
C      1  0.4145522638170  0.5399772269621  0.5749237052456 1.0
C      1  0.5352339834367  0.4436385204583  0.4356745432249 1.0
C      1  0.4437456861065  0.4431377651269  0.4263185333997 1.0
C      1  0.4154116503418  0.5338603564105  0.4174538098929 1.0
C      1  0.4902421419331  0.5857365425308  0.3996930546131 1.0
C      1  0.5711928437739  0.5247726198692  0.3929973914645 1.0
C      1  0.1693512345434  0.3230326250078  0.5209972984307 1.0
C      1  0.5535140049066  0.1287573823305  0.5256927923670 1.0
C      1  0.8675961101795  0.4231178874327  0.4942049149113 1.0
C      1  0.6680455071130  0.8102153392669  0.4946685308116 1.0
C      1  0.2621519863327  0.7553240869715  0.5230538507379 1.0
C      1  0.8314249332720  0.3376440608704  0.4605062760834 1.0
C      1  0.4613781131194  0.1260181151931  0.4912245725531 1.0
C      1  0.1352474379992  0.4100117634627  0.4889644084062 1.0
C      1  0.3240847144335  0.8276734883682  0.4853243912233 1.0
C      1  0.7404375615735  0.7482895734214  0.4669727140529 1.0
C      1  0.3421861805698  0.3169034418145  0.7666670846852 1.0
C      1  0.6644510903107  0.2869429646113  0.7734571350474 1.0
C      1  0.6962349052845  0.5848503642128  0.7970370450801 1.0
C      1  0.5256167165231  0.7360771616886  0.7425332510960 1.0
C      1  0.2276230893578  0.5467922225784  0.7966755713043 1.0
C      1  0.6459898505522  0.3274941865995  0.2360174543497 1.0
C      1  0.3664091622699  0.3579567086654  0.2152992354413 1.0
C      1  0.3027432067385  0.6161509442011  0.1992370042588 1.0
C      1  0.5444040811674  0.7792552131182  0.2429923919857 1.0
C      1  0.7381964408111  0.5762782881727  0.2126924151852 1.0
C      1  0.8138824419408  0.5577480651507  0.2637839296267 1.0
C      1  0.5200577243837  0.8542741352583  0.3054849424485 1.0
C      1  0.2527937578188  0.6821821868873  0.2155240376541 1.0
C      1  0.2882026128290  0.3303435180145  0.2269196358161 1.0
C      1  0.6534025970178  0.2447115163713  0.2827719484792 1.0
C      1  0.1722792484033  0.5270118059141  0.7279207097502 1.0
C      1  0.4878694715355  0.8135098918951  0.7027364908427 1.0
C      1  0.7405959181834  0.6553349718608  0.7786715644152 1.0
C      1  0.7443466360414  0.3047641225221  0.7611803556612 1.0
C      1  0.3519771233607  0.2392007740398  0.7190221027071 1.0
C      1  0.6863946518966  0.2013872959299  0.4481581595421 1.0
C      1  0.8609706012088  0.5779940716484  0.4263197692838 1.0
C      1  0.5166051741040  0.8724815387106  0.4632761365230 1.0
C      1  0.1613132104081  0.6105259804128  0.4912904154640 1.0
C      1  0.2870434694372  0.2118772077660  0.4752288799113 1.0
C      1  0.3196538715669  0.1909102931100  0.5587073755311 1.0
C      1  0.1366899320235  0.5613439996410  0.5687914801305 1.0
C      1  0.4789661648689  0.8738295439235  0.5478352943376 1.0
C      1  0.8373884644895  0.6162927043809  0.5082096264512 1.0
C      1  0.7201879491598  0.2281190083094  0.5295045083217 1.0
C      1  0.4918615608180  0.3737535066368  0.8430901730842 1.0
C      1  0.6577577166353  0.5141809281107  0.7535331963160 1.0
C      1  0.5332579696944  0.6469252431621  0.7486622008604 1.0
C      1  0.3126801990524  0.5348719993794  0.8170209375445 1.0
C      1  0.3868928717502  0.3810349156584  0.8219636564291 1.0
C      1  0.4511709745927  0.3710695910138  0.2548714080514 1.0
C      1  0.3451980557390  0.5426944311769  0.2342898296661 1.0
C      1  0.4875920948848  0.7024931715529  0.2330353477026 1.0
C      1  0.6714011008987  0.5322006841425  0.1630570125894 1.0
C      1  0.6414358232958  0.3670684529770  0.1510706965318 1.0
C      1  0.2318173681045  0.6819449181972  0.3728494129683 1.0
C      1  0.2031994584331  0.2807596720016  0.3603946128932 1.0
C      1  0.5945418796131  0.1079852580983  0.3638802759023 1.0
C      1  0.9039450128650  0.4403549578665  0.3419426480333 1.0
C      1  0.6084929324608  0.8572333803137  0.3395845718525 1.0
C      1  0.7439360590767  0.6749360649780  0.6206481049509 1.0
C      1  0.8303513064498  0.2911788331165  0.6207007854640 1.0
C      1  0.4243685774324  0.1065602276563  0.6486218362145 1.0
C      1  0.0715945959281  0.4244486594035  0.6338224422927 1.0
C      1  0.3452463855152  0.8642581909532  0.6391621080545 1.0
C      1  0.5839311093420  0.4838174442268  0.2946978390381 1.0
C      1  0.6001689880890  0.5687837213975  0.2323990883642 1.0
C      1  0.5068823566314  0.6080219085995  0.2207194001086 1.0
C      1  0.4440485750698  0.5349929221470  0.2297738561304 1.0
C      1  0.4924896891602  0.4552387839512  0.2565196906922 1.0
C      1  0.3508761182471  0.4581108626279  0.7652047063943 1.0
C      1  0.3953819649692  0.5553100416525  0.7585451415665 1.0
C      1  0.4983528194402  0.5582765047265  0.7668648599744 1.0
C      1  0.5618490004980  0.4864319324421  0.7597661144305 1.0
C      1  0.5413478204115  0.3881459936058  0.7665938274798 1.0
C      1  0.7087209872820  0.6070294983770  0.3720236277295 1.0
C      1  0.4642127478753  0.7438561275345  0.3798470058998 1.0
C      1  0.2550298313376  0.5823601764680  0.3743547095191 1.0
C      1  0.3856011754419  0.2994518870680  0.3896976494879 1.0
C      1  0.6447766843087  0.3477522842606  0.3924846799187 1.0
C      1  0.2781886241697  0.6141990845398  0.6218300883906 1.0
C      1  0.5624058492645  0.7181625136825  0.5859899743711 1.0
C      1  0.7290244229268  0.5722858690989  0.6092345563261 1.0
C      1  0.6198595515012  0.3122893519711  0.6262691890292 1.0
C      1  0.3126756946014  0.3497660152983  0.6134483644878 1.0
C      1  0.6751499614009  0.6244207311246  0.2742618990133 1.0
C      1  0.4153759186410  0.7271703984798  0.2965416201855 1.0
C      1  0.2792458117157  0.5107189395576  0.3057289088648 1.0
C      1  0.4561045423235  0.2965790937250  0.3211666531433 1.0
C      1  0.6556014956046  0.4025042907064  0.3063387967783 1.0
C      1  0.3517360969647  0.6264187142662  0.6959377077036 1.0
C      1  0.5871694479569  0.6920871541182  0.6778338670239 1.0
C      1  0.7182083320339  0.4956468094157  0.6773672690758 1.0
C      1  0.5806838518177  0.3037640157671  0.7194553354400 1.0
C      1  0.2987367257295  0.3878271124128  0.7089790355112 1.0
C      1  0.5948235708084  0.3721258844330  0.4640471639597 1.0
C      1  0.6553270141508  0.5612411875276  0.4395484800797 1.0
C      1  0.4957083359247  0.6784777065835  0.4323784120415 1.0
C      1  0.3281130638540  0.5681136267778  0.4489891698715 1.0
C      1  0.3866935925163  0.3693856891787  0.4542606276830 1.0
C      1  0.3720107595702  0.3813977402331  0.5480689093987 1.0
C      1  0.3280712696950  0.5720549410113  0.5412572469349 1.0
C      1  0.5127151501425  0.6748365596239  0.5267474765708 1.0
C      1  0.6563388317995  0.5543473451112  0.5333022023928 1.0
C      1  0.5858454868846  0.3650349271535  0.5602582566758 1.0
C      1  0.2528631919703  0.7318063224921  0.2943500935820 1.0
C      1  0.2294998011332  0.3441853316532  0.3007168776899 1.0
C      1  0.5828541494599  0.1824269573070  0.3061836868768 1.0
C      1  0.8289268645366  0.4655689424675  0.2893629184125 1.0
C      1  0.6380122847570  0.7891228252713  0.2747253379098 1.0
C      1  0.7543526358386  0.7148944124329  0.7124129281389 1.0
C      1  0.7954942068450  0.3392811866215  0.6889102827546 1.0
C      1  0.4343165652781  0.1881477873051  0.7002282333183 1.0
C      1  0.1325648494502  0.4377704049896  0.7047668345751 1.0
C      1  0.3924126201057  0.8077166188007  0.6957868056638 1.0
C      1  0.4948864854434  0.2131893488289  0.3321235095255 1.0
C      1  0.7600496511519  0.4043147517003  0.3132757078661 1.0
C      1  0.6919983694933  0.7207080426117  0.2941680087585 1.0
C      1  0.3360541405140  0.7735675922655  0.3182491874000 1.0
C      1  0.2298157570840  0.4361989722873  0.3342886189525 1.0
C      1  0.5224583940169  0.2184106750124  0.6861052387682 1.0
C      1  0.1997517660529  0.3748644140167  0.6943117223532 1.0
C      1  0.3471859812398  0.7210852316443  0.6827839861226 1.0
C      1  0.6739648498010  0.7382713149426  0.6596139914748 1.0
C      1  0.7785949520491  0.4297901946164  0.6536127944454 1.0
C      1  0.3585765039939  0.8283623940927  0.3978274723271 1.0
C      1  0.1710144547890  0.4570620526455  0.4124526281833 1.0
C      1  0.4394008384038  0.1642589729689  0.4051863531634 1.0
C      1  0.7812142376397  0.3319140088549  0.3781012855857 1.0
C      1  0.7481437934534  0.7032529877571  0.3743979831835 1.0
C      1  0.6253640003443  0.7980074796501  0.5883928903690 1.0
C      1  0.8338612792664  0.4603720088350  0.5761806391883 1.0
C      1  0.5762384467474  0.1751523476272  0.6093478007379 1.0
C      1  0.2128313856255  0.3144314185573  0.6135573853314 1.0
C      1  0.2840951848894  0.7159740867239  0.6073153875688 1.0
C      1  0.1880394183461  0.5749024496309  0.6457004846544 1.0
C      1  0.2937099191062  0.2474355103916  0.6341971344861 1.0
C      1  0.6567207916560  0.2253150448248  0.6006380250837 1.0
C      1  0.8180827943048  0.5506037142975  0.5715735104224 1.0
C      1  0.5347016348814  0.8469439950272  0.6226902903583 1.0
C      1  0.8105456184396  0.6135401021103  0.3509030904923 1.0
C      1  0.7016229580798  0.2653367085470  0.3729541648323 1.0
C      1  0.3562701573589  0.2108324640206  0.4086596272600 1.0
C      1  0.1752266905769  0.5493661876832  0.4213481017892 1.0
C      1  0.4589923858547  0.8461475899298  0.3875062033549 1.0
C      1  0.6658367999412  0.4453660070010  0.1312412577561 1.0
C      1  0.4349246785623  0.3772382025287  0.9090099092423 1.0
END
