TITL C-15509-9577-29 -1.991 3375.00 -338.08600380 0 0 40 (D5d) n - 1
REM
REM Run started: at 2021.01.04 14:08:32 in /gpfs/home/chem/mssmkc/CARBON/AIRSS/Generating-Clusters/Str-Search/Higher-Symm/C4-100
REM VASP from code version vasp.5.4.4.18Apr17-6-g9f103f2a35 (build Oct 11 2019 16:45:47) gamma-only
REM
REM
REM
REM
REM ./C.cell (6bd13a13d554368a30d355f37ece5b26)
REM AIRSS Version 0.9.1 bugfix July 2018 build 013d7b7c2542+ Fri, 06 Jul 2018 19:26:36 +0100
REM compiler GCC version 6.3.0
REM options -cpp -iprefix /gpfs/warwick/csc/orac/software/Core/GCCcore/6.3.0/bin/../lib/gcc/x86_64-pc-linux-gnu/6.3.0/ -mtune=generic -march=x86-64 -g -O0
REM seed 1588703740 915142983 73257648 412405897 52991851 2114762813 1500597396 -1648089256 2103955701 151068302 1194178978 -1624729209
REM
REM C.POTCAR (d86ddea03c3ceb6dc662c8ad6801f873)
REM 
CELL 1.54180   15.00000   15.00000   15.00000   90.00000   90.00000   90.00000
LATT -1
SFAC C  
C      1  0.4944217862434  0.4179072359846  0.2522886837260 1.0
C      1  0.5438127797375  0.4296543967255  0.7481423549487 1.0
C      1  0.5770226314072  0.4692225243898  0.2522263579658 1.0
C      1  0.5800838155336  0.5198366037959  0.7478577181447 1.0
C      1  0.5533656647346  0.5632024048018  0.2524723056010 1.0
C      1  0.5055782134087  0.5820927665718  0.7477113168826 1.0
C      1  0.4561872209755  0.5703456019994  0.2518576461956 1.0
C      1  0.4229773664754  0.5307774768432  0.7477736423444 1.0
C      1  0.4199161853756  0.4801633969226  0.2521422828192 1.0
C      1  0.4466343333643  0.4367975942187  0.7475276953037 1.0
C      1  0.5101752647984  0.6384433013720  0.4763478113562 1.0
C      1  0.4263620288065  0.6176577976095  0.5235470300346 1.0
C      1  0.3709121970892  0.5517286670294  0.4762178107448 1.0
C      1  0.3634282017363  0.4660393368144  0.5238540363301 1.0
C      1  0.4095778614442  0.3928697400121  0.4760974516500 1.0
C      1  0.4898247352071  0.3615566975380  0.5236521883580 1.0
C      1  0.5736379715663  0.3823422028679  0.4764529692192 1.0
C      1  0.6290878036345  0.4482713329219  0.5237821894015 1.0
C      1  0.6365717988199  0.5339606628627  0.4761459623835 1.0
C      1  0.5904221388749  0.6071302595636  0.5239025478015 1.0
C      1  0.5736853757501  0.3826216331772  0.3824287013789 1.0
C      1  0.6285447090506  0.4485248830116  0.6179399799153 1.0
C      1  0.6362203457428  0.5338148985113  0.3821610463001 1.0
C      1  0.5899508479773  0.6068119457042  0.6178889368732 1.0
C      1  0.5103794893215  0.6381628754467  0.3822488973349 1.0
C      1  0.4263146247786  0.6173783667461  0.6175712985248 1.0
C      1  0.3714552911687  0.5514751165534  0.3820600192360 1.0
C      1  0.3637796543836  0.4661851011425  0.6178389534201 1.0
C      1  0.4100491524987  0.3931880549662  0.3821110625909 1.0
C      1  0.4896205104687  0.3618371246313  0.6177511026151 1.0
C      1  0.4907017447211  0.3677870079167  0.3333912057196 1.0
C      1  0.5700626447564  0.3875756339938  0.6668562468683 1.0
C      1  0.6238327408751  0.4503404410379  0.3333488632039 1.0
C      1  0.6297271702607  0.5324121266249  0.6672417199951 1.0
C      1  0.5864351000851  0.6022717905721  0.3330768465356 1.0
C      1  0.5092982551307  0.6322129926767  0.6666087945550 1.0
C      1  0.4299373555898  0.6124243651328  0.3331437531597 1.0
C      1  0.3761672587386  0.5496595588165  0.6666511367239 1.0
C      1  0.3702728302504  0.4675878732369  0.3327582802918 1.0
C      1  0.4135648992179  0.3977282092564  0.6669231535469 1.0
END
