TITL C-151763-8073-35 -4.748 3375.00 -753.33473568 0 0 94 (C1) n - 1
REM
REM Run started: at 2020.12.01 08:09:10 in /rds/project/t2_vol4/rds-t2-cs072/BORA/CARBON/AIRSS/Generating-Clusters/Str-Search/Higher-Symm/C10-100
REM VASP from code version vasp.5.4.4.18Apr17-6-g9f103f2a35 (build Oct 11 2019 16:45:47) gamma-only
REM
REM
REM
REM
REM ./C.cell (f39ce9773e2efe3fa5bbdf770a4156b8)
REM AIRSS Version 0.9.1 bugfix July 2018 build 013d7b7c2542+ Fri, 06 Jul 2018 19:26:36 +0100
REM compiler GCC version 4.8.5 20150623 (Red Hat 4.8.5-39)
REM options -cpp -mtune=generic -march=x86-64 -g -O0
REM seed 659128467 211286818 1092812908 -1181620470 873569763 356169185 1007871787 -178733823 -269260783 1256187470 -515912433 1133123871
REM
REM C.POTCAR (d86ddea03c3ceb6dc662c8ad6801f873)
REM 
CELL 1.54180   15.00000   15.00000   15.00000   90.00000   90.00000   90.00000
LATT -1
SFAC C  
C      1  0.3761911399201  0.5516369320788  0.3411195873980 1.0
C      1  0.4231470604604  0.5327664992075  0.7033182462054 1.0
C      1  0.6742127149320  0.5145241418402  0.4508943677535 1.0
C      1  0.3749531022399  0.4596234075934  0.6646001344632 1.0
C      1  0.4509794389971  0.5073834708574  0.3074674504877 1.0
C      1  0.6749989415886  0.4717995609340  0.5334084428023 1.0
C      1  0.1603344210418  0.5145256451143  0.3953836958298 1.0
C      1  0.5795341740667  0.5153497726041  0.8499751461044 1.0
C      1  0.7223473528884  0.5208285460573  0.2392578115690 1.0
C      1  0.1932831355584  0.4253919828353  0.5311860960028 1.0
C      1  0.5891393968706  0.4859933034997  0.1389058895227 1.0
C      1  0.7129272622009  0.4746372025597  0.7507467607624 1.0
C      1  0.2184307009106  0.5019175018720  0.3219861644522 1.0
C      1  0.4878045452432  0.4994335933149  0.8509133237581 1.0
C      1  0.7711685734124  0.5110519795762  0.3134356757241 1.0
C      1  0.2142168955899  0.4593906769236  0.6191549415140 1.0
C      1  0.4991889708053  0.5022081619564  0.1398197618639 1.0
C      1  0.7677717202951  0.4855971167610  0.6799476283656 1.0
C      1  0.6597781009683  0.6880190136632  0.4392936480443 1.0
C      1  0.3777617855796  0.7438694749905  0.3611112015005 1.0
C      1  0.4620668564236  0.7230542460468  0.6504951856947 1.0
C      1  0.6725057758575  0.2779452525511  0.5318247819892 1.0
C      1  0.4084272122160  0.2551863162795  0.6473540722892 1.0
C      1  0.4408568302301  0.3357948852058  0.3941246072279 1.0
C      1  0.5941440380630  0.5448936240291  0.3945871006154 1.0
C      1  0.3757184673306  0.6024030928016  0.4205656207201 1.0
C      1  0.4970687887870  0.5584675220429  0.6403480174699 1.0
C      1  0.5969621826666  0.4259490581256  0.5742544982345 1.0
C      1  0.4336483689700  0.4185036762683  0.6024196714023 1.0
C      1  0.5280940155871  0.4795775409991  0.3640882370347 1.0
C      1  0.6773032515073  0.3342999204204  0.3454078686005 1.0
C      1  0.2485000421479  0.3529828981256  0.4844519486899 1.0
C      1  0.5502487532321  0.3103821020969  0.7408047100431 1.0
C      1  0.6868712852626  0.6696804684158  0.6437101466395 1.0
C      1  0.2803431648014  0.6897836466344  0.5815471282449 1.0
C      1  0.5268774549664  0.6867150859482  0.2379016557196 1.0
C      1  0.3475525328182  0.7267804920304  0.5368696881743 1.0
C      1  0.6137645259834  0.6861157520062  0.5960911902025 1.0
C      1  0.5339766092602  0.7004654070238  0.3252850290018 1.0
C      1  0.3265319014292  0.3159016399883  0.5156863946322 1.0
C      1  0.6042044762797  0.3249224729398  0.3959548318466 1.0
C      1  0.5597666221891  0.2769642227915  0.6572379986345 1.0
C      1  0.4969628516280  0.1631223798801  0.5534531763902 1.0
C      1  0.5448616238292  0.1863847961127  0.4740666672702 1.0
C      1  0.4497932068692  0.1932767772831  0.4768289185903 1.0
C      1  0.5008082030291  0.8237388303558  0.4318624838327 1.0
C      1  0.5682793561086  0.8118680868787  0.4987435097820 1.0
C      1  0.4771244066864  0.8271825061923  0.5248916949122 1.0
C      1  0.3257866598998  0.7209338122984  0.2893942748366 1.0
C      1  0.4359557149126  0.7092495731299  0.7354830867182 1.0
C      1  0.7439123502287  0.6531414090665  0.4412754897551 1.0
C      1  0.3424129736748  0.2648056423453  0.7111910120661 1.0
C      1  0.4076320638560  0.3431324542963  0.3116618669564 1.0
C      1  0.7669543252965  0.2813593887257  0.5303833108864 1.0
C      1  0.6094467552507  0.2504432588348  0.4618031559744 1.0
C      1  0.4082014983009  0.2821094140920  0.4717651215642 1.0
C      1  0.4927555502925  0.2068778581015  0.6341674839684 1.0
C      1  0.6216626279389  0.7405465652303  0.5135509139672 1.0
C      1  0.4232403451399  0.7758577280216  0.5769191851628 1.0
C      1  0.4726415635050  0.7700695109383  0.3646278632692 1.0
C      1  0.7545248133307  0.3564219293027  0.3170287005527 1.0
C      1  0.2352410427854  0.3478505471644  0.3903790318692 1.0
C      1  0.5126127918414  0.3432263921044  0.8096984234408 1.0
C      1  0.7618685891660  0.6405682822763  0.6721292437672 1.0
C      1  0.2278458323048  0.6308233875330  0.6159824600047 1.0
C      1  0.4975486990169  0.6594858256666  0.1618890619423 1.0
C      1  0.4403485785982  0.6548011664281  0.8007354862362 1.0
C      1  0.8244072250808  0.6146842875683  0.4373829775927 1.0
C      1  0.2751440390667  0.6546702227480  0.2720530853008 1.0
C      1  0.4199534441758  0.3795111629534  0.2335726644342 1.0
C      1  0.7769920460864  0.3619974428647  0.5652109252528 1.0
C      1  0.2913285396051  0.3343117880783  0.7042805696352 1.0
C      1  0.2028417011582  0.5503815152254  0.6241998372315 1.0
C      1  0.8124026849650  0.5698902717646  0.6801988399835 1.0
C      1  0.4808820807180  0.5902566898378  0.1136944128262 1.0
C      1  0.2314651319293  0.4092793466088  0.3343130087198 1.0
C      1  0.8106112311306  0.4235779614257  0.3156229093582 1.0
C      1  0.4781374211003  0.4075046445746  0.8558850515884 1.0
C      1  0.7566792378516  0.4452732379017  0.5886637892223 1.0
C      1  0.4493672086770  0.4629922925030  0.2153347105371 1.0
C      1  0.2837768643655  0.4197594782090  0.6769583570107 1.0
C      1  0.7573350234682  0.5499449443851  0.4063580383630 1.0
C      1  0.4357232324341  0.5619501197962  0.7956513649682 1.0
C      1  0.2855869347886  0.5654540790064  0.2939337392814 1.0
C      1  0.5268527974322  0.3867713610812  0.3903672769561 1.0
C      1  0.4046097444150  0.3290534700818  0.5726351999272 1.0
C      1  0.6082577915294  0.3293323918005  0.5882663795716 1.0
C      1  0.5246376777214  0.6477780051564  0.6255252858117 1.0
C      1  0.3611369670048  0.6873504143445  0.4442080038347 1.0
C      1  0.5935973262442  0.6407782650311  0.3825734377301 1.0
C      1  0.6618179737391  0.5002170790217  0.1817187806701 1.0
C      1  0.6521393507537  0.4986299210889  0.8075083294154 1.0
C      1  0.1472026960719  0.4814464238905  0.4716341018031 1.0
C      1  0.5156526154185  0.4682866537829  0.5968989420271 1.0
END
