TITL C-1503-5108-29 -7.359 3375.00 -1313.71522272 0 0 159 (C1) n - 1
REM
REM Run started: at 2020.12.22 21:18:04 in /gpfs/home/chem/mssmkc/CARBON/AIRSS/Generating-Clusters/Str-Search/Higher-Symm/C100-200
REM VASP from code version vasp.5.4.4.18Apr17-6-g9f103f2a35 (build Oct 11 2019 16:45:47) gamma-only
REM
REM
REM
REM
REM ./C.cell (533062f00bc710175b3da973d35f2034)
REM AIRSS Version 0.9.1 bugfix July 2018 build 013d7b7c2542+ Fri, 06 Jul 2018 19:26:36 +0100
REM compiler GCC version 6.3.0
REM options -cpp -iprefix /gpfs/warwick/csc/orac/software/Core/GCCcore/6.3.0/bin/../lib/gcc/x86_64-pc-linux-gnu/6.3.0/ -mtune=generic -march=x86-64 -g -O0
REM seed 1983660982 -1754954180 -775193887 -1113307498 2020358136 509096016 -83222300 712396689 1347094752 1689228086 -825023808 1885947281
REM
REM C.POTCAR (d86ddea03c3ceb6dc662c8ad6801f873)
REM 
CELL 1.54180   15.00000   15.00000   15.00000   90.00000   90.00000   90.00000
LATT -1
SFAC C  
C      1  0.5969184409980  0.7971283672729  0.6772111651964 1.0
C      1  0.7127998565888  0.2644141577659  0.6949928739180 1.0
C      1  0.1931240865040  0.4334806106661  0.6881174833673 1.0
C      1  0.4049011637330  0.7971636212809  0.6779635254005 1.0
C      1  0.2906333341420  0.2667289443838  0.6829749251453 1.0
C      1  0.8100995918675  0.4334598318389  0.6949614424597 1.0
C      1  0.5861248063766  0.3480101877939  0.7512995815545 1.0
C      1  0.3280068757572  0.5010080221256  0.7494963492243 1.0
C      1  0.5893936600021  0.6495847329962  0.7458702271577 1.0
C      1  0.4158627867029  0.3473068956155  0.7480636534802 1.0
C      1  0.6741709685306  0.5014412752394  0.7509679640121 1.0
C      1  0.4125936248079  0.6495568322101  0.7463830032883 1.0
C      1  0.4011507853460  0.4974287950043  0.6710206433547 1.0
C      1  0.5504855096100  0.5846277384603  0.6693243235949 1.0
C      1  0.5527300354090  0.4122266508357  0.6718059157796 1.0
C      1  0.6017933638936  0.4972150547649  0.6715000075560 1.0
C      1  0.4519952799471  0.5849777644798  0.6694177967961 1.0
C      1  0.4510476834769  0.4124773833150  0.6706254747623 1.0
C      1  0.7786401373282  0.2836492682308  0.6293524992653 1.0
C      1  0.1772726368160  0.3683535070003  0.6187388383021 1.0
C      1  0.5476966060754  0.8391517747843  0.6065024400573 1.0
C      1  0.2267000986273  0.2882265384453  0.6152369796010 1.0
C      1  0.8263683586884  0.3662597048414  0.6294305252406 1.0
C      1  0.4536637854946  0.8390081666605  0.6066937679093 1.0
C      1  0.5879447881901  0.3698146578082  0.5892608224346 1.0
C      1  0.3474042833203  0.4889466533729  0.5883971753152 1.0
C      1  0.5692410827106  0.6319844876183  0.5840421939440 1.0
C      1  0.4192462607930  0.3710994119101  0.5864360260905 1.0
C      1  0.6564200137125  0.4874524645844  0.5891709569602 1.0
C      1  0.4334528373234  0.6332977260229  0.5847313426402 1.0
C      1  0.2085121763936  0.2773518856635  0.5125064874187 1.0
C      1  0.4509447047776  0.8592344090263  0.5036246228753 1.0
C      1  0.8325356869111  0.3626002782465  0.5278160799135 1.0
C      1  0.7837891412790  0.2800142495865  0.5274487777404 1.0
C      1  0.5501107769006  0.8590885413001  0.5033760118592 1.0
C      1  0.1532863542627  0.3603356859100  0.5174068916538 1.0
C      1  0.3294504569716  0.1803916572109  0.4338427003250 1.0
C      1  0.3024590709631  0.8082181574982  0.4355667941820 1.0
C      1  0.8742461582697  0.5110890208276  0.4510397952066 1.0
C      1  0.6756545961133  0.1710282074745  0.4475051050920 1.0
C      1  0.6978645062716  0.8064134631681  0.4333422136560 1.0
C      1  0.1177673181572  0.5148341431533  0.4565188085083 1.0
C      1  0.5494761321737  0.5845792396079  0.8181905369416 1.0
C      1  0.5477014358285  0.4163396704802  0.8204788470804 1.0
C      1  0.4042973525733  0.5009963558303  0.8193236491802 1.0
C      1  0.4515509149846  0.5842283111520  0.8181472922398 1.0
C      1  0.4527314006506  0.4156486201310  0.8196836777021 1.0
C      1  0.5964933592740  0.5016880942120  0.8199977329464 1.0
C      1  0.3568085012877  0.3145919927168  0.2781280428667 1.0
C      1  0.4012409882291  0.7146106648565  0.2778984991756 1.0
C      1  0.7614446551781  0.4590537460543  0.3019960818039 1.0
C      1  0.6638583608078  0.2991803748522  0.3008580937999 1.0
C      1  0.5965836324636  0.7149255080675  0.2778442464616 1.0
C      1  0.2367935157539  0.4633118659343  0.2982132496574 1.0
C      1  0.5548945969868  0.3577374511808  0.2042796225000 1.0
C      1  0.3129685763229  0.5358007316789  0.1861717258183 1.0
C      1  0.5915534108171  0.6774624656794  0.1329595944669 1.0
C      1  0.3923171476337  0.3631241144761  0.1327770312929 1.0
C      1  0.6620564700536  0.5300351469291  0.2050552767826 1.0
C      1  0.4017983071134  0.6896990277112  0.1295527551139 1.0
C      1  0.5562306651428  0.2091509358566  0.5348135978761 1.0
C      1  0.2208816733370  0.5967230740367  0.5380860615881 1.0
C      1  0.7223407681910  0.6873460992884  0.5293596991121 1.0
C      1  0.4481098480298  0.2124602090945  0.5292468919518 1.0
C      1  0.7798652391502  0.5959854290943  0.5359698039258 1.0
C      1  0.2788002286323  0.6885286191229  0.5313049918722 1.0
C      1  0.5989048989251  0.1870676057579  0.3837999714270 1.0
C      1  0.1741772919086  0.5661052838559  0.3917032692097 1.0
C      1  0.7198279341488  0.7260811387169  0.3734254389853 1.0
C      1  0.4103766556980  0.1999874737179  0.3713207879848 1.0
C      1  0.8238872450212  0.5699802780979  0.3874576447841 1.0
C      1  0.2811039534014  0.7281429865677  0.3746181263102 1.0
C      1  0.2728198991358  0.4192249859989  0.7392216811944 1.0
C      1  0.5463775535343  0.7377054523530  0.7329760702922 1.0
C      1  0.6846992586707  0.3407485053121  0.7464416222958 1.0
C      1  0.7300236436435  0.4196739700841  0.7464566084810 1.0
C      1  0.4557781148433  0.7377342280675  0.7334523870895 1.0
C      1  0.3179208296377  0.3405752268661  0.7378308991325 1.0
C      1  0.5552606898665  0.2535438585416  0.7066633572789 1.0
C      1  0.2626258796263  0.5747010430060  0.7069843459215 1.0
C      1  0.6858509730952  0.6693971223714  0.7020974346294 1.0
C      1  0.4465326481571  0.2530394014180  0.7032640666544 1.0
C      1  0.7399868225078  0.5751807139332  0.7064318790589 1.0
C      1  0.3163860814970  0.6691852568774  0.7031998707600 1.0
C      1  0.2559292854318  0.5750291222521  0.4457876490706 1.0
C      1  0.6885245438092  0.6575768932845  0.4373717850649 1.0
C      1  0.5562844351224  0.2538317162023  0.4424225086562 1.0
C      1  0.7424573493130  0.5731865985963  0.4432873582664 1.0
C      1  0.3110057586795  0.6596029810283  0.4390347275162 1.0
C      1  0.4562915803876  0.2578452117938  0.4367314334770 1.0
C      1  0.2635692285168  0.7874964244771  0.5277179089478 1.0
C      1  0.8739045142934  0.5566866479282  0.5395553423554 1.0
C      1  0.3678045651530  0.1526375999823  0.5248188390329 1.0
C      1  0.7371535036320  0.7862592162379  0.5254080072796 1.0
C      1  0.1260399913187  0.5621514985869  0.5440590009503 1.0
C      1  0.6376030973813  0.1478928956470  0.5369744478360 1.0
C      1  0.4473886474707  0.4084863404857  0.4976564536712 1.0
C      1  0.4491094710543  0.5867924768351  0.4963235999764 1.0
C      1  0.6128385408161  0.4920817530272  0.4974415902946 1.0
C      1  0.5622977787442  0.4052407683381  0.4977528538406 1.0
C      1  0.5529769688882  0.5852368577496  0.4956853441155 1.0
C      1  0.3929769711355  0.4955295669639  0.4988798765085 1.0
C      1  0.8322536180346  0.5278902043826  0.6900602199528 1.0
C      1  0.3583137289166  0.1977432659211  0.6800791394115 1.0
C      1  0.3109843889598  0.7731755242621  0.6803390773932 1.0
C      1  0.1696373083960  0.5277566179235  0.6913754097590 1.0
C      1  0.6424571379241  0.1978492843030  0.6891237332649 1.0
C      1  0.6908491396715  0.7731404898747  0.6785841862652 1.0
C      1  0.2533930923554  0.2332507968000  0.4434044783140 1.0
C      1  0.3855557702092  0.8480559377572  0.4382975725139 1.0
C      1  0.8362395129362  0.4226087303672  0.4543496798395 1.0
C      1  0.7336001510356  0.2478366471826  0.4527536870097 1.0
C      1  0.6145315297315  0.8464312595904  0.4372678977171 1.0
C      1  0.1228745150909  0.4223231107753  0.4555485320807 1.0
C      1  0.6910699503744  0.6880538172763  0.2861763504374 1.0
C      1  0.5984158873233  0.2318797829955  0.2978738311419 1.0
C      1  0.2038734359660  0.5519003463850  0.3026561114613 1.0
C      1  0.3057224956397  0.6895832681817  0.2858928780227 1.0
C      1  0.4284269078259  0.2481501842985  0.2841389267329 1.0
C      1  0.7897956617390  0.5486063402995  0.3002441771576 1.0
C      1  0.2855394019859  0.4508240308666  0.2180199031038 1.0
C      1  0.5477503005224  0.7279687370940  0.1975833718917 1.0
C      1  0.6419418563396  0.3680267258340  0.2387204386614 1.0
C      1  0.6908349453848  0.4473793909168  0.2391601953083 1.0
C      1  0.4493323542835  0.7314717413693  0.1980764246387 1.0
C      1  0.3317004209282  0.3680945402575  0.2029756212236 1.0
C      1  0.8970551676502  0.5464774736906  0.6255639336585 1.0
C      1  0.3455214867417  0.1379517232970  0.6102871178524 1.0
C      1  0.2627241504961  0.8141731888736  0.6130252712392 1.0
C      1  0.1042220209376  0.5504641628961  0.6299991793781 1.0
C      1  0.6580988653887  0.1343068671828  0.6231198899273 1.0
C      1  0.7383036015459  0.8137526132471  0.6104459738072 1.0
C      1  0.4510244831891  0.6841392927585  0.3559715622557 1.0
C      1  0.7513695356729  0.4152678823334  0.3933156244041 1.0
C      1  0.3501880901977  0.3596692957086  0.3641067450203 1.0
C      1  0.5474784222263  0.6841862221293  0.3561526218839 1.0
C      1  0.2919898102435  0.4348079506383  0.3733980932405 1.0
C      1  0.6984855221945  0.3258970952065  0.3926400175480 1.0
C      1  0.6932219569034  0.4895996548154  0.4378932624426 1.0
C      1  0.4152523814697  0.3456352393028  0.4294449054797 1.0
C      1  0.4080980968346  0.6457845444039  0.4276267411498 1.0
C      1  0.3132176780154  0.4958127760480  0.4376922597710 1.0
C      1  0.6046262798828  0.3380735455534  0.4381813883830 1.0
C      1  0.5917617781588  0.6444891724493  0.4265774518929 1.0
C      1  0.3918088086995  0.5314396957222  0.1301073424413 1.0
C      1  0.5407518523050  0.5997495097131  0.1163578492580 1.0
C      1  0.5286473926106  0.4373052112644  0.1538986781275 1.0
C      1  0.5814433340388  0.5209927963775  0.1532065694236 1.0
C      1  0.4441287571975  0.6078546554753  0.1087829694639 1.0
C      1  0.4373191508143  0.4445969738756  0.1252282966070 1.0
C      1  0.3396425095289  0.6539637725424  0.6007640666489 1.0
C      1  0.7186547995129  0.5603312879588  0.6045228935565 1.0
C      1  0.4484358941358  0.2806363818517  0.6010473745088 1.0
C      1  0.6624765660595  0.6531345626696  0.5998708504319 1.0
C      1  0.2840100750744  0.5609896223404  0.6048424908335 1.0
C      1  0.5568246703452  0.2792743130683  0.6044371567825 1.0
C      1  0.5174705594731  0.2706044374683  0.2519022649208 1.0
C      1  0.2704072955871  0.6059835327684  0.2505802589900 1.0
C      1  0.7182480201684  0.6017260960568  0.2530483526241 1.0
END
