TITL C-160259-9374-3 -1.895 3375.00 -297.75390717 0 0 38 (C1) n - 1
REM
REM Run started: at 2020.11.27 04:24:42 in /rds/project/t2_vol4/rds-t2-cs072/BORA/CARBON/AIRSS/Generating-Clusters/Str-Search/Higher-Symm/C10-100
REM VASP from code version vasp.5.4.4.18Apr17-6-g9f103f2a35 (build Oct 11 2019 16:45:47) gamma-only
REM
REM
REM
REM
REM ./C.cell (f39ce9773e2efe3fa5bbdf770a4156b8)
REM AIRSS Version 0.9.1 bugfix July 2018 build 013d7b7c2542+ Fri, 06 Jul 2018 19:26:36 +0100
REM compiler GCC version 4.8.5 20150623 (Red Hat 4.8.5-39)
REM options -cpp -mtune=generic -march=x86-64 -g -O0
REM seed 1447535476 -1314617274 201781235 -1343169751 -510600703 -919015727 -471937483 -91911640 -989036158 -1693036444 1061839484 1208036681
REM
REM C.POTCAR (d86ddea03c3ceb6dc662c8ad6801f873)
REM 
CELL 1.54180   15.00000   15.00000   15.00000   90.00000   90.00000   90.00000
LATT -1
SFAC C  
C      1  0.5347623248228  0.4429867755223  0.3223817000721 1.0
C      1  0.6316968501121  0.4380982175638  0.6198000013242 1.0
C      1  0.3299598907247  0.4364671702231  0.5639912435883 1.0
C      1  0.4868915766129  0.6553369105491  0.5896472359413 1.0
C      1  0.4236176615373  0.6525081918739  0.4468621036189 1.0
C      1  0.5782937616686  0.6534472621058  0.4695373620723 1.0
C      1  0.2882301018300  0.5716106353213  0.4795674734764 1.0
C      1  0.6171718308769  0.5714196800931  0.3372825032839 1.0
C      1  0.5823263436520  0.5743927714000  0.6874541750935 1.0
C      1  0.3801175633722  0.2857902356750  0.5040898395286 1.0
C      1  0.5565444722276  0.2935832546325  0.3886482859599 1.0
C      1  0.5430843951936  0.2912993419096  0.6185356018556 1.0
C      1  0.4434776194871  0.4472195306498  0.3429683527067 1.0
C      1  0.6612619420044  0.4440332176203  0.5292823449327 1.0
C      1  0.3899416756510  0.4478008671481  0.6363931391728 1.0
C      1  0.4773900917107  0.4257465809544  0.6667776960524 1.0
C      1  0.3803131162346  0.4210002316147  0.4103300594405 1.0
C      1  0.6459583872755  0.4207623175586  0.4381463298156 1.0
C      1  0.5054461376703  0.7095931633193  0.4256047543148 1.0
C      1  0.5649621211115  0.7149770926514  0.5530912889527 1.0
C      1  0.4257003411746  0.7119420036709  0.5307059811678 1.0
C      1  0.5071668642271  0.2327926165124  0.4177014494669 1.0
C      1  0.5026046250021  0.2282274798952  0.5801776372658 1.0
C      1  0.4560532164334  0.2344567917808  0.4974021149640 1.0
C      1  0.5576077623411  0.3771225324235  0.6457764108712 1.0
C      1  0.3571504863128  0.3734403156816  0.4900203914602 1.0
C      1  0.5890120632948  0.3780078295490  0.3739875191432 1.0
C      1  0.6668714502088  0.5097759090773  0.4615589125720 1.0
C      1  0.4467993189922  0.5136235565686  0.6747242441294 1.0
C      1  0.3781042252169  0.5078330400553  0.3754916646579 1.0
C      1  0.5800192983007  0.5181261271093  0.2843778837410 1.0
C      1  0.6398907097984  0.5151242523267  0.6724058933650 1.0
C      1  0.2820952068098  0.5114547254306  0.5367379728713 1.0
C      1  0.3523313739366  0.5919631139887  0.4138454733693 1.0
C      1  0.6440368756418  0.5939815600840  0.4230691814757 1.0
C      1  0.4943925916462  0.5971487588902  0.6700439577239 1.0
C      1  0.4989400857680  0.7740270500066  0.5019973604244 1.0
C      1  0.4958978411189  0.5979107885636  0.5027615601278 1.0
END
