TITL C-16343-8127-35 -5.246 3375.00 -888.52957484 0 0 111 (C1) n - 1
REM
REM Run started: at 2021.01.03 09:10:37 in /gpfs/home/chem/mssmkc/CARBON/AIRSS/Generating-Clusters/Str-Search/Higher-Symm/C100-200
REM VASP from code version vasp.5.4.4.18Apr17-6-g9f103f2a35 (build Oct 11 2019 16:45:47) gamma-only
REM
REM
REM
REM
REM ./C.cell (533062f00bc710175b3da973d35f2034)
REM AIRSS Version 0.9.1 bugfix July 2018 build 013d7b7c2542+ Fri, 06 Jul 2018 19:26:36 +0100
REM compiler GCC version 6.3.0
REM options -cpp -iprefix /gpfs/warwick/csc/orac/software/Core/GCCcore/6.3.0/bin/../lib/gcc/x86_64-pc-linux-gnu/6.3.0/ -mtune=generic -march=x86-64 -g -O0
REM seed -1184750810 -1855535714 307788124 -1975634057 -86151556 675288713 -419216517 -1980112718 -1197628166 335978953 903165972 -1060136305
REM
REM C.POTCAR (d86ddea03c3ceb6dc662c8ad6801f873)
REM 
CELL 1.54180   15.00000   15.00000   15.00000   90.00000   90.00000   90.00000
LATT -1
SFAC C  
C      1  0.6724734874449  0.3058697036100  0.7957359738704 1.0
C      1  0.5510590830964  0.6231864891777  0.7891613278976 1.0
C      1  0.5261824006492  0.7642566824316  0.4179407362118 1.0
C      1  0.5822552897207  0.5119126794901  0.2017189305633 1.0
C      1  0.5355925210233  0.2306400131737  0.3963242716888 1.0
C      1  0.5391513741596  0.3449065647664  0.3093282268375 1.0
C      1  0.5344166174146  0.2794670209803  0.6211437615637 1.0
C      1  0.4995481527691  0.4617671982313  0.7635794669941 1.0
C      1  0.5142443578844  0.7167147448214  0.5865394946439 1.0
C      1  0.5191431942166  0.6043793848149  0.3239068383782 1.0
C      1  0.4626253535056  0.6694185808287  0.2955591499049 1.0
C      1  0.5478188332139  0.3570835090998  0.2107802717873 1.0
C      1  0.5102270458370  0.2118747454830  0.5600020278827 1.0
C      1  0.5560117580339  0.4215100088473  0.8367550361807 1.0
C      1  0.5971158680455  0.7221209031413  0.6382879558902 1.0
C      1  0.2711908632932  0.2161114282083  0.3393348186423 1.0
C      1  0.3108203037923  0.2798491035312  0.6892544402085 1.0
C      1  0.3348757162867  0.6265891405588  0.8005517655171 1.0
C      1  0.3017563065392  0.8215346766163  0.4432229628506 1.0
C      1  0.3582968275576  0.5889803289820  0.1529179099503 1.0
C      1  0.2731520129805  0.1541491649658  0.2777150949356 1.0
C      1  0.3276626947213  0.1939178645538  0.6992944627678 1.0
C      1  0.3888950848456  0.5661493648874  0.8390904998541 1.0
C      1  0.2984927560550  0.8910551353866  0.4970678086273 1.0
C      1  0.2915755321657  0.6427620432462  0.1498539869022 1.0
C      1  0.2559628539889  0.5924752318041  0.2317109073315 1.0
C      1  0.2168435900307  0.2932791868529  0.3754603292037 1.0
C      1  0.2551625118108  0.3408368573563  0.6316867632708 1.0
C      1  0.2571550964333  0.6419854844950  0.7439367159832 1.0
C      1  0.2389671257093  0.7379453412531  0.4415028148944 1.0
C      1  0.6124801838445  0.3593652786224  0.8345475505973 1.0
C      1  0.5921378207139  0.6902711677386  0.7275418115200 1.0
C      1  0.4406979365657  0.7360996389400  0.3623690557954 1.0
C      1  0.5736215239851  0.4229720245662  0.1670584463003 1.0
C      1  0.5262146983758  0.1892869527594  0.4802327911123 1.0
C      1  0.7013165828484  0.2849672973216  0.7189960799417 1.0
C      1  0.6340226160134  0.6105265289015  0.7493848469429 1.0
C      1  0.6141711601695  0.7079146700741  0.4133584795833 1.0
C      1  0.6512101363882  0.5660947700611  0.2205999484161 1.0
C      1  0.6056929248723  0.2883117797691  0.3625857150334 1.0
C      1  0.6827842088479  0.7042730293350  0.4931837522499 1.0
C      1  0.6954916540922  0.5880179889572  0.2969845630090 1.0
C      1  0.6775061296234  0.3442282434981  0.3898517187234 1.0
C      1  0.7227698166990  0.3190819545802  0.6366025531328 1.0
C      1  0.6778581311569  0.5599826583275  0.6848654451863 1.0
C      1  0.2237854804894  0.5891602594316  0.6689839312703 1.0
C      1  0.2239226029806  0.6755672600622  0.5076301463597 1.0
C      1  0.2767139756088  0.6249618001376  0.3202924842682 1.0
C      1  0.2135570758198  0.3710839906193  0.3303139834564 1.0
C      1  0.2567915078831  0.3441596603710  0.5380802653621 1.0
C      1  0.7915689035663  0.5658018967388  0.5675580399924 1.0
C      1  0.8029286315935  0.5884888879968  0.4664000941125 1.0
C      1  0.7973925387729  0.4973931754638  0.4101878300734 1.0
C      1  0.7958423854593  0.4178863865764  0.4801684490472 1.0
C      1  0.7951786295074  0.4627731227295  0.5794418449836 1.0
C      1  0.3647923162836  0.6137541514950  0.4569114788544 1.0
C      1  0.3557991878893  0.4700456671911  0.3523399878453 1.0
C      1  0.3746532245235  0.4096357814256  0.4379564724066 1.0
C      1  0.2774962163057  0.5032863180528  0.5497153616577 1.0
C      1  0.2931672787484  0.5970029466207  0.5225439379308 1.0
C      1  0.4706598124741  0.5599489325864  0.7761218864978 1.0
C      1  0.4842905697687  0.7393274116722  0.5038413365595 1.0
C      1  0.5170112245541  0.5126190122884  0.2841668610847 1.0
C      1  0.4690530354552  0.2907313458499  0.3594541993558 1.0
C      1  0.5081203252412  0.3422610321290  0.6833877531524 1.0
C      1  0.7235936344817  0.6131937876900  0.6203175473861 1.0
C      1  0.7454066881053  0.6622126946006  0.4363939346638 1.0
C      1  0.7244557828789  0.5015197705487  0.3431008605894 1.0
C      1  0.7298726600332  0.3433956460743  0.4688189182942 1.0
C      1  0.7297035173694  0.4171194369653  0.6392714985560 1.0
C      1  0.6589401557873  0.4646664520242  0.6734514202429 1.0
C      1  0.6761633159291  0.6925044971822  0.5880370644130 1.0
C      1  0.6987547363855  0.6686179690762  0.3548502196810 1.0
C      1  0.6650620564761  0.4323552279987  0.3459526598708 1.0
C      1  0.6903576510173  0.3033155013217  0.5452550663621 1.0
C      1  0.5176927546029  0.4638095408109  0.5831010865819 1.0
C      1  0.5340953585294  0.5577673206869  0.5600844155384 1.0
C      1  0.5639955389225  0.5547162649784  0.4696733502142 1.0
C      1  0.5438857413772  0.4619224234548  0.4399868272851 1.0
C      1  0.5524293469957  0.3961836938377  0.5134097376210 1.0
C      1  0.2978796483376  0.7014349433823  0.6771044156752 1.0
C      1  0.2741629496916  0.7167066201420  0.3537376417832 1.0
C      1  0.2711481114453  0.4984109749073  0.2299788595743 1.0
C      1  0.2475198649429  0.2767839794753  0.4705123870605 1.0
C      1  0.2707035937719  0.4177320795689  0.6854038224176 1.0
C      1  0.3223900557959  0.2475011381338  0.4218438826042 1.0
C      1  0.3458142824695  0.3673029478139  0.7259284823343 1.0
C      1  0.3766609819483  0.6689878545522  0.7177547741583 1.0
C      1  0.3471100550466  0.7768762037449  0.3657459808659 1.0
C      1  0.3657062492243  0.5047038453442  0.1987305466951 1.0
C      1  0.9039808344285  0.5781360346482  0.4729493716927 1.0
C      1  0.9028326704746  0.4947823583658  0.4198039926130 1.0
C      1  0.8997931589300  0.4244009242702  0.4832026093409 1.0
C      1  0.8974406457637  0.4660926618986  0.5749200914541 1.0
C      1  0.9002516155806  0.5613069128528  0.5691357643678 1.0
C      1  0.2538003304031  0.6590792371173  0.5973106368125 1.0
C      1  0.3322316158398  0.5702944973091  0.3737973181552 1.0
C      1  0.2654262458539  0.4389432428844  0.3066445938240 1.0
C      1  0.2966482731201  0.4239426476442  0.5034788244401 1.0
C      1  0.2513971760952  0.5027498920313  0.6431478271386 1.0
C      1  0.4436580317021  0.6099457430432  0.6912126095512 1.0
C      1  0.4188996836203  0.6878514626479  0.4541462019935 1.0
C      1  0.4198199549375  0.4854246695943  0.2717479113193 1.0
C      1  0.3912790516902  0.3123718337758  0.4052116210351 1.0
C      1  0.4370026280368  0.3828875518569  0.7366569032558 1.0
C      1  0.5958950206376  0.3158606000008  0.5519467979439 1.0
C      1  0.5545690465000  0.4349984450012  0.6774693899258 1.0
C      1  0.4915473410971  0.6233446392236  0.6106067924431 1.0
C      1  0.5706681874689  0.6191294103711  0.4047141904199 1.0
C      1  0.5621907851444  0.4405819498079  0.3427315650915 1.0
C      1  0.4616055107642  0.4297450668548  0.4947244336642 1.0
END
