TITL C-161415-4081-4 -8.239 3375.00 -1427.13004530 0 0 172 (T23) n - 1
REM
REM Run started: at 2020.12.20 23:29:48 in /rds/project/t2_vol4/rds-t2-cs072/BORA/CARBON/AIRSS/Generating-Clusters/Str-Search/Higher-Symm/C100-200
REM VASP from code version vasp.5.4.4.18Apr17-6-g9f103f2a35 (build Oct 11 2019 16:45:47) gamma-only
REM
REM
REM
REM
REM ./C.cell (533062f00bc710175b3da973d35f2034)
REM AIRSS Version 0.9.1 bugfix July 2018 build 013d7b7c2542+ Fri, 06 Jul 2018 19:26:36 +0100
REM compiler GCC version 4.8.5 20150623 (Red Hat 4.8.5-39)
REM options -cpp -mtune=generic -march=x86-64 -g -O0
REM seed 1788020326 162081536 1418633556 1719984193 -697052330 -909172177 877364307 -1061743561 219635293 2014194041 -694203767 1045617234
REM
REM C.POTCAR (d86ddea03c3ceb6dc662c8ad6801f873)
REM 
CELL 1.54180   15.00000   15.00000   15.00000   90.00000   90.00000   90.00000
LATT -1
SFAC C  
C      1  0.1872123372368  0.7041314777516  0.3625528329194 1.0
C      1  0.3632020333084  0.1866979978207  0.7039688655506 1.0
C      1  0.7046514820324  0.3627204126412  0.1865683416236 1.0
C      1  0.8124563507800  0.2944918481395  0.3625873959641 1.0
C      1  0.8124485085940  0.7041161993555  0.6358780407775 1.0
C      1  0.1872713808417  0.2944291526608  0.6358493930879 1.0
C      1  0.6365109397698  0.8119875460970  0.7039507320760 1.0
C      1  0.6364816456660  0.1867553697444  0.2942660002972 1.0
C      1  0.3632152375315  0.8119615039742  0.2942711455288 1.0
C      1  0.2949927363760  0.6360261158418  0.1865713474770 1.0
C      1  0.2950228690616  0.3627122934035  0.8118246839862 1.0
C      1  0.7046242000697  0.6360190563924  0.8118256015842 1.0
C      1  0.7848165396658  0.5332537267331  0.4068384991422 1.0
C      1  0.4074549201613  0.7842449924123  0.5330338614674 1.0
C      1  0.5337785900218  0.4069463525054  0.7840937296166 1.0
C      1  0.2148865095182  0.4653161452994  0.4067731817917 1.0
C      1  0.2148826358740  0.5332200708489  0.5916225569303 1.0
C      1  0.7847190829752  0.4653068935297  0.5917075831453 1.0
C      1  0.5922449498734  0.2143104604581  0.5330553824521 1.0
C      1  0.5923005580090  0.7841883119090  0.4651478200241 1.0
C      1  0.4073939776599  0.2143709478604  0.4651317449602 1.0
C      1  0.4658579773032  0.5918084608952  0.7840346760650 1.0
C      1  0.4658478115841  0.4069624828445  0.2141501350260 1.0
C      1  0.5338036223493  0.5918371568597  0.2141385075772 1.0
C      1  0.7238337085014  0.6724191211291  0.4983990192634 1.0
C      1  0.4990353209215  0.7233382238204  0.6722591662395 1.0
C      1  0.6729681034067  0.4985171059005  0.7231967577416 1.0
C      1  0.2758431058698  0.3261038847783  0.4983346856899 1.0
C      1  0.2758208187534  0.6724729609998  0.5000080712301 1.0
C      1  0.7238494707779  0.3260734932195  0.5000549505035 1.0
C      1  0.5006657391006  0.2752838894125  0.6722977434692 1.0
C      1  0.5007137790657  0.7233303769475  0.3258757960000 1.0
C      1  0.4989918054161  0.2753411173203  0.3259130540619 1.0
C      1  0.3266339993604  0.5001657805103  0.7231450401041 1.0
C      1  0.3266700067281  0.4985409013990  0.2751567952830 1.0
C      1  0.6730172236183  0.5001933338701  0.2751374364901 1.0
C      1  0.7802097915292  0.4028131591630  0.5153016804062 1.0
C      1  0.5158975355762  0.7796690724655  0.4026443253605 1.0
C      1  0.4033801426730  0.5154036912251  0.7795139349011 1.0
C      1  0.2194438834973  0.5957232609761  0.5152366550070 1.0
C      1  0.2194520972990  0.4028212652054  0.4831717109803 1.0
C      1  0.7802169045985  0.5956927983828  0.4832480337045 1.0
C      1  0.4837963967817  0.2189397613829  0.4026357363831 1.0
C      1  0.4838376746983  0.7797021236389  0.5955145915090 1.0
C      1  0.5158535599051  0.2189099349521  0.5955562288904 1.0
C      1  0.5962353131575  0.4833508193165  0.7795658184491 1.0
C      1  0.5962777573195  0.5154292675645  0.2187320219183 1.0
C      1  0.4034012596428  0.4833861254745  0.2187553050749 1.0
C      1  0.6881297809944  0.1690641859588  0.5434809451788 1.0
C      1  0.5442662844438  0.6877215346668  0.1688716341678 1.0
C      1  0.1696796882693  0.5436560340204  0.6875111233230 1.0
C      1  0.3115887615897  0.8293957841174  0.5434780662439 1.0
C      1  0.3115090362220  0.1692207270074  0.4546126200733 1.0
C      1  0.6881994122425  0.8292219186814  0.4546209679633 1.0
C      1  0.4553649861623  0.3110463615331  0.1689677194453 1.0
C      1  0.4553520960188  0.6877038174233  0.8290832935411 1.0
C      1  0.5442549783377  0.3110359894833  0.8291846787956 1.0
C      1  0.8298066758225  0.4547889437138  0.6876124769600 1.0
C      1  0.8299427702576  0.5436827086727  0.3109244141751 1.0
C      1  0.1697831747666  0.4548116229650  0.3108446309666 1.0
C      1  0.3784506947497  0.2663368367932  0.1777719240222 1.0
C      1  0.1787562524343  0.3778730387265  0.2662015362220 1.0
C      1  0.2669407314300  0.1779911551334  0.3776264902970 1.0
C      1  0.6212083835929  0.7323739438642  0.1774854846695 1.0
C      1  0.6210731025155  0.2661842713309  0.8200066307091 1.0
C      1  0.3784354228598  0.7323790303512  0.8200117664549 1.0
C      1  0.8208469122044  0.6204367529688  0.2659499961329 1.0
C      1  0.8208999701213  0.3777886268932  0.7321503706594 1.0
C      1  0.1784752790243  0.6205383878919  0.7322741494996 1.0
C      1  0.7327155180293  0.8201428695764  0.3776083884532 1.0
C      1  0.7329146227756  0.1777889021857  0.6203386184840 1.0
C      1  0.2666594506035  0.8202820733996  0.6202585650735 1.0
C      1  0.7375951382775  0.5606090607706  0.7627410726565 1.0
C      1  0.7633530886643  0.7370522654967  0.5604683835178 1.0
C      1  0.5611110604237  0.7628698879365  0.7368941097812 1.0
C      1  0.2620199730527  0.4380682914851  0.7627060147463 1.0
C      1  0.2620361511930  0.5606329584097  0.2356751892640 1.0
C      1  0.7376354827072  0.4380765949614  0.2356846460666 1.0
C      1  0.2363455956688  0.2614427108542  0.5604333870690 1.0
C      1  0.2363362570947  0.7371045494073  0.4379097823068 1.0
C      1  0.7633346279465  0.2614564104324  0.4379243797944 1.0
C      1  0.4385764191774  0.2358149804622  0.7369235348846 1.0
C      1  0.4385975736152  0.7628699502732  0.2612549401986 1.0
C      1  0.5610959106801  0.2358569702543  0.2612747364469 1.0
C      1  0.3892379374739  0.3580924079939  0.8297508157516 1.0
C      1  0.8304313700792  0.3886814371421  0.3579834858994 1.0
C      1  0.3585939001468  0.8298963328209  0.3884784530350 1.0
C      1  0.6103956723329  0.6406830973580  0.8297500155644 1.0
C      1  0.6104478674818  0.3580881373669  0.1685519908609 1.0
C      1  0.3891940876772  0.6406983083380  0.1685029040357 1.0
C      1  0.1692427077781  0.6099107438721  0.3579092060065 1.0
C      1  0.1692595200579  0.3886279690700  0.6405032847468 1.0
C      1  0.8303985624183  0.6098823757235  0.6405794703173 1.0
C      1  0.6411049624755  0.1687066511267  0.3884421407422 1.0
C      1  0.6411731908569  0.8299207401515  0.6097070915500 1.0
C      1  0.3585300660976  0.1686933117823  0.6097429302770 1.0
C      1  0.2820279743326  0.8234960227606  0.4495626065695 1.0
C      1  0.4502965957945  0.2815150488126  0.8233077297108 1.0
C      1  0.8240189940666  0.4497531991380  0.2814160513896 1.0
C      1  0.7176978253951  0.1750324036463  0.4495116186685 1.0
C      1  0.7177666759380  0.8234641572650  0.5486158328688 1.0
C      1  0.2819428434837  0.1750331509858  0.5486476020054 1.0
C      1  0.5493266284385  0.7172693556000  0.8232954954897 1.0
C      1  0.5493634626599  0.2815091629178  0.1748783871054 1.0
C      1  0.4502614860533  0.7172977871054  0.1748136666884 1.0
C      1  0.1756418497961  0.5488248476377  0.2813251801978 1.0
C      1  0.1756028298475  0.4497038245997  0.7170905883937 1.0
C      1  0.8239983788270  0.5488049214199  0.7171694792916 1.0
C      1  0.3101464833877  0.4813464125243  0.3741467792925 1.0
C      1  0.3748307126588  0.3096266741132  0.4811573791265 1.0
C      1  0.4818756745802  0.3743396527926  0.3093893399792 1.0
C      1  0.6895444748888  0.5172419879438  0.3741642536268 1.0
C      1  0.6894378720830  0.4813529018618  0.6242330673220 1.0
C      1  0.3101697765194  0.5172043843131  0.6241832692711 1.0
C      1  0.6248586177330  0.6889154242698  0.4812151772051 1.0
C      1  0.6248600492817  0.3095770898269  0.5170598892543 1.0
C      1  0.3748159174370  0.6889631904385  0.5170270898007 1.0
C      1  0.5178001504870  0.6243896218700  0.3094157087404 1.0
C      1  0.5177768045024  0.3742945922481  0.6888156055122 1.0
C      1  0.4819409313748  0.6243562522463  0.6887497250566 1.0
C      1  0.1825799953257  0.5596115488308  0.4348503942140 1.0
C      1  0.4354710840299  0.1820337621329  0.5594384506197 1.0
C      1  0.5601495377029  0.4350540346945  0.1818512040864 1.0
C      1  0.8170859746649  0.4389679249393  0.4349469846864 1.0
C      1  0.8170649300372  0.5595759943690  0.5636437970440 1.0
C      1  0.1825660851448  0.4389299705355  0.5635473551887 1.0
C      1  0.5642416366105  0.8165513441815  0.5594149284387 1.0
C      1  0.5641426345700  0.1820149575808  0.4387553666355 1.0
C      1  0.4355379731212  0.8165473189274  0.4387610893692 1.0
C      1  0.4395006535665  0.5637570262826  0.1818253194088 1.0
C      1  0.4395116060393  0.4350311095592  0.8163782412931 1.0
C      1  0.5601145093645  0.5637460297278  0.8164098279921 1.0
C      1  0.7186091505419  0.2042861291620  0.2493657603310 1.0
C      1  0.2500081398112  0.7181181694481  0.2041109625853 1.0
C      1  0.2047992155670  0.2495263187621  0.7179714696959 1.0
C      1  0.2810880946551  0.7944495674798  0.2494136596963 1.0
C      1  0.2811375091892  0.2042428822477  0.7490159484772 1.0
C      1  0.7185806768073  0.7944617156817  0.7489872868751 1.0
C      1  0.7496492933177  0.2806422721692  0.2041093312914 1.0
C      1  0.7496044369191  0.7181150157092  0.7943133086597 1.0
C      1  0.2501050121865  0.2806101678584  0.7943106230793 1.0
C      1  0.7949275522394  0.7491452417472  0.7179724986595 1.0
C      1  0.7949128442491  0.2496073430194  0.2804737562428 1.0
C      1  0.2047503033340  0.7491483883874  0.2804727504764 1.0
C      1  0.3016248432347  0.7365146425482  0.7761602843571 1.0
C      1  0.7770716234226  0.3009408437508  0.7362589997085 1.0
C      1  0.7369244839113  0.7763263704517  0.3007902701862 1.0
C      1  0.6978561850642  0.2617324095710  0.7761762201106 1.0
C      1  0.6980533662321  0.7366734149119  0.2214267511315 1.0
C      1  0.3016115653650  0.2617652790501  0.2215804688886 1.0
C      1  0.2224018678470  0.6973635224110  0.7364286396102 1.0
C      1  0.2224908455200  0.3010130813802  0.2616795566580 1.0
C      1  0.7770260850766  0.6972473921796  0.2614269577321 1.0
C      1  0.2624957717148  0.2217841843116  0.3007636704620 1.0
C      1  0.2623313695624  0.7763818665950  0.6970303825795 1.0
C      1  0.7372459940416  0.2217319362219  0.6971549108507 1.0
C      1  0.4487828099705  0.3597704963040  0.5088620630478 1.0
C      1  0.5096961686078  0.4482566220322  0.3595596102535 1.0
C      1  0.3603405718563  0.5090329267815  0.4480627453193 1.0
C      1  0.5508989432334  0.6387545261473  0.5088918341276 1.0
C      1  0.5509521450846  0.3597410183939  0.4891710618416 1.0
C      1  0.4487398423716  0.6387900490420  0.4892049631575 1.0
C      1  0.4900081616246  0.5504299022526  0.3595627659257 1.0
C      1  0.4899993798323  0.4482138390658  0.6386270329759 1.0
C      1  0.5096749906757  0.5503833371208  0.6386162637237 1.0
C      1  0.6393758843199  0.4893923692347  0.4480596784872 1.0
C      1  0.6393402752130  0.5090313730069  0.5502502849080 1.0
C      1  0.3603282283986  0.4893959843775  0.5502410808154 1.0
C      1  0.4349564781799  0.5641309676906  0.4342077015955 1.0
C      1  0.4350039871487  0.4343811785446  0.5639828978314 1.0
C      1  0.5647136720722  0.4343991289128  0.4341778684045 1.0
C      1  0.5646707985510  0.5641139320579  0.5639475229350 1.0
END
