TITL C-16465-411-1 -9.61 3375.00 -2194.86147390 0 0 267 (C1) n - 1
REM
REM Run started: at 2020.11.20 23:48:30 in /rds/project/t2_vol4/rds-t2-cs072/BORA/CARBON/AIRSS/Generating-Clusters/Str-Search/Higher-Symm
REM VASP from code version vasp.5.4.4.18Apr17-6-g9f103f2a35 (build Oct 11 2019 16:45:47) gamma-only
REM
REM
REM
REM
REM ./C.cell (e5ae0387ce4d49c7c0135a1433873289)
REM AIRSS Version 0.9.1 bugfix July 2018 build 013d7b7c2542+ Fri, 06 Jul 2018 19:26:36 +0100
REM compiler GCC version 4.8.5 20150623 (Red Hat 4.8.5-39)
REM options -cpp -mtune=generic -march=x86-64 -g -O0
REM seed 499670505 793167346 -1854809520 -48833903 -1135367831 121683707 913822181 -628218613 -1760178654 -674829647 1945801038 85769791
REM
REM C.POTCAR (d86ddea03c3ceb6dc662c8ad6801f873)
REM 
CELL 1.54180   15.00000   15.00000   15.00000   90.00000   90.00000   90.00000
LATT -1
SFAC C  
C      1  0.6158482339374  0.2367398824004  0.7577106591802 1.0
C      1  0.4540393198892  0.1857896373785  0.7629443151299 1.0
C      1  0.2710367292934  0.2727211197788  0.7735055429969 1.0
C      1  0.1957453431974  0.4295707512910  0.7866304447961 1.0
C      1  0.2157235006765  0.6249142919804  0.7792863712877 1.0
C      1  0.2977958696021  0.7681122901482  0.7999656752871 1.0
C      1  0.4909871061874  0.8108750102847  0.7658988627325 1.0
C      1  0.6588639167057  0.7784858281864  0.7959015374052 1.0
C      1  0.7907777540101  0.6995725762013  0.7760652279291 1.0
C      1  0.8023407803672  0.5053127423432  0.7670401509876 1.0
C      1  0.7803721775962  0.3395611655260  0.7992504574732 1.0
C      1  0.4442751454128  0.2403417263947  0.5662642542414 1.0
C      1  0.3102146823102  0.3123167498665  0.5792833308324 1.0
C      1  0.2396209878666  0.4458994740956  0.5758381425810 1.0
C      1  0.2670830819034  0.5903089378102  0.5587610807602 1.0
C      1  0.3164572216058  0.7386238508033  0.5751420796627 1.0
C      1  0.4596440603117  0.7625894178338  0.5203875985654 1.0
C      1  0.6208061058746  0.7393746811288  0.5118022229285 1.0
C      1  0.7579776830659  0.6560111630911  0.5492822603947 1.0
C      1  0.7803171462963  0.4937709679661  0.5370722259062 1.0
C      1  0.7165898481022  0.3509402444485  0.5468888569218 1.0
C      1  0.5971671877602  0.2510938880083  0.5506434891025 1.0
C      1  0.3017805344521  0.1306371974229  0.6679732749646 1.0
C      1  0.1242596578748  0.2288523698140  0.6933134028113 1.0
C      1  0.0945738672875  0.5383886397682  0.6774454813956 1.0
C      1  0.1176770338507  0.7900230376187  0.6509192098338 1.0
C      1  0.2826859907203  0.8897098037494  0.6803319752049 1.0
C      1  0.5704785755591  0.9411381516052  0.6351119434557 1.0
C      1  0.8414346791271  0.8486395491148  0.6310105559948 1.0
C      1  0.9188566874894  0.6121893512659  0.6813563958691 1.0
C      1  0.9339367521390  0.3670764102081  0.6486853270349 1.0
C      1  0.8360155185289  0.2383365822311  0.6703565579754 1.0
C      1  0.5523063879922  0.0356073023097  0.6157382049576 1.0
C      1  0.2352249577514  0.5779424482755  0.1936483980026 1.0
C      1  0.3281278383831  0.7060928931901  0.2043732224259 1.0
C      1  0.4643058746161  0.7621783778029  0.1955260717217 1.0
C      1  0.6441892642451  0.7033312443672  0.1803984654244 1.0
C      1  0.7421448157983  0.5890618850632  0.2007793965813 1.0
C      1  0.7590485389153  0.4495097938590  0.1906645418209 1.0
C      1  0.7043437088896  0.3011620242219  0.1848460867186 1.0
C      1  0.5922548509593  0.2139834713290  0.2166247030884 1.0
C      1  0.4226217828879  0.2143374975540  0.1759266306434 1.0
C      1  0.2925438844069  0.2953874321085  0.1923756065602 1.0
C      1  0.2299937023278  0.4267839354965  0.2079931753095 1.0
C      1  0.5257285193726  0.2440859498071  0.6194353504360 1.0
C      1  0.3743783435768  0.2721882138350  0.6353306684919 1.0
C      1  0.2648104631923  0.3768196142914  0.6416959732314 1.0
C      1  0.2481835690550  0.5301429561799  0.6336866059764 1.0
C      1  0.3047899186151  0.6579583516082  0.6150804667776 1.0
C      1  0.4064198629989  0.7659970795086  0.6091517986234 1.0
C      1  0.5473876208485  0.7816638563574  0.5642768691351 1.0
C      1  0.6793553120394  0.6976294976269  0.5790518630372 1.0
C      1  0.7701581882031  0.5730913095224  0.6019414291516 1.0
C      1  0.7474050006989  0.4298945497969  0.5915458101080 1.0
C      1  0.6631578361212  0.2970529221613  0.6087711244243 1.0
C      1  0.5827835644810  0.6283401528236  0.1586344166141 1.0
C      1  0.6400935404242  0.5595136640879  0.2129748026529 1.0
C      1  0.6571965794524  0.4626824054346  0.1674185230803 1.0
C      1  0.6226117130377  0.3611809621129  0.1615519166720 1.0
C      1  0.5435321547216  0.3091763246133  0.2037508649927 1.0
C      1  0.4568045472263  0.3042679327831  0.1433849150000 1.0
C      1  0.3607836181243  0.3613077456211  0.1454440664438 1.0
C      1  0.3176993482595  0.4461017932732  0.1790672720900 1.0
C      1  0.3211267071399  0.5421998488879  0.1500622216567 1.0
C      1  0.3796463175253  0.6316142024360  0.1579899840001 1.0
C      1  0.4797030804513  0.6699707424391  0.1577681467834 1.0
C      1  0.6679999345480  0.7963523366958  0.4430905619660 1.0
C      1  0.7623452216729  0.6627633047532  0.4587858313249 1.0
C      1  0.8136167839552  0.4678579798208  0.4380743401400 1.0
C      1  0.7653068288258  0.3019500824247  0.4784720776063 1.0
C      1  0.6127893444486  0.1895925619552  0.4733402363166 1.0
C      1  0.4365946710852  0.1830879881269  0.4833769182879 1.0
C      1  0.3064039320386  0.2962970450397  0.4821070962548 1.0
C      1  0.1884369103800  0.4272120373431  0.4863996722590 1.0
C      1  0.1980748249519  0.5990185441915  0.4866041246140 1.0
C      1  0.2938529079250  0.7332819947785  0.4844358337422 1.0
C      1  0.4248954601328  0.8182046814113  0.4436506883158 1.0
C      1  0.7498213634843  0.7851048391307  0.7616016108318 1.0
C      1  0.8333624692134  0.5649383249775  0.6905879217249 1.0
C      1  0.8361274268748  0.4168100678925  0.7754601816886 1.0
C      1  0.6869936522507  0.2568817609276  0.6981653609203 1.0
C      1  0.5402911061448  0.1866987328055  0.7093358033992 1.0
C      1  0.3175468461255  0.2188334636946  0.7019499922245 1.0
C      1  0.2189831968127  0.3516385063635  0.7313613605053 1.0
C      1  0.1828347954046  0.5664525142210  0.7041726247195 1.0
C      1  0.2166185285637  0.7199955828619  0.7748918303737 1.0
C      1  0.4190996739573  0.8218681393118  0.6990092083460 1.0
C      1  0.5876181825009  0.8340566484111  0.7597305662397 1.0
C      1  0.7206339212207  0.8774345554654  0.4681422357791 1.0
C      1  0.9272038286002  0.7625910547066  0.5103010977152 1.0
C      1  0.9060441913426  0.4932823505527  0.4494781462702 1.0
C      1  0.9244200055195  0.2919966432278  0.4941007634957 1.0
C      1  0.6916311691956  0.0406975116154  0.4572639704718 1.0
C      1  0.4298762175310  0.0839551938570  0.5000502241429 1.0
C      1  0.1966054409107  0.1405612250057  0.5183604566945 1.0
C      1  0.0923453560144  0.4128195968553  0.4838471079075 1.0
C      1  0.1044452801014  0.6255127473857  0.5162230621617 1.0
C      1  0.1484077652542  0.8722118240500  0.5042435428095 1.0
C      1  0.4303384059607  0.9141314150056  0.4424008264140 1.0
C      1  0.7289175327600  0.6417135761348  0.8194263236871 1.0
C      1  0.7350767485351  0.5461266092805  0.8225036274609 1.0
C      1  0.7001133732374  0.3420819951055  0.8472173223418 1.0
C      1  0.6258237530917  0.2817559295480  0.8401272885973 1.0
C      1  0.4341162963766  0.2590847946960  0.8165991963783 1.0
C      1  0.3438233546725  0.2968705605271  0.8355735421389 1.0
C      1  0.2499973237557  0.4743886691444  0.8474823190407 1.0
C      1  0.2612907042172  0.5696298670623  0.8421181816325 1.0
C      1  0.3691424899072  0.7294176362354  0.8455947701453 1.0
C      1  0.4589828275045  0.7616485434792  0.8388308806721 1.0
C      1  0.6502141528846  0.6922719125790  0.8381548414398 1.0
C      1  0.3731583594003  0.6168217409337  0.6698829443871 1.0
C      1  0.4485443777375  0.6813243033322  0.6555166751658 1.0
C      1  0.5407351472095  0.6967688403923  0.6418661509179 1.0
C      1  0.6273789392878  0.6484676126246  0.6403291068260 1.0
C      1  0.6754676151035  0.5587033413928  0.6431240094237 1.0
C      1  0.6722814693947  0.4638606464348  0.6482179068422 1.0
C      1  0.6050035109311  0.3904533319599  0.6223185851937 1.0
C      1  0.5098766201740  0.3489150292724  0.6317647003098 1.0
C      1  0.4210544294282  0.3586436643879  0.6731061544234 1.0
C      1  0.3562165685668  0.4257686909415  0.6794581961855 1.0
C      1  0.3422185110761  0.5220681275822  0.6757367763709 1.0
C      1  0.7876671544339  0.1698598992274  0.4424441917337 1.0
C      1  0.5509713597657  0.1044678607245  0.3708130315797 1.0
C      1  0.3036738047635  0.1330147809789  0.4086473456839 1.0
C      1  0.1408953146394  0.2737376385094  0.4483736709223 1.0
C      1  0.1052009014429  0.5464301591785  0.3746127725769 1.0
C      1  0.1613800830706  0.7464195380833  0.4240836123291 1.0
C      1  0.2762467401397  0.8855663441132  0.4278720166339 1.0
C      1  0.5862611055308  0.9228543370741  0.4116997294317 1.0
C      1  0.8235431024884  0.7893331840629  0.4030222629554 1.0
C      1  0.8924188247329  0.6449651455188  0.3903844350841 1.0
C      1  0.8853509183942  0.3336758712991  0.3467763635213 1.0
C      1  0.6043175300970  0.5416998845630  0.0111292352184 1.0
C      1  0.6346738797511  0.4665962001279  0.0654325263764 1.0
C      1  0.6078150537021  0.3783535714057  0.0618373225722 1.0
C      1  0.5458290082640  0.3380984481693  0.9989489160571 1.0
C      1  0.4626833386544  0.3283879264097  0.0433673486613 1.0
C      1  0.3769900915035  0.3753649498553  0.0445397367753 1.0
C      1  0.3458896385825  0.4543931338139  0.9993440405641 1.0
C      1  0.3413563449423  0.5367465583117  0.0499425241824 1.0
C      1  0.3897230573316  0.6171268182932  0.0560797869025 1.0
C      1  0.4811205246586  0.6482835510973  0.0588248405686 1.0
C      1  0.5627412218427  0.6061655585813  0.0637504663128 1.0
C      1  0.3525412096920  0.0514458275555  0.4365940523954 1.0
C      1  0.2150494429348  0.1435242063463  0.4269830111241 1.0
C      1  0.0620199806515  0.3403380975739  0.4338377083527 1.0
C      1  0.0422255323208  0.5702612117326  0.4451130200028 1.0
C      1  0.1762556563789  0.8403203169691  0.4169194384267 1.0
C      1  0.3532895673322  0.9556486036032  0.4148836690502 1.0
C      1  0.6749927605456  0.9500814887109  0.4415698732623 1.0
C      1  0.8992628650229  0.7363014558534  0.4197117880074 1.0
C      1  0.9455892291654  0.5760797176736  0.4220435789004 1.0
C      1  0.9627692474100  0.3170008352755  0.4117990245003 1.0
C      1  0.7698740330096  0.0844594853324  0.4596699694351 1.0
C      1  0.1716218025432  0.2701048273744  0.7583763416115 1.0
C      1  0.1319850708442  0.4850136604073  0.7377353277599 1.0
C      1  0.1544709697875  0.7604589468065  0.7186576423945 1.0
C      1  0.3292571896938  0.8353063492782  0.7371204975441 1.0
C      1  0.6077696561440  0.9091723636094  0.7133870218659 1.0
C      1  0.7916023529300  0.8395906387005  0.6972292565641 1.0
C      1  0.8557704579814  0.6571283590137  0.7258985315297 1.0
C      1  0.9088323005435  0.3972632137077  0.7217693002555 1.0
C      1  0.7754203014449  0.2724947881064  0.7317821242168 1.0
C      1  0.5628793669340  0.0967140737949  0.6785158139567 1.0
C      1  0.3739181697370  0.1415984985808  0.7253849592084 1.0
C      1  0.8025148079333  0.3674440629313  0.4057716584292 1.0
C      1  0.7036180554862  0.2290514943814  0.4298112371849 1.0
C      1  0.5185660867628  0.1878234361879  0.4183773653940 1.0
C      1  0.3546611004258  0.2181847488414  0.4263586185246 1.0
C      1  0.2246192206938  0.3372161900715  0.4403188186668 1.0
C      1  0.1908785852223  0.5154468572712  0.4242823492627 1.0
C      1  0.2338735474667  0.6748635680212  0.4282693393597 1.0
C      1  0.3311633730720  0.7984025266137  0.4269869467218 1.0
C      1  0.5975303400848  0.8312841129429  0.3844665702061 1.0
C      1  0.7343548291870  0.7381113439647  0.3990546691574 1.0
C      1  0.7944749803094  0.6177051732198  0.3767307684147 1.0
C      1  0.0573227207607  0.5660994979899  0.5903631076916 1.0
C      1  0.1088330576647  0.8016734264175  0.5595162566027 1.0
C      1  0.2705145724101  0.9188330164619  0.6030578597197 1.0
C      1  0.5447598001918  0.8844193777902  0.5665745690469 1.0
C      1  0.8719342579099  0.8375565481647  0.5429580288340 1.0
C      1  0.9789199643283  0.6261558035730  0.6095306564887 1.0
C      1  0.9403201935660  0.3618405852996  0.5580200939548 1.0
C      1  0.8392204809411  0.2050540714511  0.5946994680502 1.0
C      1  0.5232627892126  0.0408044050891  0.5153106949376 1.0
C      1  0.2726808057804  0.1057968070058  0.5792365570125 1.0
C      1  0.0999731114190  0.2291942142409  0.6127986139837 1.0
C      1  0.5418639582956  0.8027576288750  0.2363244455276 1.0
C      1  0.7239855685412  0.7868844474284  0.1798885498277 1.0
C      1  0.8154879781025  0.5297142988399  0.1675146279164 1.0
C      1  0.8579751640982  0.3322451337388  0.2599915747026 1.0
C      1  0.6863225253318  0.2005716285331  0.1758836022193 1.0
C      1  0.5341208113698  0.1511195335548  0.2737001062201 1.0
C      1  0.3602435793252  0.1185868715606  0.2154337195348 1.0
C      1  0.1935561138542  0.3281819734433  0.1894708920871 1.0
C      1  0.1222709964280  0.5628608697395  0.2849890304787 1.0
C      1  0.1560411071749  0.6340090785088  0.2211635143615 1.0
C      1  0.3646920512735  0.8005797230095  0.1763884776478 1.0
C      1  0.7211359589583  0.3661385078666  0.3524065761738 1.0
C      1  0.6730951009803  0.2809309345063  0.3510128999205 1.0
C      1  0.4885985230311  0.2276312803540  0.3321439079961 1.0
C      1  0.3896792045015  0.2505445308965  0.3325005102624 1.0
C      1  0.2663967421725  0.3646385263276  0.3537843148246 1.0
C      1  0.2532690571000  0.5300003402841  0.3455061827298 1.0
C      1  0.2760836928397  0.6313145614136  0.3441996831290 1.0
C      1  0.3996516070741  0.7604991614980  0.3594134064190 1.0
C      1  0.5621359965241  0.7708634866252  0.3275178560836 1.0
C      1  0.7202881668594  0.6705701509447  0.3234769113636 1.0
C      1  0.7706952213779  0.5233766544291  0.3634230107406 1.0
C      1  0.2033542536815  0.5093884700211  0.2569729415049 1.0
C      1  0.2492527323792  0.6642165636018  0.2516765933980 1.0
C      1  0.3891499111460  0.7655026870920  0.2628188877904 1.0
C      1  0.6308049564314  0.7939699404922  0.1991361174533 1.0
C      1  0.7290279958525  0.6861397804600  0.2240601918321 1.0
C      1  0.7855589030275  0.5168451202858  0.2621575931979 1.0
C      1  0.7858671318823  0.3547409730329  0.2077873571543 1.0
C      1  0.6742233760749  0.2416726350317  0.2629383130566 1.0
C      1  0.4540202326502  0.1362188510818  0.2189847656925 1.0
C      1  0.3460224411475  0.2222834444893  0.2350371651091 1.0
C      1  0.2398228786638  0.3402378013243  0.2698240746645 1.0
C      1  0.4016011815697  0.6438429032318  0.8799174604646 1.0
C      1  0.4933887789283  0.6798450808772  0.8813308602686 1.0
C      1  0.5790744194718  0.6457751067055  0.8815485750607 1.0
C      1  0.6060248084536  0.5598649073187  0.9201583983165 1.0
C      1  0.6647204697018  0.5022627875696  0.8713799401339 1.0
C      1  0.6473026363873  0.4115367831938  0.8797310175677 1.0
C      1  0.5634996660486  0.3469963061304  0.8978529884334 1.0
C      1  0.4738995600821  0.3420941779541  0.8540889907577 1.0
C      1  0.3868344953712  0.3790718320289  0.8636868931787 1.0
C      1  0.3423494989469  0.4626458049157  0.8972643349288 1.0
C      1  0.3499363324706  0.5671105122208  0.8770936080112 1.0
C      1  0.8411116179811  0.2343134155733  0.5027096854096 1.0
C      1  0.6039955707309  0.0885786985268  0.4610471801322 1.0
C      1  0.3406740723412  0.0624429959521  0.5353328136562 1.0
C      1  0.1348810753072  0.2135140945021  0.5292601136547 1.0
C      1  0.0395301114191  0.4918153297545  0.5157650829752 1.0
C      1  0.1076343415309  0.7253770496893  0.5033871243285 1.0
C      1  0.2331524108484  0.9076886533654  0.5206440653350 1.0
C      1  0.5163192503981  0.9429310458974  0.4823182406468 1.0
C      1  0.8134411632603  0.8548159358566  0.4711309338394 1.0
C      1  0.9624008847015  0.6994806504976  0.5628418490694 1.0
C      1  0.9539738705031  0.4483828955061  0.5130780043880 1.0
C      1  0.3740198177945  0.5986438326052  0.3494388327819 1.0
C      1  0.4421210386943  0.6669154131283  0.3764761305740 1.0
C      1  0.5559080450545  0.6680713271190  0.3575692360043 1.0
C      1  0.6333217400859  0.5989363918013  0.3200244804466 1.0
C      1  0.6657844422350  0.5149075709838  0.3776169745088 1.0
C      1  0.6499800487263  0.4209132742522  0.3503013780954 1.0
C      1  0.5860097688234  0.3438424967359  0.3712255962056 1.0
C      1  0.5140248125430  0.3221419036127  0.3051141498343 1.0
C      1  0.4189435193088  0.3468869206456  0.3266436280469 1.0
C      1  0.3586128591663  0.4109155524779  0.3471137626354 1.0
C      1  0.3499423418389  0.5082262963535  0.3465484839671 1.0
C      1  0.5599116736182  0.3391318903097  0.4792034684424 1.0
C      1  0.4670999781460  0.3375957750176  0.5298247230506 1.0
C      1  0.3719526579508  0.3699250036920  0.5128982779974 1.0
C      1  0.3312925195896  0.4558402326392  0.5274927133591 1.0
C      1  0.3498948591840  0.5440989897446  0.5194795530841 1.0
C      1  0.4352386363350  0.5834464934517  0.5178565723883 1.0
C      1  0.4663751051617  0.6674588658717  0.4763225600730 1.0
C      1  0.5677006259262  0.6583384428132  0.4618202532225 1.0
C      1  0.5825603349153  0.5668809409859  0.5033019877667 1.0
C      1  0.6356932351889  0.4999834140924  0.4736921729004 1.0
C      1  0.6236976149991  0.4050552143492  0.5177540576564 1.0
C      1  0.5089076517530  0.5132475370989  0.6483063200967 1.0
C      1  0.5072427977999  0.5443436711698  0.5610662864272 1.0
C      1  0.5136773380103  0.5087301506942  0.7326887846870 1.0
END
