TITL C-164774-6267-31 -2.914 3375.00 -482.22489827 0 0 60 (Cs) n - 1
REM
REM Run started: at 2020.11.28 02:49:06 in /rds/project/t2_vol4/rds-t2-cs072/BORA/CARBON/AIRSS/Generating-Clusters/Str-Search/Higher-Symm/Only-C60/Try2-TRACK-ENABLED
REM VASP from code version vasp.5.4.4.18Apr17-6-g9f103f2a35 (build Oct 11 2019 16:45:47) gamma-only
REM
REM
REM
REM
REM ./C.cell (5f7b7a0d59291d2373303da1f58b8d66)
REM AIRSS Version 0.9.1 bugfix July 2018 build 013d7b7c2542+ Fri, 06 Jul 2018 19:26:36 +0100
REM compiler GCC version 4.8.5 20150623 (Red Hat 4.8.5-39)
REM options -cpp -mtune=generic -march=x86-64 -g -O0
REM seed 877013859 -1490766416 2121695007 -892104271 1185275053 794716269 911455148 1537172187 451896894 -201642921 -1221102942 1445973790
REM
REM C.POTCAR (d86ddea03c3ceb6dc662c8ad6801f873)
REM 
CELL 1.54180   15.00000   15.00000   15.00000   90.00000   90.00000   90.00000
LATT -1
SFAC C  
C      1  0.4497249264008  0.4260163877980  0.2522077014711 1.0
C      1  0.5502749449804  0.4260163526804  0.2522076709103 1.0
C      1  0.2443143050286  0.4670015802248  0.3586530804707 1.0
C      1  0.7556854722304  0.4670017007041  0.3586529688446 1.0
C      1  0.1951413541637  0.6276091056116  0.6106199190084 1.0
C      1  0.8048593082778  0.6276093111999  0.6106191199031 1.0
C      1  0.5521835169096  0.5101117758079  0.6543968591322 1.0
C      1  0.4478166843108  0.5101118031555  0.6543970178182 1.0
C      1  0.3459097675864  0.6691604609346  0.5977812994834 1.0
C      1  0.6540902594916  0.6691605102677  0.5977809473583 1.0
C      1  0.6131602127330  0.6184255966926  0.5283843813265 1.0
C      1  0.3868395868570  0.6184255043550  0.5283846321991 1.0
C      1  0.5486163768635  0.3541920021585  0.4093879265011 1.0
C      1  0.4513835146767  0.3541920295868  0.4093879652757 1.0
C      1  0.4103186406181  0.5068150308888  0.2309985697950 1.0
C      1  0.5896812623567  0.5068149642345  0.2309984331871 1.0
C      1  0.6033378075951  0.2901597917851  0.5641504186050 1.0
C      1  0.3966622374332  0.2901597782465  0.5641504380573 1.0
C      1  0.8132858145805  0.5386999911563  0.6224068537734 1.0
C      1  0.1867140178834  0.5386998605197  0.6224077079259 1.0
C      1  0.4466513785103  0.5394382822840  0.3887327806956 1.0
C      1  0.5533484808212  0.5394382878933  0.3887326714164 1.0
C      1  0.4512494767821  0.5970395590093  0.7104983491116 1.0
C      1  0.5487508412795  0.5970395610345  0.7104982264310 1.0
C      1  0.5446977815127  0.5594330728900  0.5641546782015 1.0
C      1  0.4553021442330  0.5594330387770  0.5641548080641 1.0
C      1  0.4074058930843  0.4474723706716  0.4069343993129 1.0
C      1  0.5925939868775  0.4474723389056  0.4069342817369 1.0
C      1  0.3122087461556  0.3392913021887  0.5500406379189 1.0
C      1  0.6877913559880  0.3392911607087  0.5500406193162 1.0
C      1  0.2534916511483  0.6866100400598  0.6012696098193 1.0
C      1  0.7465082716050  0.6866097718367  0.6012687679757 1.0
C      1  0.5419810456478  0.7486846121304  0.6988287937119 1.0
C      1  0.4580193604270  0.7486845724849  0.6988286713872 1.0
C      1  0.5961815692281  0.6747007079030  0.6804003850992 1.0
C      1  0.4038187144700  0.6747007054948  0.6804005606231 1.0
C      1  0.7608278705743  0.4745072934957  0.6162407832284 1.0
C      1  0.2391723650204  0.4745072217902  0.6162410356886 1.0
C      1  0.4013787972433  0.3820742161633  0.3269835475706 1.0
C      1  0.5986210383623  0.3820741870997  0.3269834630968 1.0
C      1  0.3955475416013  0.5616801821089  0.2989312915724 1.0
C      1  0.6044522325824  0.5616801757614  0.2989311425196 1.0
C      1  0.6009979494096  0.4238897793907  0.6443622372239 1.0
C      1  0.3990022142720  0.4238897877959  0.6443624312442 1.0
C      1  0.3826219818224  0.6059307443572  0.4350829056806 1.0
C      1  0.6173777820795  0.6059308654361  0.4350826854511 1.0
C      1  0.4525523304036  0.3472352103919  0.6187282915519 1.0
C      1  0.5474477287807  0.3472351478895  0.6187282000659 1.0
C      1  0.6722500317667  0.6054504218293  0.3562680870383 1.0
C      1  0.3277497307908  0.6054503574261  0.3562682972837 1.0
C      1  0.3037010644028  0.3281041107614  0.4525087485983 1.0
C      1  0.6962987608541  0.3281041866101  0.4525087001462 1.0
C      1  0.3091377944894  0.4143387961444  0.6092696366341 1.0
C      1  0.6908623725265  0.4143387220941  0.6092696223517 1.0
C      1  0.7491472937324  0.5500428147244  0.3579206495436 1.0
C      1  0.2508525852476  0.5500426814369  0.3579208359852 1.0
C      1  0.6854564482979  0.4043675306596  0.3847435443769 1.0
C      1  0.3145434294857  0.4043675099436  0.3847436778774 1.0
C      1  0.3947228176215  0.3015172753044  0.4691138717464 1.0
C      1  0.6052771298853  0.3015172591048  0.4691137616562 1.0
END
