TITL C-166574-5633-8 -1.16 3375.00 -175.95923082 0 0 23 (C1) n - 1
REM
REM Run started: at 2020.11.24 21:29:40 in /rds/project/t2_vol4/rds-t2-cs072/BORA/CARBON/AIRSS/Generating-Clusters/Str-Search/Higher-Symm
REM VASP from code version vasp.5.4.4.18Apr17-6-g9f103f2a35 (build Oct 11 2019 16:45:47) gamma-only
REM
REM
REM
REM
REM ./C.cell (e5ae0387ce4d49c7c0135a1433873289)
REM AIRSS Version 0.9.1 bugfix July 2018 build 013d7b7c2542+ Fri, 06 Jul 2018 19:26:36 +0100
REM compiler GCC version 4.8.5 20150623 (Red Hat 4.8.5-39)
REM options -cpp -mtune=generic -march=x86-64 -g -O0
REM seed 1051019506 26191901 -1048648771 777916701 -1611251310 -1154561809 -1538252431 718815895 2126269048 -1583563243 1728150073 -1574084858
REM
REM C.POTCAR (d86ddea03c3ceb6dc662c8ad6801f873)
REM 
CELL 1.54180   15.00000   15.00000   15.00000   90.00000   90.00000   90.00000
LATT -1
SFAC C  
C      1  0.6361454776875  0.5613863181398  0.6130566743660 1.0
C      1  0.3607968643555  0.4344718043853  0.3432461336043 1.0
C      1  0.4632509825345  0.5071350916945  0.4155093856723 1.0
C      1  0.5195391568312  0.4861935315456  0.5932028529276 1.0
C      1  0.5396107604872  0.6108924055742  0.4851452971516 1.0
C      1  0.4510003304102  0.3552854712871  0.5405775757313 1.0
C      1  0.4469584605956  0.4163282048793  0.6105096060300 1.0
C      1  0.5471731354172  0.5642409453849  0.3980485535528 1.0
C      1  0.4584367239357  0.3460695268097  0.4570749911738 1.0
C      1  0.5865644504437  0.6332946378527  0.5676966060408 1.0
C      1  0.5487573009672  0.5793548066716  0.6417117071420 1.0
C      1  0.4389325624620  0.4110133468265  0.3926934243437 1.0
C      1  0.7129899541492  0.4169535076541  0.4424166796693 1.0
C      1  0.2886209604404  0.5434137953081  0.5275492448822 1.0
C      1  0.6242196352629  0.4687930445394  0.5832446339084 1.0
C      1  0.3638069673506  0.5181752834790  0.3886885828916 1.0
C      1  0.6738910329973  0.4776059576230  0.3872323318486 1.0
C      1  0.3031072511065  0.5084003088188  0.6090034575179 1.0
C      1  0.6228791848881  0.5361995607197  0.3532522722651 1.0
C      1  0.3640214912128  0.4528964454875  0.6281754337434 1.0
C      1  0.6686242085909  0.4296201729809  0.5160220802890 1.0
C      1  0.3022695463115  0.5581699333128  0.4458944701768 1.0
C      1  0.4944036615621  0.5329338990254  0.5074634050714 1.0
END
