TITL C-163590-8656-25 -4.44 3375.00 -795.94723941 0 0 98 (C2v) n - 1
REM
REM Run started: at 2020.11.27 11:42:11 in /rds/project/t2_vol4/rds-t2-cs072/BORA/CARBON/AIRSS/Generating-Clusters/Str-Search/Higher-Symm/C10-100
REM VASP from code version vasp.5.4.4.18Apr17-6-g9f103f2a35 (build Oct 11 2019 16:45:47) gamma-only
REM
REM
REM
REM
REM ./C.cell (f39ce9773e2efe3fa5bbdf770a4156b8)
REM AIRSS Version 0.9.1 bugfix July 2018 build 013d7b7c2542+ Fri, 06 Jul 2018 19:26:36 +0100
REM compiler GCC version 4.8.5 20150623 (Red Hat 4.8.5-39)
REM options -cpp -mtune=generic -march=x86-64 -g -O0
REM seed -1739699798 1432089579 1463828878 -2052935533 1443373300 -1111946068 -1914034247 -859622529 -64916082 -1960079601 485411080 1427673629
REM
REM C.POTCAR (d86ddea03c3ceb6dc662c8ad6801f873)
REM 
CELL 1.54180   15.00000   15.00000   15.00000   90.00000   90.00000   90.00000
LATT -1
SFAC C  
C      1  0.7113701590021  0.4495024557883  0.7280612074487 1.0
C      1  0.7113696711024  0.5504973809462  0.2719392291720 1.0
C      1  0.2839684373762  0.4497340493869  0.7310465543655 1.0
C      1  0.2839684785787  0.5502657021147  0.2689529017225 1.0
C      1  0.7113704121928  0.4494987602500  0.2719413456495 1.0
C      1  0.7113707623062  0.5505016059411  0.7280589590615 1.0
C      1  0.2839674375199  0.4497351574851  0.2689526616991 1.0
C      1  0.2839674872405  0.5502652495968  0.7310468011359 1.0
C      1  0.5951014810425  0.2417151535251  0.5561320094608 1.0
C      1  0.5951008851541  0.7582844410864  0.4438687265476 1.0
C      1  0.3931416088637  0.2582362566034  0.5485659395847 1.0
C      1  0.3931413138350  0.7417628404889  0.4514345805022 1.0
C      1  0.5950988613353  0.2417156620596  0.4438731569735 1.0
C      1  0.5950989318800  0.7582853422902  0.5561280126921 1.0
C      1  0.3931430121986  0.2582374287339  0.4514344169560 1.0
C      1  0.3931427623827  0.7417633948525  0.5485657340142 1.0
C      1  0.6297158436163  0.6777103766648  0.6816024823354 1.0
C      1  0.6297159216625  0.3222894377953  0.3183964008413 1.0
C      1  0.3648611182259  0.6773323498389  0.6836061862509 1.0
C      1  0.3648606676481  0.3226677601806  0.3163934478621 1.0
C      1  0.6297144045765  0.6777074260004  0.3183930688131 1.0
C      1  0.6297150099012  0.3222923419294  0.6816069772407 1.0
C      1  0.3648618063932  0.6773315693152  0.3163956242580 1.0
C      1  0.3648623952490  0.3226686405753  0.6836037296965 1.0
C      1  0.4110421429578  0.5976061450671  0.6161086170194 1.0
C      1  0.4110423802243  0.4023939849989  0.3838917462082 1.0
C      1  0.5807929158350  0.5993856624775  0.6124432827536 1.0
C      1  0.5807925252076  0.4006140881746  0.3875571372928 1.0
C      1  0.4110401537522  0.5976052344075  0.3838890836365 1.0
C      1  0.4110395704122  0.4023948111097  0.6161110212506 1.0
C      1  0.5807930032215  0.5993841295693  0.3875570369277 1.0
C      1  0.5807933216350  0.4006159139158  0.6124429430226 1.0
C      1  0.6924786111942  0.7268386476930  0.5479838057209 1.0
C      1  0.6924788291353  0.2731612600711  0.4520170030799 1.0
C      1  0.2996656296828  0.7305210106103  0.5549604111035 1.0
C      1  0.2996657099230  0.2694793308565  0.4450395434973 1.0
C      1  0.6924787069689  0.7268375229760  0.4520102175580 1.0
C      1  0.6924791039278  0.2731623629347  0.5479901953983 1.0
C      1  0.2996650727202  0.7305196066118  0.4450420915643 1.0
C      1  0.2996649063925  0.2694801769874  0.5549579956637 1.0
C      1  0.6285487458066  0.5960855142356  0.2630905070475 1.0
C      1  0.6285490522076  0.4039137446672  0.7369099409217 1.0
C      1  0.3669268826382  0.5959355584063  0.2605369533623 1.0
C      1  0.3669270116154  0.4040641778178  0.7394632239102 1.0
C      1  0.6285504008626  0.5960904895181  0.7369080966403 1.0
C      1  0.6285496962317  0.4039084134431  0.2630925911437 1.0
C      1  0.3669268031690  0.5959343362132  0.7394629983979 1.0
C      1  0.3669263189528  0.4040658079292  0.2605369290890 1.0
C      1  0.7426446300903  0.5460622422972  0.5854688777200 1.0
C      1  0.7426450209780  0.4539384427396  0.4145311905460 1.0
C      1  0.2507069473403  0.5459861453889  0.5894820984937 1.0
C      1  0.2507069945913  0.4540141277874  0.4105178875441 1.0
C      1  0.7426450039362  0.5460613303102  0.4145298703316 1.0
C      1  0.7426446322854  0.4539386487860  0.5854693542925 1.0
C      1  0.2507103812175  0.5459870758303  0.4105169945475 1.0
C      1  0.2507101432288  0.4540129143074  0.5894827849819 1.0
C      1  0.5489750261858  0.4496153680852  0.3034027920414 1.0
C      1  0.5489754791376  0.5503847130729  0.6965971919943 1.0
C      1  0.4460700350748  0.4502131481975  0.3000375434566 1.0
C      1  0.4460698441301  0.5497867233387  0.6999622873217 1.0
C      1  0.5489745668904  0.4496165826089  0.6965983532917 1.0
C      1  0.5489746021958  0.5503828832148  0.3034015413422 1.0
C      1  0.4460701707135  0.4502138234191  0.6999648624696 1.0
C      1  0.4460704729401  0.5497859742979  0.3000348564303 1.0
C      1  0.4432287366846  0.3049619496955  0.3802514581146 1.0
C      1  0.4432288420869  0.6950385342061  0.6197484071096 1.0
C      1  0.5488085407162  0.3045362556549  0.3796800751415 1.0
C      1  0.5488084320052  0.6954637880078  0.6203207669855 1.0
C      1  0.4432291479251  0.3049640453842  0.6197455093790 1.0
C      1  0.4432287760458  0.6950355214573  0.3802540973935 1.0
C      1  0.5488096100731  0.3045386143802  0.6203220582251 1.0
C      1  0.5488091846285  0.6954613933341  0.3796779641131 1.0
C      1  0.6420699634282  0.5522952529563  0.5515147066705 1.0
C      1  0.6420702520335  0.4477047415354  0.4484853274346 1.0
C      1  0.3498740022588  0.5521542593671  0.5532044035286 1.0
C      1  0.3498738938169  0.4478459590897  0.4467957477340 1.0
C      1  0.6420705977779  0.5522948725595  0.4484841154389 1.0
C      1  0.6420701977658  0.4477051766811  0.5515156937325 1.0
C      1  0.3498738539444  0.5521552895828  0.4467959745943 1.0
C      1  0.3498739369321  0.4478451577928  0.5532041890695 1.0
C      1  0.7148839028283  0.6882790760537  0.3653479273065 1.0
C      1  0.7148850945947  0.3117220426079  0.6346518919826 1.0
C      1  0.2783995941011  0.6886835546954  0.3604910013391 1.0
C      1  0.2783999570066  0.3113168230672  0.6395084850709 1.0
C      1  0.7148852872778  0.6882804069132  0.6346477212027 1.0
C      1  0.7148850867890  0.3117192367167  0.3653525052008 1.0
C      1  0.2783980890532  0.6886837447154  0.6395106096765 1.0
C      1  0.2783977864040  0.3113162878096  0.3604892261554 1.0
C      1  0.7595441965810  0.6049198768642  0.6575140482104 1.0
C      1  0.7595432046538  0.3950793389345  0.3424857638298 1.0
C      1  0.2335405944688  0.6055266495913  0.6621277295186 1.0
C      1  0.2335404996637  0.3944731193471  0.3378715224555 1.0
C      1  0.7595442033538  0.6049178109373  0.3424816341092 1.0
C      1  0.7595445532665  0.3950826080704  0.6575177083901 1.0
C      1  0.2335415565821  0.6055281298403  0.3378702554552 1.0
C      1  0.2335411454142  0.3944719719378  0.6621290145054 1.0
C      1  0.5485865132859  0.8185535679004  0.4999986634909 1.0
C      1  0.5485866516591  0.1814460844903  0.5000017841368 1.0
END
