TITL C-166211-3400-1 -8.035 3375.00 -1540.22795359 0 0 190 (C1) n - 1
REM
REM Run started: at 2020.12.20 23:14:56 in /rds/project/t2_vol4/rds-t2-cs072/BORA/CARBON/AIRSS/Generating-Clusters/Str-Search/Higher-Symm/C100-200
REM VASP from code version vasp.5.4.4.18Apr17-6-g9f103f2a35 (build Oct 11 2019 16:45:47) gamma-only
REM
REM
REM
REM
REM ./C.cell (533062f00bc710175b3da973d35f2034)
REM AIRSS Version 0.9.1 bugfix July 2018 build 013d7b7c2542+ Fri, 06 Jul 2018 19:26:36 +0100
REM compiler GCC version 4.8.5 20150623 (Red Hat 4.8.5-39)
REM options -cpp -mtune=generic -march=x86-64 -g -O0
REM seed -1467753327 813967669 1676462036 -992195172 -1332093372 1048388911 1718917420 211891986 855660693 1771778464 -1629402810 2144891957
REM
REM C.POTCAR (d86ddea03c3ceb6dc662c8ad6801f873)
REM 
CELL 1.54180   15.00000   15.00000   15.00000   90.00000   90.00000   90.00000
LATT -1
SFAC C  
C      1  0.4887061167539  0.4518599338719  0.6944806814577 1.0
C      1  0.3978226662338  0.4961952160451  0.6634050015119 1.0
C      1  0.3365795050567  0.4480147226490  0.6019502632673 1.0
C      1  0.3085914310883  0.4696739254860  0.5108945251323 1.0
C      1  0.3508918873452  0.4662873408971  0.4177410964072 1.0
C      1  0.4284302166156  0.4326756421751  0.3659379635679 1.0
C      1  0.5248561779369  0.4648711682363  0.3632347909386 1.0
C      1  0.6114009158078  0.4365800843718  0.4046567001240 1.0
C      1  0.6499464632958  0.4671923891789  0.4924074920830 1.0
C      1  0.6371619065291  0.4468156667290  0.5907011005300 1.0
C      1  0.5785929261246  0.4888099914884  0.6601068334983 1.0
C      1  0.4464302278924  0.7052749469116  0.3979629651149 1.0
C      1  0.5286383338769  0.7474329815645  0.3763525387663 1.0
C      1  0.6065513162434  0.7029191026870  0.4063756420438 1.0
C      1  0.6511318763747  0.7585231650817  0.4710584829776 1.0
C      1  0.6424752257459  0.7158802250140  0.5570890518115 1.0
C      1  0.5937271564927  0.7725603701323  0.6185776734952 1.0
C      1  0.5063154130649  0.7459675209908  0.6455834282721 1.0
C      1  0.4394346592054  0.8156765987668  0.6437065285963 1.0
C      1  0.3508085432719  0.7966789541962  0.6092976308362 1.0
C      1  0.3556090534688  0.7282505645964  0.5388572273607 1.0
C      1  0.3913619079620  0.7583040709986  0.4584794268297 1.0
C      1  0.5667944400674  0.7974569812798  0.1716492397387 1.0
C      1  0.7396436147883  0.7975484937125  0.2573501502602 1.0
C      1  0.8400557451173  0.8018575019744  0.4213672714995 1.0
C      1  0.8258644495163  0.8068904950585  0.6146375105472 1.0
C      1  0.7108364766104  0.8066719389408  0.7723589232534 1.0
C      1  0.5304500900944  0.8019893054732  0.8439341085036 1.0
C      1  0.3399341222206  0.7959085680492  0.8077828660251 1.0
C      1  0.2705912846839  0.8315512370206  0.6445620256000 1.0
C      1  0.1632305224390  0.8024058994304  0.5021847383985 1.0
C      1  0.2246385997914  0.8008740028530  0.3217609721314 1.0
C      1  0.3756081502230  0.7987845003775  0.2014490420980 1.0
C      1  0.5343040480960  0.7033790151630  0.8412706976226 1.0
C      1  0.3462949491268  0.6961544622389  0.8005262937148 1.0
C      1  0.2558579145729  0.6543398573154  0.6445733350818 1.0
C      1  0.1581432913319  0.7022029041155  0.5011320669401 1.0
C      1  0.2225836968615  0.7024525652449  0.3210850452336 1.0
C      1  0.3746210496801  0.6993629917850  0.2026667747941 1.0
C      1  0.5659540581289  0.6965531370526  0.1757326839424 1.0
C      1  0.7387535561502  0.6989597922220  0.2609122817839 1.0
C      1  0.8386066634802  0.7020963951986  0.4243150682140 1.0
C      1  0.8270203520597  0.7069257994590  0.6168109525738 1.0
C      1  0.7128442822745  0.7075612395301  0.7718867057859 1.0
C      1  0.6137460358250  0.4832862978234  0.9123374391255 1.0
C      1  0.3802300340301  0.4991426475161  0.9098548770246 1.0
C      1  0.2526107155354  0.3700806336884  0.8070812001199 1.0
C      1  0.1084906875401  0.3633867170325  0.6053506273047 1.0
C      1  0.1046539479361  0.4268719108156  0.3770771470200 1.0
C      1  0.2431900477514  0.4055383298629  0.2059478805326 1.0
C      1  0.4512321784838  0.4386461969737  0.1278589919953 1.0
C      1  0.6689211285617  0.4561415769593  0.1604625856834 1.0
C      1  0.8529574129113  0.4318869192765  0.3526602295722 1.0
C      1  0.8701226935891  0.3903094328582  0.5757990493134 1.0
C      1  0.7969374295466  0.4492886484216  0.7798404252065 1.0
C      1  0.6099480777130  0.8634748899180  0.6125347241761 1.0
C      1  0.5473579304947  0.9344788603970  0.6262080476514 1.0
C      1  0.4576709091647  0.9090613617156  0.6337196047782 1.0
C      1  0.3915302332573  0.9590449044995  0.5814374824527 1.0
C      1  0.3671612214094  0.9279538757649  0.4890211246197 1.0
C      1  0.3917333579731  0.8542220462820  0.4374211517839 1.0
C      1  0.4475109840917  0.8828551169473  0.3631514339000 1.0
C      1  0.5318629975888  0.8391864475120  0.3605640188550 1.0
C      1  0.6107314384722  0.8898468604106  0.3779943580865 1.0
C      1  0.6520143339078  0.8544904159581  0.4586872137339 1.0
C      1  0.6472370907881  0.9089057920223  0.5358654907382 1.0
C      1  0.7176883853409  0.2137995783700  0.6156313898272 1.0
C      1  0.6744597492950  0.2170142638594  0.7759679521665 1.0
C      1  0.4858379589526  0.3460133104196  0.6943170326525 1.0
C      1  0.3377807397051  0.2110211853581  0.6995489114152 1.0
C      1  0.2303764236647  0.1737494511230  0.5353562393324 1.0
C      1  0.2566110254928  0.1884505789657  0.3896486654187 1.0
C      1  0.3440713428356  0.2624160461213  0.2757449527339 1.0
C      1  0.4669814851429  0.1459918021433  0.2561940361202 1.0
C      1  0.5833019449878  0.2686286009880  0.2293040933167 1.0
C      1  0.7358296963327  0.2192288424950  0.3074075736145 1.0
C      1  0.7754063522461  0.2128425550222  0.4552981646985 1.0
C      1  0.3916962867909  0.2156320452677  0.6095824335804 1.0
C      1  0.3234378967430  0.2149895020404  0.5249841896268 1.0
C      1  0.3349427252945  0.2294014579778  0.4311334324674 1.0
C      1  0.3930677628692  0.2507372760185  0.3574482186276 1.0
C      1  0.4825412979062  0.2079013236280  0.3368918374772 1.0
C      1  0.5724788924129  0.2495887296596  0.3210733137245 1.0
C      1  0.6540261238844  0.2328946953740  0.3639065127909 1.0
C      1  0.6750707993821  0.2049827619434  0.4618173822293 1.0
C      1  0.6491032951923  0.2377312558288  0.5585465814211 1.0
C      1  0.5509953853705  0.2325380791610  0.5805904992474 1.0
C      1  0.4786155523140  0.2798861820205  0.6163455026407 1.0
C      1  0.5837879205357  0.4858983337361  0.8237391971198 1.0
C      1  0.4071477959565  0.4963007914469  0.8234207076013 1.0
C      1  0.2709026461056  0.4357208893835  0.7422355971693 1.0
C      1  0.1887023639869  0.4008064088470  0.5847951899392 1.0
C      1  0.1903000751240  0.4361173036270  0.4094788576393 1.0
C      1  0.2991952493902  0.4442126272117  0.2713209343149 1.0
C      1  0.4692396168994  0.4436570451631  0.2164029171058 1.0
C      1  0.6408855088398  0.4505402290493  0.2494751296694 1.0
C      1  0.7666598519272  0.4389729810773  0.3836503238416 1.0
C      1  0.7882834257417  0.4253705827141  0.5588023796678 1.0
C      1  0.7244709031676  0.4557046377015  0.7233074606666 1.0
C      1  0.2938170523280  0.8005569741696  0.2521182214048 1.0
C      1  0.4698446268598  0.7970838604455  0.1710208929036 1.0
C      1  0.6590301206694  0.7968435207831  0.2007216273011 1.0
C      1  0.8033629183893  0.7998076740087  0.3317249747513 1.0
C      1  0.8479357298229  0.8041762851460  0.5193808903412 1.0
C      1  0.7806059843865  0.8071228826729  0.7011272755246 1.0
C      1  0.6256923671961  0.8056192937380  0.8197599831250 1.0
C      1  0.4316551836022  0.7982909188370  0.8416560573435 1.0
C      1  0.2771735229785  0.7962917268441  0.7365191603095 1.0
C      1  0.1939202041707  0.7993511472114  0.5931708595413 1.0
C      1  0.1764164000031  0.8026627859616  0.4068285169787 1.0
C      1  0.6136360324287  0.9841666344266  0.3602553683567 1.0
C      1  0.6719183010007  0.0443727844717  0.4008872397940 1.0
C      1  0.6494721459450  0.1069737674017  0.4598049912687 1.0
C      1  0.5872628083672  0.0759695869413  0.5297439730387 1.0
C      1  0.5232087847016  0.1404341513145  0.5639780082233 1.0
C      1  0.4350593922692  0.1267355101770  0.5849465083938 1.0
C      1  0.3881418609987  0.0481080900208  0.5555613574134 1.0
C      1  0.3706744647567  0.0214822801237  0.4615539251876 1.0
C      1  0.4043437704152  0.0451857175463  0.3799340089440 1.0
C      1  0.4503121316896  0.9709395032641  0.3376174583683 1.0
C      1  0.5301516907041  0.0199131834647  0.3327233264240 1.0
C      1  0.2165234462794  0.4329713486339  0.5010386028722 1.0
C      1  0.2708645022185  0.4525300953280  0.3591792634758 1.0
C      1  0.3961797951100  0.4379782345037  0.2778010781867 1.0
C      1  0.5477635455841  0.4556720411563  0.2652186683866 1.0
C      1  0.6794679437773  0.4397609333855  0.3392600661424 1.0
C      1  0.7479638962601  0.4456249040569  0.4767205065728 1.0
C      1  0.7211475995598  0.4374153805352  0.6275824386135 1.0
C      1  0.6362057970798  0.4821768793439  0.7441520426108 1.0
C      1  0.4936424748462  0.4835033362476  0.7916376150369 1.0
C      1  0.3470759502106  0.4883098065207  0.7500500088479 1.0
C      1  0.2610413506525  0.4198680902303  0.6464638355369 1.0
C      1  0.8093191154158  0.2026754531000  0.3690587770351 1.0
C      1  0.8365423452719  0.1662663546961  0.5121735754890 1.0
C      1  0.8083183979779  0.1358783381334  0.6906379055024 1.0
C      1  0.6067297319210  0.2586308637998  0.7979071197575 1.0
C      1  0.4416922140800  0.3035592348995  0.7752168890442 1.0
C      1  0.2530866568617  0.1748224989758  0.6888001440394 1.0
C      1  0.1890711305826  0.1617240708711  0.4524377809511 1.0
C      1  0.2063407590260  0.1968679088119  0.3112658134972 1.0
C      1  0.3368366931093  0.2189921022645  0.1966735970372 1.0
C      1  0.4958694052812  0.1567926661939  0.1628361733444 1.0
C      1  0.6550920144432  0.2374298398080  0.1774483535953 1.0
C      1  0.3710362546986  0.4745673304524  0.9872566537852 1.0
C      1  0.2844918701980  0.2953352955053  0.8248295383505 1.0
C      1  0.0282020764958  0.3471752745247  0.6104055583459 1.0
C      1  0.0240078777559  0.4259514464177  0.3580742632011 1.0
C      1  0.2112009344231  0.3297404409860  0.1991651033126 1.0
C      1  0.3976857038683  0.4467267439651  0.0656849458585 1.0
C      1  0.6583820482320  0.4652468917316  0.0780725264917 1.0
C      1  0.9358563124966  0.4279737558224  0.3498813370066 1.0
C      1  0.9418095830668  0.3586269090589  0.6003446111479 1.0
C      1  0.8661591585367  0.4529945114134  0.8288412519037 1.0
C      1  0.6401879165074  0.4747143368792  0.9906932164493 1.0
C      1  0.6035788138026  0.6090740996084  0.4116309805766 1.0
C      1  0.6463428727608  0.5684806591014  0.4860495880107 1.0
C      1  0.6391797828062  0.6224405171950  0.5637603042692 1.0
C      1  0.5660534131244  0.5840274025854  0.6224643655073 1.0
C      1  0.4931762742909  0.6490909295925  0.6500796634201 1.0
C      1  0.4142860447263  0.5911283712639  0.6243393464108 1.0
C      1  0.3318172064872  0.6332732055948  0.5790259949629 1.0
C      1  0.3173498359204  0.5721668189493  0.5028308426388 1.0
C      1  0.3664674708810  0.5659514968498  0.4267780748730 1.0
C      1  0.4431640147146  0.6122045197651  0.3929349879660 1.0
C      1  0.5241597742896  0.5650528675579  0.3782777350533 1.0
C      1  0.6576745940299  0.6974801955793  0.2044770672996 1.0
C      1  0.8020703724937  0.6995217179768  0.3347980067629 1.0
C      1  0.8480114624061  0.7051721772463  0.5218513316310 1.0
C      1  0.7819880669432  0.7081653677437  0.7030564907839 1.0
C      1  0.6278840098460  0.7052623612671  0.8185624987513 1.0
C      1  0.4352728056988  0.6998848393414  0.8381437704772 1.0
C      1  0.2809657318842  0.6950198500824  0.7278984365834 1.0
C      1  0.1887092603601  0.7009822142484  0.5947148988520 1.0
C      1  0.1726506955323  0.7028872174803  0.4069741771993 1.0
C      1  0.2918615731988  0.7003358536294  0.2529621818605 1.0
C      1  0.4684469713644  0.6983536576081  0.1745576266902 1.0
C      1  0.5647507423899  0.2251602097089  0.1471447591935 1.0
C      1  0.7359030091099  0.2220454775549  0.2141286144312 1.0
C      1  0.8446688474264  0.1290084671102  0.4216073783841 1.0
C      1  0.8039017920439  0.1652955146185  0.5976525438843 1.0
C      1  0.7325603543313  0.1894670748971  0.7106011419240 1.0
C      1  0.5295465247084  0.3019956825697  0.7779128788200 1.0
C      1  0.3582592775595  0.2578538430879  0.7768001818051 1.0
C      1  0.2068071565263  0.1546731473898  0.6234872020525 1.0
C      1  0.1365366849999  0.2034548606216  0.3814333723284 1.0
C      1  0.2487910498606  0.2477999305275  0.2379652937871 1.0
C      1  0.4062869714892  0.1551305787619  0.1799546722718 1.0
C      1  0.5942845978926  0.9901915367238  0.5591826137743 1.0
C      1  0.4777407279333  0.1050864505718  0.3448167915826 1.0
C      1  0.4886155705525  0.5931130864046  0.5607890869115 1.0
END
