TITL C-16433-1793-4 -7.53 3375.00 -1438.50034450 0 0 176 (C1) n - 1
REM
REM Run started: at 2020.12.01 01:39:12 in /rds/project/t2_vol4/rds-t2-cs072/BORA/CARBON/AIRSS/Generating-Clusters/Str-Search/Higher-Symm/C100-200
REM VASP from code version vasp.5.4.4.18Apr17-6-g9f103f2a35 (build Oct 11 2019 16:45:47) gamma-only
REM
REM
REM
REM
REM ./C.cell (533062f00bc710175b3da973d35f2034)
REM AIRSS Version 0.9.1 bugfix July 2018 build 013d7b7c2542+ Fri, 06 Jul 2018 19:26:36 +0100
REM compiler GCC version 4.8.5 20150623 (Red Hat 4.8.5-39)
REM options -cpp -mtune=generic -march=x86-64 -g -O0
REM seed -1716973146 403692518 -291095191 -1185195703 -751082979 -958304619 1530009762 1721764776 -987852872 -1087483688 804358161 -1722997255
REM
REM C.POTCAR (d86ddea03c3ceb6dc662c8ad6801f873)
REM 
CELL 1.54180   15.00000   15.00000   15.00000   90.00000   90.00000   90.00000
LATT -1
SFAC C  
C      1  0.6997707068495  0.5096400826180  0.2645022863587 1.0
C      1  0.6065173262008  0.5208447713739  0.7897795925957 1.0
C      1  0.1979227095123  0.4673657058660  0.4482963844966 1.0
C      1  0.3024419210331  0.4718015883988  0.2721009344709 1.0
C      1  0.3959502310849  0.5040102143497  0.7934552352237 1.0
C      1  0.8074526902558  0.5318565046548  0.4421836671731 1.0
C      1  0.2999185821014  0.4948023655804  0.7375924918585 1.0
C      1  0.3972340131676  0.4785095740836  0.2145291994185 1.0
C      1  0.8072328158224  0.5374547789909  0.5528241581286 1.0
C      1  0.7024734841454  0.5281579205885  0.7332358306847 1.0
C      1  0.6034072986444  0.4966600385309  0.2104313722141 1.0
C      1  0.1953598815084  0.4751541711198  0.5590404003814 1.0
C      1  0.7040059614580  0.7638245705920  0.3236457735083 1.0
C      1  0.5104619840739  0.7533820131283  0.8096085705050 1.0
C      1  0.2507788588632  0.7235230434789  0.3783004892954 1.0
C      1  0.3177258595371  0.2179720319775  0.3637650507888 1.0
C      1  0.4746986190938  0.2645756655366  0.8335201730985 1.0
C      1  0.7672315981520  0.2748823018981  0.3793827685734 1.0
C      1  0.2863271982132  0.2444544839434  0.6769529395352 1.0
C      1  0.4687462250928  0.2468618319842  0.1655702757038 1.0
C      1  0.7559745864735  0.2772484230440  0.6222217770894 1.0
C      1  0.6809382848327  0.7805659356875  0.6347331887032 1.0
C      1  0.5330590474890  0.7238055962101  0.1426720240506 1.0
C      1  0.2251311329022  0.7329528969071  0.6210935638146 1.0
C      1  0.8712018667070  0.6087387206215  0.5909587846790 1.0
C      1  0.2159384076231  0.5324630131531  0.7796436787912 1.0
C      1  0.3858898015434  0.5123161702157  0.1214388984205 1.0
C      1  0.1196990490540  0.4224389570010  0.6020560674237 1.0
C      1  0.7838497612651  0.4812598388080  0.7734491874591 1.0
C      1  0.6116643399830  0.4550426164685  0.1201209816499 1.0
C      1  0.1342373303206  0.3950959977027  0.4101125042093 1.0
C      1  0.7830905007893  0.4706123329304  0.2219894767603 1.0
C      1  0.6161835049196  0.4769576057530  0.8791573453543 1.0
C      1  0.8787349589816  0.5909145278868  0.3982007776820 1.0
C      1  0.2205881336868  0.5168408301034  0.2314039576715 1.0
C      1  0.3850287143412  0.5444726723362  0.8834366743993 1.0
C      1  0.6938099226008  0.2019294890348  0.5953277803334 1.0
C      1  0.3486399068630  0.1892808979961  0.6236928601718 1.0
C      1  0.4725089155583  0.1545160385643  0.1776498504908 1.0
C      1  0.2768680639705  0.8173303145504  0.6057557547779 1.0
C      1  0.6080594333243  0.8454537599578  0.6004986837434 1.0
C      1  0.5282040853305  0.8163428601593  0.1541115812862 1.0
C      1  0.3126703977098  0.7957869364180  0.4123101333014 1.0
C      1  0.6288952490165  0.8206346961576  0.3626078575797 1.0
C      1  0.4754093484039  0.8342541007875  0.7643943523324 1.0
C      1  0.7065140689627  0.1968443586826  0.3983354451383 1.0
C      1  0.3933799258276  0.1534952952187  0.3955798934435 1.0
C      1  0.4790799424545  0.1770883719096  0.7962315821786 1.0
C      1  0.5607212486484  0.7981482334094  0.4371444850484 1.0
C      1  0.4131946674680  0.8232990311422  0.7022443734067 1.0
C      1  0.4039815576252  0.7872544333992  0.4504676676029 1.0
C      1  0.4645935543312  0.1831901833553  0.4688208986032 1.0
C      1  0.5227525166328  0.2568666283442  0.6025431491598 1.0
C      1  0.6099434459758  0.1962319114300  0.4059755411302 1.0
C      1  0.4405943577756  0.2047930417759  0.5711790727660 1.0
C      1  0.5289824228543  0.2481403353999  0.4125074870422 1.0
C      1  0.5988953362553  0.2059855634960  0.5757608523383 1.0
C      1  0.5409899564615  0.8283073568930  0.5273209598973 1.0
C      1  0.4818985648507  0.7514718026908  0.4038192263104 1.0
C      1  0.3790279863159  0.8250657090392  0.6185067554035 1.0
C      1  0.8440071967527  0.6712641994513  0.3610770025898 1.0
C      1  0.4307157620502  0.6259481899105  0.8954906638282 1.0
C      1  0.2072621140648  0.6051111743602  0.2645446330072 1.0
C      1  0.1763052631032  0.3111982947267  0.3916789576434 1.0
C      1  0.5696580425459  0.3953740771818  0.8935908907980 1.0
C      1  0.8113205986976  0.3899653956108  0.2617593419983 1.0
C      1  0.1486669984505  0.3430449046496  0.6448387558031 1.0
C      1  0.5591855720194  0.3789276351492  0.1019155213524 1.0
C      1  0.8004111254382  0.3949707037116  0.7368978734177 1.0
C      1  0.8276401473475  0.6921252103210  0.6095625004070 1.0
C      1  0.4372768635986  0.5875364756532  0.0962841585689 1.0
C      1  0.1879969795077  0.6138762946514  0.7401978890920 1.0
C      1  0.5785772921076  0.8951525398782  0.6710099929573 1.0
C      1  0.2521511827734  0.8646072741002  0.5333019621266 1.0
C      1  0.5634695325640  0.8619621097106  0.2175071176282 1.0
C      1  0.4184772107935  0.1381584689201  0.6454455137202 1.0
C      1  0.7406294877032  0.1275528952904  0.5530940293137 1.0
C      1  0.4414386835365  0.1107162462747  0.2446091335517 1.0
C      1  0.4204114382527  0.1000665099640  0.3281434663553 1.0
C      1  0.7362436056960  0.1471943383689  0.4702827285742 1.0
C      1  0.4543913553926  0.1287099336057  0.7333237724911 1.0
C      1  0.5878415516393  0.8724489889869  0.3007850271698 1.0
C      1  0.2648387668304  0.8668158539092  0.4490168534380 1.0
C      1  0.5355103429180  0.9103774622263  0.7425232624515 1.0
C      1  0.3306401368582  0.5752554232739  0.4107504529572 1.0
C      1  0.6493112433683  0.6040547473677  0.3980359400333 1.0
C      1  0.4960673877947  0.6048475390514  0.6858934083675 1.0
C      1  0.6740372441170  0.4226899518641  0.4142302054366 1.0
C      1  0.3554625326796  0.3923068367275  0.4137979777397 1.0
C      1  0.5077370975513  0.4059503790271  0.6997473435696 1.0
C      1  0.6742226843612  0.4302163279098  0.5922340808598 1.0
C      1  0.3533860816808  0.4013541870778  0.6045950721302 1.0
C      1  0.5085784009656  0.3887981977518  0.3146293113674 1.0
C      1  0.3287302052061  0.5841175482634  0.5893287674515 1.0
C      1  0.6499710747293  0.6095171180308  0.5904587015662 1.0
C      1  0.4941740997905  0.5983846020721  0.3025651158325 1.0
C      1  0.2367924035038  0.5747545537897  0.5513125407624 1.0
C      1  0.5752375482204  0.5911853794796  0.2462545163399 1.0
C      1  0.6628182240037  0.6201269101180  0.6880442072803 1.0
C      1  0.7655355742661  0.4338724312335  0.5530187068937 1.0
C      1  0.4267508997827  0.3888713211139  0.2592504724453 1.0
C      1  0.3386621880669  0.4027833840387  0.7017281593450 1.0
C      1  0.7662777169749  0.4319870270232  0.4504305056035 1.0
C      1  0.4256893302254  0.4099050636287  0.7561209265732 1.0
C      1  0.3421935734582  0.3807295074842  0.3172017060247 1.0
C      1  0.2389629705227  0.5705667839481  0.4488946065649 1.0
C      1  0.5769187696871  0.6108675830899  0.7440930312746 1.0
C      1  0.6615857886987  0.6025816844960  0.3006552655711 1.0
C      1  0.0520768824065  0.3937349116095  0.4524496316732 1.0
C      1  0.7797488403092  0.4780448220375  0.1303543519498 1.0
C      1  0.7015619382608  0.4874673896337  0.9085251574508 1.0
C      1  0.9553668336565  0.6012737479965  0.4486165780619 1.0
C      1  0.2166531586848  0.5001510149735  0.1405344515663 1.0
C      1  0.3013601982304  0.5278791498026  0.9148644183688 1.0
C      1  0.9523501073848  0.6119122872890  0.5474337701815 1.0
C      1  0.2178337105532  0.5202671235969  0.8709491302824 1.0
C      1  0.2998334441766  0.4992128980537  0.0943130573950 1.0
C      1  0.0447723132039  0.4110089634425  0.5494259964479 1.0
C      1  0.7860784700900  0.4922959949643  0.8652932056885 1.0
C      1  0.6957122406274  0.4678332079416  0.0878211128393 1.0
C      1  0.2298681354471  0.6790530278561  0.2976183206133 1.0
C      1  0.7858587034547  0.7310045007760  0.3542057634175 1.0
C      1  0.4616433467781  0.6964318456704  0.8649898524553 1.0
C      1  0.7916770048091  0.3184829757638  0.3003461420422 1.0
C      1  0.2342190166804  0.2500071813464  0.3940301452725 1.0
C      1  0.5360873326490  0.3211350948483  0.8772342863615 1.0
C      1  0.7793878809827  0.3215779372529  0.7022079630787 1.0
C      1  0.2040958466964  0.2814142996066  0.6524039817239 1.0
C      1  0.5191388164723  0.3076890534805  0.1141114681011 1.0
C      1  0.2053167439110  0.6846718026258  0.6997535197410 1.0
C      1  0.7667813548586  0.7496206930668  0.6076200911299 1.0
C      1  0.4778268676266  0.6595188960304  0.1003692939971 1.0
C      1  0.2124146466689  0.6743829843553  0.5463399065153 1.0
C      1  0.5924039647771  0.6808575040181  0.2055609042797 1.0
C      1  0.6535779822220  0.7215772052382  0.7052785886341 1.0
C      1  0.7835391043476  0.3323187771571  0.5493736568821 1.0
C      1  0.4137405093488  0.2942077843685  0.2297196299981 1.0
C      1  0.3325068855945  0.3064053960632  0.7330288694203 1.0
C      1  0.7870614735276  0.3315637436238  0.4537294677417 1.0
C      1  0.4078112414548  0.3161835801687  0.7895714686123 1.0
C      1  0.3477119115796  0.2801226138571  0.2954598621028 1.0
C      1  0.2182684591738  0.6709306111360  0.4505916777314 1.0
C      1  0.5828849164021  0.7090014667658  0.7679903570021 1.0
C      1  0.6636041793396  0.6981669904235  0.2650437551963 1.0
C      1  0.5712642760593  0.6248919519783  0.5416959670622 1.0
C      1  0.4073343754953  0.6145080987936  0.5450687144730 1.0
C      1  0.4870314343988  0.6463484165453  0.3929376448533 1.0
C      1  0.4315866202618  0.3802144203927  0.5571300899454 1.0
C      1  0.5966959339593  0.3917150214144  0.5523300861948 1.0
C      1  0.5167879093880  0.3511197689978  0.4107062428841 1.0
C      1  0.4326732986241  0.3748384448226  0.4623375416378 1.0
C      1  0.5973450088694  0.3878192709815  0.4605914297480 1.0
C      1  0.5164179816864  0.3598360408237  0.6084908218933 1.0
C      1  0.5716430223564  0.6241519130165  0.4457626531464 1.0
C      1  0.4061490530898  0.6161796925264  0.4497720328937 1.0
C      1  0.4897609312145  0.6240668245942  0.5931307638923 1.0
C      1  0.2834410885293  0.4200372746091  0.4629661983954 1.0
C      1  0.6599424940388  0.4455329357974  0.3287256431055 1.0
C      1  0.5792826855447  0.4534134016654  0.7220792417476 1.0
C      1  0.7219086375508  0.5821293103488  0.4493952180713 1.0
C      1  0.3451763561537  0.5409515625396  0.3287359107839 1.0
C      1  0.4203856989454  0.5686568352756  0.7217778729533 1.0
C      1  0.7213285091492  0.5845526661843  0.5400485816495 1.0
C      1  0.3414893231410  0.5600991212179  0.6759849804546 1.0
C      1  0.4235281532229  0.5492916887120  0.2796498210485 1.0
C      1  0.2806239393083  0.4230453232062  0.5535166494488 1.0
C      1  0.6591096446442  0.4618655555310  0.6742860766737 1.0
C      1  0.5794370392878  0.4329837275116  0.2836455483235 1.0
C      1  0.2213168816996  0.5312254115224  0.0513624998929 1.0
C      1  0.7789837055398  0.4537928105523  0.9519802678828 1.0
C      1  0.2216348412700  0.5476283984527  0.9624941371838 1.0
C      1  0.7756553626328  0.4439290939455  0.0416376733974 1.0
C      1  0.0312271212862  0.6169810025379  0.4993755562749 1.0
C      1  0.9710117660883  0.3899188385627  0.4970481597580 1.0
C      1  0.5645591765346  0.1676471018999  0.4864525303161 1.0
C      1  0.4386032164066  0.8225037903916  0.5367882141283 1.0
END
