TITL C-16605-5188-5 -0.848 3375.00 -124.39998722 0 0 16 (C1) n - 1
REM
REM Run started: at 2020.11.21 01:53:20 in /rds/project/t2_vol4/rds-t2-cs072/BORA/CARBON/AIRSS/Generating-Clusters/Str-Search/Higher-Symm
REM VASP from code version vasp.5.4.4.18Apr17-6-g9f103f2a35 (build Oct 11 2019 16:45:47) gamma-only
REM
REM
REM
REM
REM ./C.cell (e5ae0387ce4d49c7c0135a1433873289)
REM AIRSS Version 0.9.1 bugfix July 2018 build 013d7b7c2542+ Fri, 06 Jul 2018 19:26:36 +0100
REM compiler GCC version 4.8.5 20150623 (Red Hat 4.8.5-39)
REM options -cpp -mtune=generic -march=x86-64 -g -O0
REM seed -930272011 1765102079 383036162 1702249183 113028347 1258427161 -1629788022 354337786 -2145805504 369127850 -877097421 -1307858107
REM
REM C.POTCAR (d86ddea03c3ceb6dc662c8ad6801f873)
REM 
CELL 1.54180   15.00000   15.00000   15.00000   90.00000   90.00000   90.00000
LATT -1
SFAC C  
C      1  0.6356583696569  0.4413130695161  0.4341121491111 1.0
C      1  0.5914478647466  0.4168653980729  0.5131050585781 1.0
C      1  0.4199455757105  0.6756606805075  0.4964835639004 1.0
C      1  0.5739311723816  0.6375445881345  0.5000617968511 1.0
C      1  0.5345444172182  0.3382960240901  0.5205739184492 1.0
C      1  0.5002479427990  0.2515053179179  0.5293105307202 1.0
C      1  0.4421360333056  0.3279654849079  0.5170366244969 1.0
C      1  0.3286366787536  0.4561496557226  0.5019309873036 1.0
C      1  0.3451787480615  0.6267259596374  0.4965537162034 1.0
C      1  0.5765408059275  0.5730419835387  0.5689118559058 1.0
C      1  0.6245319630241  0.6100989926097  0.4246339882228 1.0
C      1  0.6475986175583  0.5269085315888  0.4206268679487 1.0
C      1  0.3739207253096  0.3856970264644  0.5059634373847 1.0
C      1  0.5002944981181  0.6991932322003  0.4988279238114 1.0
C      1  0.3272739903579  0.5445450354721  0.4977743092431 1.0
C      1  0.5781124970712  0.4884891196192  0.5740935718696 1.0
END
