TITL C-167541-928-4 -5.923 3375.00 -1000.57039178 0 0 124 (C2h) n - 1
REM
REM Run started: at 2021.01.02 16:50:15 in /rds/project/t2_vol4/rds-t2-cs072/BORA/CARBON/AIRSS/Generating-Clusters/Str-Search/Higher-Symm/C100-200
REM VASP from code version vasp.5.4.4.18Apr17-6-g9f103f2a35 (build Oct 11 2019 16:45:47) gamma-only
REM
REM
REM
REM
REM ./C.cell (533062f00bc710175b3da973d35f2034)
REM AIRSS Version 0.9.1 bugfix July 2018 build 013d7b7c2542+ Fri, 06 Jul 2018 19:26:36 +0100
REM compiler GCC version 4.8.5 20150623 (Red Hat 4.8.5-39)
REM options -cpp -mtune=generic -march=x86-64 -g -O0
REM seed -648758220 1154295707 1893138555 553528517 -1583731175 -1917020565 1421083136 1679812715 935746220 -1308048399 -1620288764 476240373
REM
REM C.POTCAR (d86ddea03c3ceb6dc662c8ad6801f873)
REM 
CELL 1.54180   15.00000   15.00000   15.00000   90.00000   90.00000   90.00000
LATT -1
SFAC C  
C      1  0.5269912105645  0.8160312624631  0.6886935857863 1.0
C      1  0.4730094891699  0.8160309525748  0.3113059605345 1.0
C      1  0.5269905153557  0.1839690387980  0.6886940575735 1.0
C      1  0.4730088050378  0.1839687585646  0.3113064246543 1.0
C      1  0.3275907689511  0.5481915900071  0.7216811835294 1.0
C      1  0.6724090481392  0.5481902034905  0.2783183398077 1.0
C      1  0.3275909507243  0.4518097960450  0.7216816570867 1.0
C      1  0.6724092295225  0.4518084090152  0.2783188133193 1.0
C      1  0.7814050496643  0.4487573512324  0.5386772848534 1.0
C      1  0.2185947286474  0.4487589242489  0.4613215451610 1.0
C      1  0.7814052705767  0.5512410759080  0.5386784554538 1.0
C      1  0.2185949500663  0.5512426489618  0.4613227162535 1.0
C      1  0.3964871677781  0.5994394498913  0.7688011616321 1.0
C      1  0.6035123744549  0.5994381740557  0.2311987077564 1.0
C      1  0.3964876246347  0.4005618268284  0.7688012896058 1.0
C      1  0.6035128299481  0.4005605489310  0.2311988368289 1.0
C      1  0.2792718744636  0.6032118867835  0.2422497738775 1.0
C      1  0.7207288531229  0.6032106373579  0.7577475428977 1.0
C      1  0.2792711475506  0.3967893628266  0.2422524567898 1.0
C      1  0.7207281266442  0.3967881148971  0.7577502258344 1.0
C      1  0.6205142372933  0.5933960562217  0.4097956030624 1.0
C      1  0.3794852711667  0.5933968085669  0.5902044313247 1.0
C      1  0.6205147278608  0.4066031931347  0.4097955692104 1.0
C      1  0.3794857625476  0.4066039416969  0.5902043974784 1.0
C      1  0.4356719945016  0.7086278273437  0.4674040835921 1.0
C      1  0.5643281698922  0.7086271910938  0.5325955327204 1.0
C      1  0.4356718280352  0.2913728097002  0.4674044687352 1.0
C      1  0.5643280013304  0.2913721715562  0.5325959175021 1.0
C      1  0.5085106105006  0.1175108449975  0.4498250192549 1.0
C      1  0.4914874196299  0.1175103499196  0.5501756827801 1.0
C      1  0.5085125778806  0.8824896330465  0.4498243219240 1.0
C      1  0.4914893870401  0.8824891706482  0.5501749871068 1.0
C      1  0.2850065632449  0.7973472806207  0.4851220215047 1.0
C      1  0.7149980092047  0.7973438957592  0.5148722987372 1.0
C      1  0.2850019826596  0.2026561061936  0.4851277177689 1.0
C      1  0.7149934454438  0.2026527225032  0.5148779661555 1.0
C      1  0.3802883721503  0.1997342316383  0.4586614282088 1.0
C      1  0.6197112318091  0.1997332774026  0.5413386414227 1.0
C      1  0.3802887696515  0.8002667208657  0.4586613558353 1.0
C      1  0.6197116318818  0.8002657689487  0.5413385664126 1.0
C      1  0.4646479369014  0.4516766555117  0.8098825745250 1.0
C      1  0.5353520571809  0.4516751319596  0.1901172976210 1.0
C      1  0.4646479419889  0.5483248676011  0.8098826984265 1.0
C      1  0.5353520630095  0.5483233456043  0.1901174217614 1.0
C      1  0.7295666895912  0.7665263359544  0.3545379516963 1.0
C      1  0.2704343309344  0.7665302781101  0.6454628234245 1.0
C      1  0.7295656673927  0.2334697205608  0.3545371780954 1.0
C      1  0.2704333062176  0.2334736655891  0.6454620482754 1.0
C      1  0.7809958001263  0.4544594217816  0.7073802062056 1.0
C      1  0.2190033242304  0.4544614644035  0.2926203610704 1.0
C      1  0.7809966760435  0.5455385366237  0.7073796405197 1.0
C      1  0.2190042009294  0.5455405791539  0.2926197954815 1.0
C      1  0.3728285673629  0.6056971656364  0.2090105018304 1.0
C      1  0.6271718672929  0.6056975882186  0.7909877641857 1.0
C      1  0.3728281329092  0.3943024124249  0.2090122343778 1.0
C      1  0.6271714331382  0.3943028366628  0.7909894957746 1.0
C      1  0.2973308902955  0.6494058057122  0.3241373417711 1.0
C      1  0.7026693481614  0.6494038556592  0.6758600681124 1.0
C      1  0.2973306528324  0.3505961440770  0.3241399309308 1.0
C      1  0.7026691121851  0.3505941954379  0.6758626575481 1.0
C      1  0.5746501301972  0.8176020788233  0.4496970357141 1.0
C      1  0.4253508649532  0.8176032093312  0.5503026038050 1.0
C      1  0.5746491392780  0.1823967956619  0.4496973961901 1.0
C      1  0.4253498738971  0.1823979159138  0.5503029652169 1.0
C      1  0.4366433369509  0.5497288724191  0.1708008111186 1.0
C      1  0.5633568894218  0.5497305365475  0.8291989747759 1.0
C      1  0.4366431104842  0.4502694652131  0.1708010230151 1.0
C      1  0.5633566633338  0.4502711283598  0.8291991865909 1.0
C      1  0.4095986800312  0.6930520970868  0.7238190095222 1.0
C      1  0.5904004785558  0.6930507539891  0.2761807582828 1.0
C      1  0.4095995183123  0.3069492460678  0.7238192446245 1.0
C      1  0.5904013181227  0.3069479026928  0.2761809948038 1.0
C      1  0.6011215288854  0.5502916461449  0.4961988190254 1.0
C      1  0.3988783292220  0.5502922794720  0.5038015950712 1.0
C      1  0.6011216685289  0.4497077196116  0.4961984059355 1.0
C      1  0.3988784696724  0.4497083525172  0.5038011832343 1.0
C      1  0.6066468307018  0.3574753439821  0.7013531635803 1.0
C      1  0.3933525471684  0.3574755486599  0.2986477773997 1.0
C      1  0.6066474533906  0.6425244541447  0.7013522226028 1.0
C      1  0.3933531707550  0.6425246535862  0.2986468363083 1.0
C      1  0.4229178238228  0.6141487534640  0.4429340991622 1.0
C      1  0.5770810726847  0.6141485711599  0.5570662994180 1.0
C      1  0.4229189283016  0.3858514278470  0.4429337037343 1.0
C      1  0.5770821768676  0.3858512456115  0.5570659028603 1.0
C      1  0.7020338695284  0.5829809123068  0.3702747215105 1.0
C      1  0.2979661317777  0.5829818960177  0.6297252192755 1.0
C      1  0.7020338666057  0.4170181039736  0.3702747800092 1.0
C      1  0.2979661300654  0.4170190863493  0.6297252780144 1.0
C      1  0.4605843719286  0.3873068032526  0.3542492906391 1.0
C      1  0.5394175466151  0.3873092503439  0.6457508884340 1.0
C      1  0.4605824540612  0.6126907500101  0.3542491129902 1.0
C      1  0.5394156277868  0.6126931949069  0.6457507119728 1.0
C      1  0.2488337213929  0.7855206401046  0.5591151641079 1.0
C      1  0.7511634796787  0.7855199525159  0.4408900857546 1.0
C      1  0.2488365351468  0.2144800458425  0.5591098893675 1.0
C      1  0.7511662769885  0.2144793565791  0.4408848491686 1.0
C      1  0.4462151103750  0.6522421585164  0.6344192639649 1.0
C      1  0.5537837257435  0.6522405378376  0.3655804873062 1.0
C      1  0.4462162768722  0.3477594600981  0.6344195128558 1.0
C      1  0.5537848918102  0.3477578424971  0.3655807366598 1.0
C      1  0.3231675294654  0.7367460929082  0.7015982643027 1.0
C      1  0.6768300198153  0.7367439475601  0.2983996550764 1.0
C      1  0.3231699846786  0.2632560541004  0.7016003459715 1.0
C      1  0.6768324682219  0.2632539101144  0.2984017351565 1.0
C      1  0.5198795133408  0.7662797319358  0.2630877980806 1.0
C      1  0.4801193465652  0.7662808789171  0.7369117040944 1.0
C      1  0.5198806469907  0.2337191094418  0.2630882878969 1.0
C      1  0.4801204899292  0.2337202670176  0.7369121894678 1.0
C      1  0.4364928563108  0.8553675636102  0.3902276291525 1.0
C      1  0.5635084200525  0.8553673628074  0.6097722389159 1.0
C      1  0.4364915674993  0.1446326212031  0.3902277554890 1.0
C      1  0.5635071332953  0.1446324488623  0.6097723631295 1.0
C      1  0.4632773194541  0.2755302332132  0.5637635660398 1.0
C      1  0.5367220844676  0.2755288229343  0.4362366329485 1.0
C      1  0.4632779141043  0.7244711786719  0.5637633695774 1.0
C      1  0.5367226795399  0.7244697659479  0.4362364364019 1.0
C      1  0.7651249482487  0.4533722393076  0.4380326321299 1.0
C      1  0.2348743844568  0.4533742799734  0.5619678302561 1.0
C      1  0.7651256143353  0.5466257187408  0.4380321702196 1.0
C      1  0.2348750493556  0.5466277608654  0.5619673685046 1.0
C      1  0.2327239694761  0.4060095527841  0.3789255679226 1.0
C      1  0.7672735891374  0.4060084531063  0.6210748352695 1.0
C      1  0.2327264130973  0.5939915481300  0.3789251657350 1.0
C      1  0.7672760307811  0.5939904469660  0.6210744326313 1.0
END
