TITL C-168030-6353-22 -2.984 3375.00 -484.44434871 0 0 60 (T23) n - 1
REM
REM Run started: at 2020.12.16 08:51:43 in /rds/project/t2_vol4/rds-t2-cs072/BORA/CARBON/AIRSS/Generating-Clusters/Str-Search/Higher-Symm/Only-C60
REM VASP from code version vasp.5.4.4.18Apr17-6-g9f103f2a35 (build Oct 11 2019 16:45:47) gamma-only
REM
REM
REM
REM
REM ./C.cell (5f7b7a0d59291d2373303da1f58b8d66)
REM AIRSS Version 0.9.1 bugfix July 2018 build 013d7b7c2542+ Fri, 06 Jul 2018 19:26:36 +0100
REM compiler GCC version 4.8.5 20150623 (Red Hat 4.8.5-39)
REM options -cpp -mtune=generic -march=x86-64 -g -O0
REM seed 827409055 48602402 -1347207637 1587478686 -850395642 -312618471 704206979 -1246046588 -832435950 1492361565 600989026 -1912771261
REM
REM C.POTCAR (d86ddea03c3ceb6dc662c8ad6801f873)
REM 
CELL 1.54180   15.00000   15.00000   15.00000   90.00000   90.00000   90.00000
LATT -1
SFAC C  
C      1  0.3522465820278  0.5305469108565  0.6980048745160 1.0
C      1  0.6980051513615  0.3522467779373  0.5305468884212 1.0
C      1  0.5305472396461  0.6980045915094  0.3522465836514 1.0
C      1  0.6477531448758  0.4694525259911  0.6980047857020 1.0
C      1  0.6477534286672  0.5305468958445  0.3019947338396 1.0
C      1  0.3522468066279  0.4694527359900  0.3019951610583 1.0
C      1  0.3019952647931  0.6477538438011  0.5305469585241 1.0
C      1  0.3019954960002  0.3522466259668  0.4694527567648 1.0
C      1  0.6980049300529  0.6477534492539  0.4694528558182 1.0
C      1  0.4694530882067  0.3019948113710  0.3522466244110 1.0
C      1  0.4694529726746  0.6980046319809  0.6477538081667 1.0
C      1  0.5305471203328  0.3019946175631  0.6477534192278 1.0
C      1  0.5125293059877  0.2599697776668  0.5692536233594 1.0
C      1  0.5692534813391  0.5125287187916  0.2599695664593 1.0
C      1  0.2599693347570  0.5692528721443  0.5125290552711 1.0
C      1  0.4874709145935  0.7400307930021  0.5692527125556 1.0
C      1  0.4874714073992  0.2599696894167  0.4307463126548 1.0
C      1  0.5125290452957  0.7400307026029  0.4307473762974 1.0
C      1  0.4307463689995  0.4874707873881  0.2599701157867 1.0
C      1  0.4307463738533  0.5125285822607  0.7400300931596 1.0
C      1  0.5692533735722  0.4874707558467  0.7400300075966 1.0
C      1  0.7400304226369  0.4307467824487  0.5125287510292 1.0
C      1  0.7400299536068  0.5692537526951  0.4874707871179 1.0
C      1  0.2599692181886  0.4307475474383  0.4874710083845 1.0
C      1  0.5269913938149  0.3455367754730  0.2922331032118 1.0
C      1  0.2922329947605  0.5269912551271  0.3455369063827 1.0
C      1  0.3455371321745  0.2922333613270  0.5269907431669 1.0
C      1  0.4730091613569  0.6544629767250  0.2922334529422 1.0
C      1  0.4730087171376  0.3455368848701  0.7077671416957 1.0
C      1  0.5269907101645  0.6544627355810  0.7077669444559 1.0
C      1  0.7077669519922  0.4730088069128  0.3455367397035 1.0
C      1  0.7077666429189  0.5269910031396  0.6544631656047 1.0
C      1  0.2922331259168  0.4730088003082  0.6544633250760 1.0
C      1  0.6544630625385  0.7077671808761  0.5269912623621 1.0
C      1  0.6544632332844  0.2922331618041  0.4730087593095 1.0
C      1  0.3455368519052  0.7077669027787  0.4730090949877 1.0
C      1  0.7427368971657  0.5101740237273  0.5686570783277 1.0
C      1  0.5686570781707  0.7427372696714  0.5101743095816 1.0
C      1  0.5101738013472  0.5686572845546  0.7427368691152 1.0
C      1  0.2572626708847  0.4898259924315  0.5686573003110 1.0
C      1  0.2572627988274  0.5101742868699  0.4313429584380 1.0
C      1  0.7427371325417  0.4898261645908  0.4313423124941 1.0
C      1  0.4313427572217  0.2572631479119  0.5101738008238 1.0
C      1  0.4313426631837  0.7427371565213  0.4898260156045 1.0
C      1  0.5686577647562  0.2572628428890  0.4898260799867 1.0
C      1  0.4898258727895  0.4313423371142  0.7427370981633 1.0
C      1  0.4898261361111  0.5686573052235  0.2572632084672 1.0
C      1  0.5101740151883  0.4313423613394  0.2572629012317 1.0
C      1  0.3794427146612  0.6730930605026  0.3049945431725 1.0
C      1  0.3049942518065  0.3794424290061  0.6730931467226 1.0
C      1  0.6730931504323  0.3049942998387  0.3794427488991 1.0
C      1  0.6205574681361  0.3269069826019  0.3049941679252 1.0
C      1  0.6205572788677  0.6730932510715  0.6950056267550 1.0
C      1  0.3794425283250  0.3269069512245  0.6950056674926 1.0
C      1  0.6950055633192  0.6205576294035  0.6730930325911 1.0
C      1  0.6950058848460  0.3794427607408  0.3269069018141 1.0
C      1  0.3049942638254  0.6205576317286  0.3269071220256 1.0
C      1  0.3269068941475  0.6950057262470  0.3794427801568 1.0
C      1  0.3269070098736  0.3049943384297  0.6205571677306 1.0
C      1  0.6730930001102  0.6950057416700  0.6205576634983 1.0
END
