TITL C-16343-8127-46 -7.996 3375.00 -1596.69304907 0 0 195 (C1) n - 1
REM
REM Run started: at 2021.01.03 17:34:56 in /gpfs/home/chem/mssmkc/CARBON/AIRSS/Generating-Clusters/Str-Search/Higher-Symm/C100-200
REM VASP from code version vasp.5.4.4.18Apr17-6-g9f103f2a35 (build Oct 11 2019 16:45:47) gamma-only
REM
REM
REM
REM
REM ./C.cell (533062f00bc710175b3da973d35f2034)
REM AIRSS Version 0.9.1 bugfix July 2018 build 013d7b7c2542+ Fri, 06 Jul 2018 19:26:36 +0100
REM compiler GCC version 6.3.0
REM options -cpp -iprefix /gpfs/warwick/csc/orac/software/Core/GCCcore/6.3.0/bin/../lib/gcc/x86_64-pc-linux-gnu/6.3.0/ -mtune=generic -march=x86-64 -g -O0
REM seed -500923692 -724953524 441027126 -1399384292 1853294037 -743791523 -1530724840 -1224434537 979021553 -1925970117 -1039255707 -197589538
REM
REM C.POTCAR (d86ddea03c3ceb6dc662c8ad6801f873)
REM 
CELL 1.54180   15.00000   15.00000   15.00000   90.00000   90.00000   90.00000
LATT -1
SFAC C  
C      1  0.4125856164588  0.9506145253115  0.7598240260892 1.0
C      1  0.4837380640261  0.4567895035412  0.9057071552675 1.0
C      1  0.4354018834448  0.0223646371711  0.6102599273911 1.0
C      1  0.4570938822778  0.2994474381684  0.0948443552101 1.0
C      1  0.4535756496085  0.8343012653127  0.1749600978735 1.0
C      1  0.4620551085655  0.9694599753215  0.2804459891162 1.0
C      1  0.4571211200403  0.4589551491082  0.0815165382693 1.0
C      1  0.4350532624366  0.0061293053747  0.4353994582666 1.0
C      1  0.4797674363370  0.2978326551777  0.8916629175335 1.0
C      1  0.4503143762751  0.8329265484392  0.8701300589193 1.0
C      1  0.6143730512470  0.6631137767097  0.6806300603507 1.0
C      1  0.6601048294413  0.3749502426968  0.6738744089999 1.0
C      1  0.6244155698265  0.2495572377406  0.4381463887775 1.0
C      1  0.6493380784747  0.4811582310470  0.2854262440735 1.0
C      1  0.6335333582092  0.7233687553370  0.4248448111235 1.0
C      1  0.6441236305347  0.6582095167197  0.3416521211632 1.0
C      1  0.6411677389041  0.3758817840547  0.3095830506576 1.0
C      1  0.6264331072485  0.2415693559668  0.5408045629047 1.0
C      1  0.6666412127756  0.4853205122698  0.6983532426770 1.0
C      1  0.6102994955497  0.7310013945470  0.6026134518116 1.0
C      1  0.5493623045247  0.6949570270437  0.9070743218140 1.0
C      1  0.5521474650339  0.1730269881473  0.7972507253264 1.0
C      1  0.5353403312176  0.1193688224903  0.2490797004213 1.0
C      1  0.5361451707287  0.6056388766861  0.0959708724680 1.0
C      1  0.5511644097428  0.9088815487118  0.4193972088221 1.0
C      1  0.5313332584051  0.6926581808833  0.1213365824223 1.0
C      1  0.5401020879883  0.1766784580374  0.1782858321260 1.0
C      1  0.5393025805365  0.1173574726663  0.7218578105754 1.0
C      1  0.5630043338956  0.6036279875775  0.9116638524449 1.0
C      1  0.5486097242773  0.9439517011111  0.5125366933662 1.0
C      1  0.7190632235763  0.2301177709211  0.8004102332024 1.0
C      1  0.6915253675746  0.1032681729790  0.3244316695353 1.0
C      1  0.6966240104437  0.5396086064117  0.1067639859583 1.0
C      1  0.7118264581747  0.8881681658010  0.3708556446522 1.0
C      1  0.6973862381333  0.7575539316118  0.8392899338856 1.0
C      1  0.7008133660167  0.2499501846986  0.1800831618606 1.0
C      1  0.6910145180384  0.0509665487342  0.6316133985243 1.0
C      1  0.7305805434839  0.5462787512441  0.8812433193020 1.0
C      1  0.6867471492482  0.9508328451672  0.6161778064776 1.0
C      1  0.6927932653523  0.7354132818139  0.1705764925009 1.0
C      1  0.7913710062221  0.2467935760194  0.7631247812670 1.0
C      1  0.7638206851504  0.1323885637107  0.3579879115741 1.0
C      1  0.7761221137564  0.5305029928886  0.1324001493420 1.0
C      1  0.7826077852983  0.8637994970227  0.4097541050386 1.0
C      1  0.7650335695017  0.7356061222684  0.7931885223406 1.0
C      1  0.7760114586854  0.2717912011082  0.2086846265280 1.0
C      1  0.7565715670515  0.1090379092596  0.6115384748783 1.0
C      1  0.8018694893435  0.5368299304207  0.8380486438822 1.0
C      1  0.7525317944281  0.8894619488537  0.6139673888775 1.0
C      1  0.7705602126203  0.7167706400622  0.1947773670847 1.0
C      1  0.2762856714310  0.6727675785047  0.7620554646472 1.0
C      1  0.2956797586054  0.3218258504024  0.7227494810470 1.0
C      1  0.2273361500239  0.2029402154864  0.4238049509385 1.0
C      1  0.2724110664841  0.4941702153706  0.2527949823773 1.0
C      1  0.2701875653581  0.7958485963666  0.4179767676577 1.0
C      1  0.2598121355016  0.6655131514487  0.2747705068105 1.0
C      1  0.2488457860608  0.3116680951912  0.2666880270612 1.0
C      1  0.3111697257297  0.2606639700217  0.5744210670329 1.0
C      1  0.3209335348730  0.5207907553916  0.7355975058662 1.0
C      1  0.3007955536783  0.7304881091618  0.6117297901027 1.0
C      1  0.6226078427692  0.8836527000354  0.3586086807374 1.0
C      1  0.6096922510018  0.7355614003220  0.8396216341705 1.0
C      1  0.6273370338271  0.2403954048912  0.7879317290638 1.0
C      1  0.6032383894628  0.1280956359995  0.3217265229475 1.0
C      1  0.6089201628834  0.5482055740032  0.1336325849751 1.0
C      1  0.6025925601581  0.9066852728183  0.5847968048891 1.0
C      1  0.6036780558447  0.7175557512639  0.1858528489210 1.0
C      1  0.6085621502654  0.2501607439563  0.1926713500907 1.0
C      1  0.6067743293103  0.1055716155613  0.6489255001958 1.0
C      1  0.6385909920730  0.5537551930661  0.8631516189518 1.0
C      1  0.4519750716329  0.0823107321105  0.3889403707887 1.0
C      1  0.4303206784689  0.4684324968676  0.1719765311235 1.0
C      1  0.4065521728911  0.8444950522143  0.3729140538661 1.0
C      1  0.4150508018620  0.7535146701128  0.8159880908981 1.0
C      1  0.4431136324880  0.3059901661675  0.8015188820215 1.0
C      1  0.4086699285337  0.1216700360892  0.5970668051215 1.0
C      1  0.4642482261050  0.4740419114081  0.8146975348759 1.0
C      1  0.4009353820538  0.8524635913998  0.6419405904171 1.0
C      1  0.4178376854873  0.7433086287026  0.2241084632636 1.0
C      1  0.4196039946027  0.2939044015508  0.1845997725321 1.0
C      1  0.5671423006461  0.7061091076121  0.7575463129033 1.0
C      1  0.6001850634297  0.3135028025419  0.7342819165860 1.0
C      1  0.5700703108241  0.1832663879327  0.3918428046239 1.0
C      1  0.5829088808835  0.5132127477166  0.2164885199623 1.0
C      1  0.5747309572924  0.8051347882470  0.3948781896961 1.0
C      1  0.5777765883434  0.6873790929787  0.2705325149610 1.0
C      1  0.5764181698207  0.3138299662801  0.2555510990403 1.0
C      1  0.5799436112896  0.1645043276810  0.5805855492431 1.0
C      1  0.6134871257900  0.5191557528424  0.7801803929212 1.0
C      1  0.5671807957840  0.8205288670867  0.6001150191823 1.0
C      1  0.1370270397296  0.5973984889213  0.3822678850633 1.0
C      1  0.1668853604741  0.6427625797463  0.5559986968768 1.0
C      1  0.1603866390381  0.4981055314043  0.6592392978997 1.0
C      1  0.1547258638987  0.3575423257964  0.5472997445553 1.0
C      1  0.1341898248153  0.4093227746445  0.3765210355041 1.0
C      1  0.1558895458811  0.5961823343937  0.6355814538527 1.0
C      1  0.1535814239882  0.6503679459481  0.4555226082535 1.0
C      1  0.1360258465021  0.4984062683437  0.3537680950770 1.0
C      1  0.1355661897463  0.3518615162827  0.4578556619367 1.0
C      1  0.1568194683095  0.4118299807470  0.6317027819743 1.0
C      1  0.5448138673270  0.6603828109136  0.5542765497227 1.0
C      1  0.6026274104393  0.4953954603052  0.6193629627732 1.0
C      1  0.5598187465791  0.3289643512777  0.5440765058779 1.0
C      1  0.5942037992156  0.4068544017760  0.3930806291914 1.0
C      1  0.6024449319055  0.5863924685665  0.4028410149984 1.0
C      1  0.5807587875943  0.6479083748456  0.4661262623064 1.0
C      1  0.6060422601982  0.4980207164754  0.3759486182496 1.0
C      1  0.5782597409289  0.3395150526640  0.4497808264413 1.0
C      1  0.5938683821279  0.4052456610220  0.6023430233084 1.0
C      1  0.5547509339887  0.5854475113166  0.6245631170366 1.0
C      1  0.3458793395122  0.6111202852543  0.7611497546706 1.0
C      1  0.3533532811330  0.2829891179631  0.6603001509819 1.0
C      1  0.3154115399148  0.1795961287608  0.4089830207895 1.0
C      1  0.3481507129345  0.4856632617675  0.3002404266576 1.0
C      1  0.3605461587829  0.8029219431816  0.4505788048164 1.0
C      1  0.3359879868194  0.6532039034449  0.3176624153880 1.0
C      1  0.3307725598888  0.3046675434374  0.3016734525473 1.0
C      1  0.3856167174528  0.2837237662189  0.5076363465156 1.0
C      1  0.3935690562905  0.4871039295542  0.6697570464018 1.0
C      1  0.3813346733803  0.6792977379990  0.6155859896613 1.0
C      1  0.4755587035790  0.7100655282968  0.7527758520887 1.0
C      1  0.5021014120607  0.3156110791039  0.7231747373676 1.0
C      1  0.4808277283931  0.1670529992871  0.4332276553086 1.0
C      1  0.4882560951546  0.5041625091661  0.2346966913818 1.0
C      1  0.4810345707327  0.7687019245890  0.3789592599189 1.0
C      1  0.4812641160524  0.7004536710829  0.2980204196727 1.0
C      1  0.4779772120335  0.3081116565721  0.2692070268355 1.0
C      1  0.4884997575030  0.1736888690186  0.5456000007179 1.0
C      1  0.5188936429474  0.5233002615508  0.7629798039333 1.0
C      1  0.4715426425120  0.8051134112027  0.5985889840629 1.0
C      1  0.3831314498150  0.4461931696612  0.7680372443027 1.0
C      1  0.3229217884833  0.1605201574652  0.5640220669391 1.0
C      1  0.3283168943517  0.3387413160250  0.2082748291638 1.0
C      1  0.3249060383707  0.7444584299993  0.2686692186480 1.0
C      1  0.3293557790328  0.7944934202791  0.6809681730453 1.0
C      1  0.3447215064692  0.4379012161533  0.2106466469759 1.0
C      1  0.2770490692756  0.1366243788055  0.4835496714255 1.0
C      1  0.3555097580089  0.3561907491230  0.7871174173227 1.0
C      1  0.3224698730961  0.7592680963862  0.7675405541083 1.0
C      1  0.3177576990069  0.8133195648788  0.3355351012805 1.0
C      1  0.8031406110912  0.5586062146299  0.2161374972099 1.0
C      1  0.7768233761074  0.8016501146610  0.4805947405051 1.0
C      1  0.7857309129563  0.6709264865050  0.7342103292568 1.0
C      1  0.7937426912191  0.2612455108282  0.6693257836389 1.0
C      1  0.7881698897770  0.2187906170345  0.3732801418532 1.0
C      1  0.8032603195487  0.5768474692732  0.7513486370993 1.0
C      1  0.7681992417473  0.8086380039105  0.5781589728583 1.0
C      1  0.8055439436219  0.6499592609534  0.2473559092781 1.0
C      1  0.7898366231223  0.2849764812796  0.3017846913053 1.0
C      1  0.7792708091927  0.1945671287059  0.5979188580210 1.0
C      1  0.4136352357400  0.2932658559083  0.3391453804826 1.0
C      1  0.4233903166262  0.6227483793299  0.3265512778881 1.0
C      1  0.4540482650332  0.7095272088904  0.5543859047701 1.0
C      1  0.4732400073294  0.5578032097958  0.6818094909458 1.0
C      1  0.4698838050071  0.2774643754879  0.5604178462515 1.0
C      1  0.4461069988566  0.2950099631394  0.6530232507571 1.0
C      1  0.4221401233647  0.6425186832120  0.7047827853722 1.0
C      1  0.4302913777100  0.7414944639031  0.4650210562909 1.0
C      1  0.4314028769526  0.5317523630969  0.3101374778138 1.0
C      1  0.4012748286866  0.2351367536890  0.4199618399499 1.0
C      1  0.7379653899112  0.3248392039692  0.6295705430808 1.0
C      1  0.7252169305577  0.2745669760848  0.4326359118724 1.0
C      1  0.7364276922179  0.5322120166681  0.2880433390358 1.0
C      1  0.7157611838911  0.7308942078197  0.4804138818914 1.0
C      1  0.7178919749291  0.6485196489338  0.6608994401844 1.0
C      1  0.7284200620695  0.3376243002839  0.3488230129356 1.0
C      1  0.7242204102284  0.2664012162365  0.5449545462912 1.0
C      1  0.7439578478680  0.5491809953179  0.6838710259334 1.0
C      1  0.7092972947886  0.7204772285484  0.5808602920763 1.0
C      1  0.7327901463392  0.6205769325987  0.3140827738679 1.0
C      1  0.2102932470289  0.7363437457293  0.4601261885135 1.0
C      1  0.2035758337687  0.6205799884981  0.7208877862261 1.0
C      1  0.2168978194300  0.3430252109177  0.6717432296380 1.0
C      1  0.1756505941746  0.2784484757248  0.4069968376916 1.0
C      1  0.1840386503678  0.5280704266432  0.2729418583510 1.0
C      1  0.2267385919066  0.7182034648400  0.5511394569813 1.0
C      1  0.1770186833527  0.6181920297054  0.2920476263551 1.0
C      1  0.1778239934854  0.3322478709382  0.3273841652322 1.0
C      1  0.2201468920791  0.3001377676105  0.5883548413949 1.0
C      1  0.2239889729179  0.5276765421320  0.7251605459468 1.0
C      1  0.4642459952119  0.7492485820665  0.9073199733083 1.0
C      1  0.4830694165721  0.2186256433078  0.8488545696100 1.0
C      1  0.4697697810798  0.0619442878802  0.2938479376552 1.0
C      1  0.4878302465712  0.5392984040624  0.0422701298146 1.0
C      1  0.4563097757815  0.9302356742069  0.3740284994427 1.0
C      1  0.4517438871896  0.7495964030738  0.1330787344505 1.0
C      1  0.4638033499074  0.2178893859463  0.1324357923926 1.0
C      1  0.4569882420383  0.0935374954527  0.6797169355638 1.0
C      1  0.5061746774692  0.5362035742236  0.9521977393459 1.0
C      1  0.4038351258540  0.9462657476932  0.6681935586315 1.0
C      1  0.4794819671507  0.3729027382282  0.9480818981925 1.0
C      1  0.4665256446092  0.3745826952626  0.0407234945182 1.0
C      1  0.4602774831303  0.9143927112002  0.2058594013688 1.0
C      1  0.4282899689932  0.9116632145501  0.8339231981518 1.0
C      1  0.4739130940610  0.9929889966200  0.5245521131919 1.0
END
