TITL C-160259-9374-2 -1.742 3375.00 -259.41860917 0 0 36 (Th) n - 1
REM
REM Run started: at 2020.11.27 04:16:34 in /rds/project/t2_vol4/rds-t2-cs072/BORA/CARBON/AIRSS/Generating-Clusters/Str-Search/Higher-Symm/C10-100
REM VASP from code version vasp.5.4.4.18Apr17-6-g9f103f2a35 (build Oct 11 2019 16:45:47) gamma-only
REM
REM
REM
REM
REM ./C.cell (f39ce9773e2efe3fa5bbdf770a4156b8)
REM AIRSS Version 0.9.1 bugfix July 2018 build 013d7b7c2542+ Fri, 06 Jul 2018 19:26:36 +0100
REM compiler GCC version 4.8.5 20150623 (Red Hat 4.8.5-39)
REM options -cpp -mtune=generic -march=x86-64 -g -O0
REM seed 1531478785 -644538148 -161129426 -1696212933 -550950855 -1621621381 -1628617424 -954374705 154403182 -141236709 -782819892 -1189999131
REM
REM C.POTCAR (d86ddea03c3ceb6dc662c8ad6801f873)
REM 
CELL 1.54180   15.00000   15.00000   15.00000   90.00000   90.00000   90.00000
LATT -1
SFAC C  
C      1  0.6757793026914  0.4547137920442  0.4253739943960 1.0
C      1  0.4253740495514  0.6757792873739  0.4547139292372 1.0
C      1  0.4547139319737  0.4253739509353  0.6757793043614 1.0
C      1  0.3242205045120  0.5452859938184  0.4253742067473 1.0
C      1  0.3242205558004  0.4547139262454  0.5746261252220 1.0
C      1  0.6757793485584  0.5452861360833  0.5746257188888 1.0
C      1  0.5746257959486  0.3242204769536  0.4547138854123 1.0
C      1  0.5746257162373  0.6757795412233  0.5452863512417 1.0
C      1  0.4253738384259  0.3242207723406  0.5452858581720 1.0
C      1  0.5452861154230  0.5746257546037  0.6757794812596 1.0
C      1  0.5452860303059  0.4253740272402  0.3242205953064 1.0
C      1  0.4547138257599  0.5746258271827  0.3242206136732 1.0
C      1  0.6757794868383  0.4547140125562  0.5746258073057 1.0
C      1  0.4253742106747  0.6757795132019  0.5452861007391 1.0
C      1  0.4547138698172  0.4253742596664  0.3242204970355 1.0
C      1  0.3242206983062  0.5452861974177  0.5746260055552 1.0
C      1  0.3242206669262  0.4547138756369  0.4253742715833 1.0
C      1  0.6757794434443  0.5452860680631  0.4253738798236 1.0
C      1  0.5746259763933  0.3242207250933  0.5452860648665 1.0
C      1  0.5746261754285  0.6757792290768  0.4547141406110 1.0
C      1  0.4253743050145  0.3242204540577  0.4547136482611 1.0
C      1  0.5452860468705  0.5746260649182  0.3242207135460 1.0
C      1  0.5452861608838  0.4253741381761  0.6757793599741 1.0
C      1  0.4547139623395  0.5746259396707  0.6757794310917 1.0
C      1  0.3984384379250  0.5000000754260  0.6534388434970 1.0
C      1  0.6015615454496  0.4999999323026  0.3465611558839 1.0
C      1  0.3465610380945  0.3984384634259  0.5000001762632 1.0
C      1  0.5000001739258  0.3465609271344  0.3984384229255 1.0
C      1  0.3984385004045  0.4999999085044  0.3465608774095 1.0
C      1  0.6534389463526  0.6015615529166  0.4999998304271 1.0
C      1  0.6534389932589  0.3984384844642  0.5000002428707 1.0
C      1  0.3465609943881  0.6015615087388  0.4999997727110 1.0
C      1  0.5000001443749  0.6534388925954  0.3984385376507 1.0
C      1  0.4999998741946  0.3465611205019  0.6015614677769 1.0
C      1  0.4999998476643  0.6534390834129  0.6015615660050 1.0
C      1  0.6015614858421  0.5000000869974  0.6534391222687 1.0
END
