TITL C-167541-928-10 -6.897 3375.00 -1202.72722822 0 0 143 (C1) n - 1
REM
REM Run started: at 2021.01.02 23:49:42 in /rds/project/t2_vol4/rds-t2-cs072/BORA/CARBON/AIRSS/Generating-Clusters/Str-Search/Higher-Symm/C100-200
REM VASP from code version vasp.5.4.4.18Apr17-6-g9f103f2a35 (build Oct 11 2019 16:45:47) gamma-only
REM
REM
REM
REM
REM ./C.cell (533062f00bc710175b3da973d35f2034)
REM AIRSS Version 0.9.1 bugfix July 2018 build 013d7b7c2542+ Fri, 06 Jul 2018 19:26:36 +0100
REM compiler GCC version 4.8.5 20150623 (Red Hat 4.8.5-39)
REM options -cpp -mtune=generic -march=x86-64 -g -O0
REM seed -332695281 -2096323923 214190132 -242797375 199555807 -926133718 1644803562 -1883496197 -747588034 -2040140052 -220184026 -1402658432
REM
REM C.POTCAR (d86ddea03c3ceb6dc662c8ad6801f873)
REM 
CELL 1.54180   15.00000   15.00000   15.00000   90.00000   90.00000   90.00000
LATT -1
SFAC C  
C      1  0.3131721493501  0.7819538479008  0.7860210836896 1.0
C      1  0.1944987478009  0.7740556274064  0.6508953627919 1.0
C      1  0.2334824575807  0.7891451725770  0.4696911767222 1.0
C      1  0.2878990395931  0.7943422851998  0.3120257330379 1.0
C      1  0.3990745483636  0.7836540790790  0.1730383472098 1.0
C      1  0.5870856728405  0.7732630003114  0.1687335946881 1.0
C      1  0.7478124967461  0.7651282003889  0.2615920811519 1.0
C      1  0.8252512244457  0.7690009420962  0.4350505248365 1.0
C      1  0.8074993112428  0.7811170514909  0.6201180639500 1.0
C      1  0.6574136939414  0.7961481793517  0.7278058615135 1.0
C      1  0.4952735950382  0.7988972050449  0.7734796161846 1.0
C      1  0.5949666966282  0.4616546157227  0.2217360313027 1.0
C      1  0.7170905791153  0.4541986548446  0.3378777244837 1.0
C      1  0.7794019883746  0.4697768550513  0.4969964178022 1.0
C      1  0.7497073598864  0.4693763133711  0.6611547909826 1.0
C      1  0.6343405808812  0.4896919513249  0.7779420952506 1.0
C      1  0.4702781038019  0.4832334354829  0.7974828114199 1.0
C      1  0.3189327381756  0.4697909976742  0.7269277303533 1.0
C      1  0.2232918401631  0.4646371248731  0.5874879255560 1.0
C      1  0.2182212795579  0.4797598193651  0.4194117620078 1.0
C      1  0.2903840283276  0.4712213039465  0.2698459853755 1.0
C      1  0.4327280197662  0.4766211460926  0.1860191558595 1.0
C      1  0.5114846461851  0.2144425211403  0.3278704043470 1.0
C      1  0.5897171685692  0.1936279792227  0.3775701144793 1.0
C      1  0.6362155369472  0.1972977229001  0.4664229770495 1.0
C      1  0.6326312992196  0.2080372823647  0.5576016390328 1.0
C      1  0.5813175000983  0.2201168932572  0.6434924700259 1.0
C      1  0.4962854485501  0.2312468333638  0.6817112036890 1.0
C      1  0.4015864774560  0.2219496226980  0.6558981742401 1.0
C      1  0.3389562725221  0.1985368770240  0.5883230668216 1.0
C      1  0.3162201114516  0.1988140435234  0.4905040012519 1.0
C      1  0.3431140179798  0.2020231290444  0.4026792668639 1.0
C      1  0.4171252420055  0.2085872047729  0.3360961922610 1.0
C      1  0.5123723890781  0.4244069270548  0.1934424688779 1.0
C      1  0.6557810983908  0.4067721998367  0.2748003824419 1.0
C      1  0.7532999031768  0.4153468024773  0.4203859686046 1.0
C      1  0.7719287946385  0.4211498048002  0.5800842847571 1.0
C      1  0.6941850836167  0.4313877051558  0.7303788920386 1.0
C      1  0.5549435279291  0.4419671398022  0.8023371091101 1.0
C      1  0.3948735444633  0.4297741311424  0.7727355693825 1.0
C      1  0.2638374109026  0.4173308514994  0.6645888772754 1.0
C      1  0.2099107504798  0.4250001393781  0.4989183783789 1.0
C      1  0.2422406381245  0.4287951705455  0.3418904728271 1.0
C      1  0.3568172316517  0.4250004394473  0.2174449382075 1.0
C      1  0.7255612532397  0.5487490577783  0.3275779392863 1.0
C      1  0.7882566530540  0.5614811435335  0.4956246662210 1.0
C      1  0.7597530225191  0.5655094583226  0.6602175706998 1.0
C      1  0.6327665239440  0.5824094438622  0.7701292218621 1.0
C      1  0.4654597353057  0.5784605898747  0.7951749638281 1.0
C      1  0.3078493218412  0.5636299194315  0.7352855632057 1.0
C      1  0.2168978143091  0.5596688689804  0.5921979801657 1.0
C      1  0.2213067607305  0.5730398952091  0.4214521439530 1.0
C      1  0.2923038365589  0.5690487915977  0.2676121560667 1.0
C      1  0.4359110493239  0.5685327095100  0.1795517988470 1.0
C      1  0.6041465374282  0.5557670620507  0.2098850877737 1.0
C      1  0.3610706964742  0.2658693947696  0.2808485517259 1.0
C      1  0.5418964494473  0.2821433045363  0.2615475832087 1.0
C      1  0.6612025437743  0.2481162625016  0.3409827452639 1.0
C      1  0.7056079495156  0.2531976365139  0.4220065892917 1.0
C      1  0.7033537038176  0.2654713112992  0.5965710048325 1.0
C      1  0.6574481090084  0.2719238883473  0.6783146796982 1.0
C      1  0.4971573629792  0.2983982020251  0.7546735306443 1.0
C      1  0.3538888817771  0.2881463876221  0.7088585447949 1.0
C      1  0.2759782639759  0.3227798727887  0.6681073013810 1.0
C      1  0.2413361560775  0.2600061909030  0.5136275564133 1.0
C      1  0.2915892391830  0.2653555873294  0.3446749563455 1.0
C      1  0.5695048508973  0.3509541194600  0.7799434202146 1.0
C      1  0.4111702154228  0.3377402969553  0.7625891332283 1.0
C      1  0.2590275781484  0.2545104038441  0.6038293932201 1.0
C      1  0.2158419011076  0.3359438471652  0.4659991721469 1.0
C      1  0.2399032431651  0.3367924149483  0.3723739251041 1.0
C      1  0.3895219652644  0.3352510171933  0.2262490722343 1.0
C      1  0.4846754160534  0.3368919941693  0.2141944390832 1.0
C      1  0.6309896095760  0.3142890437037  0.2808420550184 1.0
C      1  0.7479513258688  0.3276065349215  0.4570060463753 1.0
C      1  0.7530907399288  0.3309631953865  0.5534602617390 1.0
C      1  0.6544681167564  0.3430579897382  0.7373057791701 1.0
C      1  0.4044293703198  0.7893058354569  0.8106010957194 1.0
C      1  0.2352913626015  0.7750393994565  0.7357153328419 1.0
C      1  0.1842675830469  0.7820732748693  0.5586843807970 1.0
C      1  0.2057090910988  0.7877762520965  0.3721635113484 1.0
C      1  0.3150220981324  0.7898909982588  0.2175926728269 1.0
C      1  0.4902912197041  0.7781056931101  0.1556373834060 1.0
C      1  0.6730118655774  0.7669752829416  0.2003939970525 1.0
C      1  0.7933313587401  0.7676571349243  0.3414406124958 1.0
C      1  0.8338534098659  0.7751744004744  0.5283041063524 1.0
C      1  0.7572315571834  0.7928124820507  0.6993359000060 1.0
C      1  0.5941818408229  0.7988050955150  0.8082748412394 1.0
C      1  0.3442535970138  0.7069163336141  0.1852321478936 1.0
C      1  0.5351698302828  0.6968797923877  0.1545627982413 1.0
C      1  0.7068548511467  0.6849007547620  0.2323105608918 1.0
C      1  0.8014043483863  0.6908921986150  0.3930780378043 1.0
C      1  0.8255642345930  0.6976994834947  0.5811472642738 1.0
C      1  0.7155265988753  0.7153026548313  0.7249996922943 1.0
C      1  0.5490351567770  0.7206292372669  0.8069754972656 1.0
C      1  0.3631435886325  0.7054108052386  0.8089713309965 1.0
C      1  0.2112103430573  0.6921425200598  0.6945734330337 1.0
C      1  0.2004914806786  0.7052635579380  0.5130826247534 1.0
C      1  0.2346104895654  0.7114626500188  0.3332705919785 1.0
C      1  0.5157454370441  0.0248828729431  0.7207149151375 1.0
C      1  0.4508067648162  0.0187487206630  0.6610525275120 1.0
C      1  0.4115278559720  0.0249988556955  0.5864733028247 1.0
C      1  0.4348379811384  0.0152759310917  0.5008926199115 1.0
C      1  0.4765310201763  0.9920086375577  0.4326230853461 1.0
C      1  0.5504592165346  0.9431743424927  0.3993595798569 1.0
C      1  0.6281964407351  0.9717374388511  0.4387318647925 1.0
C      1  0.6806763225765  0.0078071177770  0.4956458847944 1.0
C      1  0.6918525765294  0.0143491728417  0.5819736682852 1.0
C      1  0.6759802601371  0.0296769594762  0.6649594233795 1.0
C      1  0.6000319384329  0.0207296223825  0.7083827250707 1.0
C      1  0.7074213599264  0.6220937267802  0.7218723471769 1.0
C      1  0.5491660642530  0.6277893873706  0.7943483001332 1.0
C      1  0.3758941665876  0.6156736677494  0.7851861225344 1.0
C      1  0.2395907252407  0.6052025257773  0.6776790744409 1.0
C      1  0.2086320712886  0.6126738001677  0.5092394603797 1.0
C      1  0.2464886869288  0.6181120935846  0.3387685692797 1.0
C      1  0.3527690108881  0.6155737828480  0.2042309233072 1.0
C      1  0.5274759081204  0.6057469164274  0.1739403807067 1.0
C      1  0.6836768354469  0.5964252159657  0.2524688224483 1.0
C      1  0.7522269942389  0.6074196008326  0.4107034417717 1.0
C      1  0.7988540839624  0.6079042138544  0.5797652909426 1.0
C      1  0.3648711937888  0.8105603165795  0.3758467692082 1.0
C      1  0.4489787433900  0.8260345364257  0.3517635060027 1.0
C      1  0.5327351283530  0.8507659853526  0.3713358874740 1.0
C      1  0.5966653941807  0.7839197275564  0.4029724687162 1.0
C      1  0.6337372044743  0.8100272253529  0.4842390203233 1.0
C      1  0.6265641108311  0.8146932554067  0.5661882722793 1.0
C      1  0.5946256174059  0.8088584708163  0.6513784500851 1.0
C      1  0.5024970022495  0.8090216610023  0.6735364693159 1.0
C      1  0.4359023288823  0.8110192742326  0.6095123025771 1.0
C      1  0.3853060767361  0.8094238204224  0.5431742297404 1.0
C      1  0.3327464305764  0.8051717930403  0.4681078551990 1.0
C      1  0.6547437696498  0.6326188979073  0.4436336459335 1.0
C      1  0.6233543505255  0.5848653603770  0.5124828119777 1.0
C      1  0.5858182873552  0.5280149929202  0.5625267801824 1.0
C      1  0.5488489035623  0.4546634916225  0.5923437200813 1.0
C      1  0.4851309768374  0.4051222960159  0.5638897401894 1.0
C      1  0.4316570277996  0.3702408234444  0.5035987175343 1.0
C      1  0.4197921815396  0.4324757559969  0.4410862601037 1.0
C      1  0.4334100172924  0.5006892703556  0.3935768366529 1.0
C      1  0.4716487978546  0.5760622357306  0.3734347583279 1.0
C      1  0.5171429051210  0.6459527287068  0.3618386959207 1.0
C      1  0.5915602829871  0.6906914749043  0.3929467974537 1.0
END
