TITL C-160259-9374-14 -2.696 3375.00 -473.53323545 0 0 57 (C1) n - 1
REM
REM Run started: at 2020.11.27 07:29:51 in /rds/project/t2_vol4/rds-t2-cs072/BORA/CARBON/AIRSS/Generating-Clusters/Str-Search/Higher-Symm/C10-100
REM VASP from code version vasp.5.4.4.18Apr17-6-g9f103f2a35 (build Oct 11 2019 16:45:47) gamma-only
REM
REM
REM
REM
REM ./C.cell (f39ce9773e2efe3fa5bbdf770a4156b8)
REM AIRSS Version 0.9.1 bugfix July 2018 build 013d7b7c2542+ Fri, 06 Jul 2018 19:26:36 +0100
REM compiler GCC version 4.8.5 20150623 (Red Hat 4.8.5-39)
REM options -cpp -mtune=generic -march=x86-64 -g -O0
REM seed 647145463 704938486 1459487825 -711652447 420377291 1418668134 -285615356 -1538599910 -1823439502 -1582848750 1588306656 672893842
REM
REM C.POTCAR (d86ddea03c3ceb6dc662c8ad6801f873)
REM 
CELL 1.54180   15.00000   15.00000   15.00000   90.00000   90.00000   90.00000
LATT -1
SFAC C  
C      1  0.4401674292570  0.5528976298885  0.3007411501922 1.0
C      1  0.6653326284238  0.5376653837939  0.4515982988650 1.0
C      1  0.6426559382110  0.5226600069445  0.6940545040125 1.0
C      1  0.4129200175404  0.5880967564116  0.6794699997283 1.0
C      1  0.2617663729935  0.5245750282254  0.4542228703898 1.0
C      1  0.4973909820961  0.4660131829690  0.3271750024552 1.0
C      1  0.3187477548275  0.4463760774336  0.4293831986246 1.0
C      1  0.3752119668573  0.4986025278668  0.6541793732368 1.0
C      1  0.5778397554969  0.4513556970022  0.6638379388794 1.0
C      1  0.7110556052705  0.4543439797817  0.4881891678072 1.0
C      1  0.4486907143055  0.3719420527625  0.3200620512846 1.0
C      1  0.6792954145500  0.3757148671151  0.4471630224289 1.0
C      1  0.6155517887108  0.3609426364105  0.6331710843266 1.0
C      1  0.4051450831456  0.3519274572586  0.6249323618582 1.0
C      1  0.3408493894547  0.3661205338650  0.4839483450156 1.0
C      1  0.4927383003494  0.6293463301555  0.3146723039759 1.0
C      1  0.3399169032577  0.6557106879000  0.4612249204655 1.0
C      1  0.3938824056994  0.6519008136196  0.6089638029735 1.0
C      1  0.6089562107130  0.6589603310411  0.6361867182554 1.0
C      1  0.6781267095586  0.6240210015340  0.5036059426328 1.0
C      1  0.6922721706556  0.6206100335680  0.5951176384166 1.0
C      1  0.5820983886292  0.5989669506097  0.7043613997046 1.0
C      1  0.3201583124631  0.6284585402390  0.5518063735389 1.0
C      1  0.3028400964447  0.5934799153996  0.3990315720284 1.0
C      1  0.5899356560261  0.6230619452239  0.3354164127068 1.0
C      1  0.3229758505285  0.3797700939030  0.5781394862652 1.0
C      1  0.4239962811239  0.4217654971156  0.6914597008896 1.0
C      1  0.7041520614631  0.3749077563544  0.6195479850083 1.0
C      1  0.6287466330183  0.3786139081541  0.3627918557902 1.0
C      1  0.3670389683031  0.3882941529823  0.2894040811633 1.0
C      1  0.7319745200024  0.4557605511508  0.5845209571555 1.0
C      1  0.5002756516877  0.4633356803674  0.7244141176620 1.0
C      1  0.2971531605182  0.4715871393329  0.6025480660566 1.0
C      1  0.3221834323354  0.4564007169971  0.3287170400443 1.0
C      1  0.5992207370728  0.4586699632150  0.3243621835148 1.0
C      1  0.2705501528358  0.5439065734974  0.5473918292921 1.0
C      1  0.4933303154961  0.5637824869408  0.7225894082553 1.0
C      1  0.7150289008319  0.5360814082572  0.6357756104172 1.0
C      1  0.6368597974916  0.5443768056171  0.3536874508853 1.0
C      1  0.3450082293885  0.5495838076534  0.3220801405854 1.0
C      1  0.5550951546806  0.7000284742360  0.5653516549868 1.0
C      1  0.4608894201147  0.6989603006198  0.5525027532762 1.0
C      1  0.4246646717836  0.6994835884469  0.4593309450993 1.0
C      1  0.4823416184329  0.6981249358672  0.3842710052215 1.0
C      1  0.6101908380279  0.6911022796635  0.4853158115409 1.0
C      1  0.4672813615227  0.3093486140677  0.5609641523980 1.0
C      1  0.5650902110171  0.3100453744798  0.5660688861054 1.0
C      1  0.6154311485072  0.3072648926033  0.4835526250879 1.0
C      1  0.4773847496608  0.3103238920743  0.3906338540357 1.0
C      1  0.4248290501587  0.3135382039965  0.4722471113337 1.0
C      1  0.4153793231981  0.4756318256013  0.4752495507956 1.0
C      1  0.5679282430216  0.5066791814000  0.4855079948034 1.0
C      1  0.5353439221213  0.4915690235840  0.5739124074579 1.0
C      1  0.4419786342606  0.4906613305501  0.5650105852284 1.0
C      1  0.4950643699575  0.4855687903230  0.4254809334470 1.0
C      1  0.5774094120006  0.6946483150111  0.4005612810944 1.0
C      1  0.5697880844995  0.3074687689174  0.3987633812994 1.0
END
