TITL C-16343-8127-6 -5.747 3375.00 -974.36185584 0 0 119 (C2) n - 1
REM
REM Run started: at 2021.01.02 09:26:16 in /gpfs/home/chem/mssmkc/CARBON/AIRSS/Generating-Clusters/Str-Search/Higher-Symm/C100-200
REM VASP from code version vasp.5.4.4.18Apr17-6-g9f103f2a35 (build Oct 11 2019 16:45:47) gamma-only
REM
REM
REM
REM
REM ./C.cell (533062f00bc710175b3da973d35f2034)
REM AIRSS Version 0.9.1 bugfix July 2018 build 013d7b7c2542+ Fri, 06 Jul 2018 19:26:36 +0100
REM compiler GCC version 6.3.0
REM options -cpp -iprefix /gpfs/warwick/csc/orac/software/Core/GCCcore/6.3.0/bin/../lib/gcc/x86_64-pc-linux-gnu/6.3.0/ -mtune=generic -march=x86-64 -g -O0
REM seed -1922817342 1283940282 18702148 -154490907 1305173658 563669258 1835991337 1111430276 -557834841 245063125 829419448 -702475807
REM
REM C.POTCAR (d86ddea03c3ceb6dc662c8ad6801f873)
REM 
CELL 1.54180   15.00000   15.00000   15.00000   90.00000   90.00000   90.00000
LATT -1
SFAC C  
C      1  0.5323714450850  0.4973712161396  0.6413141797771 1.0
C      1  0.6990555745607  0.5417634709996  0.5117777676153 1.0
C      1  0.5813145631432  0.5510101062784  0.3097927302154 1.0
C      1  0.4200782457788  0.5734622307972  0.4435603600806 1.0
C      1  0.4649258952991  0.5179990502803  0.5806490261635 1.0
C      1  0.5324109084230  0.5048368186743  0.3587694205392 1.0
C      1  0.6987855906778  0.4609395413803  0.4890002811255 1.0
C      1  0.5813199747329  0.4510786264966  0.6902138869987 1.0
C      1  0.4199042219852  0.4290420681916  0.5564312614362 1.0
C      1  0.4649767146141  0.4844075988324  0.4194289424492 1.0
C      1  0.3004703981505  0.7236579107070  0.4101053458164 1.0
C      1  0.2938719862664  0.7043938645875  0.7100114775392 1.0
C      1  0.5732515766564  0.7097211759124  0.6982057066071 1.0
C      1  0.7586496440649  0.7107869171321  0.4360395222419 1.0
C      1  0.5471923170186  0.7157257918583  0.2404484598926 1.0
C      1  0.3003416169967  0.2787683468453  0.5898178833855 1.0
C      1  0.2936788250356  0.2977155599743  0.2900953254172 1.0
C      1  0.5732434387886  0.2923119002141  0.3020899600983 1.0
C      1  0.7586524114293  0.2914480464394  0.5643647377243 1.0
C      1  0.5471393260206  0.2862116941427  0.7591347650853 1.0
C      1  0.3670004487119  0.2330927744538  0.6359048795041 1.0
C      1  0.6149835895872  0.2626471099633  0.7015183812033 1.0
C      1  0.6877911564943  0.2661765809688  0.5082988429495 1.0
C      1  0.4793469646968  0.3023008408942  0.3235394281233 1.0
C      1  0.3272243499386  0.2957479985186  0.3824266156661 1.0
C      1  0.3663891291301  0.7690747997963  0.3627963653510 1.0
C      1  0.6148322538070  0.7395527590216  0.2982170444725 1.0
C      1  0.6879532647703  0.7361194289119  0.4923121510159 1.0
C      1  0.4794094623869  0.6998362081328  0.6766565393577 1.0
C      1  0.3273629812374  0.7067265538391  0.6176302635222 1.0
C      1  0.6613336168900  0.3148013628971  0.3388035867074 1.0
C      1  0.3483812368691  0.3310211062173  0.2209354177518 1.0
C      1  0.2401109864024  0.3189429020754  0.5286907751991 1.0
C      1  0.4580476718573  0.3164578600789  0.7686529298234 1.0
C      1  0.7602055786887  0.3336649468536  0.6514224156248 1.0
C      1  0.6614580381737  0.6873384906074  0.6616838885282 1.0
C      1  0.3484043582535  0.6708267180322  0.7791451511092 1.0
C      1  0.2402734855442  0.6835406468495  0.4712755641608 1.0
C      1  0.4581481954393  0.6853719808455  0.2308694717537 1.0
C      1  0.7599333628112  0.6684402507940  0.3490294476908 1.0
C      1  0.6966377218659  0.6922069691090  0.5757182947335 1.0
C      1  0.6830167738598  0.6753766082228  0.2945326353524 1.0
C      1  0.3939057371913  0.6909122055337  0.3033104790586 1.0
C      1  0.2495893217669  0.6825132295508  0.5634341798001 1.0
C      1  0.4375399196464  0.6785182671833  0.7648247258325 1.0
C      1  0.6962372409878  0.3102220610140  0.4249235106063 1.0
C      1  0.6831726758753  0.3267594999066  0.7057293239913 1.0
C      1  0.3937772574768  0.3110593226736  0.6962901818063 1.0
C      1  0.2494138866678  0.3201041161918  0.4365685082102 1.0
C      1  0.4375260210266  0.3231766596351  0.2352727558881 1.0
C      1  0.6432515172047  0.4092770941838  0.7562072416550 1.0
C      1  0.7591954913542  0.3861988073968  0.4481826825035 1.0
C      1  0.5045957261310  0.3577539326180  0.1765748889178 1.0
C      1  0.1918127378534  0.3705407537290  0.3763210444383 1.0
C      1  0.3783083417631  0.4026344738595  0.6435497442024 1.0
C      1  0.6433799480820  0.5927006447040  0.2439744682248 1.0
C      1  0.7597111009301  0.6163156008431  0.5524506126040 1.0
C      1  0.5044489409981  0.6438176493139  0.8235794860952 1.0
C      1  0.1919564308680  0.6320230504798  0.6235906837153 1.0
C      1  0.3784501235595  0.5997423847797  0.3563721614276 1.0
C      1  0.2150951679735  0.6512139025067  0.7121397587558 1.0
C      1  0.5815253729694  0.6875515433334  0.7934699871627 1.0
C      1  0.8214419680178  0.6568438213095  0.4869692207139 1.0
C      1  0.5855703280184  0.6420796067348  0.1764403189248 1.0
C      1  0.2999632733987  0.6620270718862  0.3339206312904 1.0
C      1  0.2150003066741  0.3512188596118  0.2878686889882 1.0
C      1  0.5816714101313  0.3140473765363  0.2068069805575 1.0
C      1  0.8212004406641  0.3454182684215  0.5133209255165 1.0
C      1  0.5853354078206  0.3596572774822  0.8235155659318 1.0
C      1  0.2998222055594  0.3402898765342  0.6660207116558 1.0
C      1  0.1945927096057  0.6102988675132  0.4230547459346 1.0
C      1  0.3126790674477  0.5830668373914  0.8081285305985 1.0
C      1  0.7067399203603  0.6307303380460  0.7299177622889 1.0
C      1  0.8232644330499  0.5939397838266  0.3555339629437 1.0
C      1  0.4785309365508  0.6106009608051  0.1669812242565 1.0
C      1  0.1944286938381  0.3921412556556  0.5769421808776 1.0
C      1  0.3128834778150  0.4189337213491  0.1921664207300 1.0
C      1  0.7067510777361  0.3711949097220  0.2705542004672 1.0
C      1  0.8235223345907  0.4081285105937  0.6448249273212 1.0
C      1  0.4781861976437  0.3909088445572  0.8329714462286 1.0
C      1  0.1760290731291  0.5197758181703  0.4560147928521 1.0
C      1  0.3740819982280  0.5097867530707  0.7836952149404 1.0
C      1  0.7436348631855  0.5402046426797  0.7307023720593 1.0
C      1  0.8019405609183  0.5023490829597  0.3328862416474 1.0
C      1  0.4600407461458  0.5161559257228  0.1752197302376 1.0
C      1  0.1759786718537  0.4827121040263  0.5439475293737 1.0
C      1  0.3743512795484  0.4921416152869  0.2165694658682 1.0
C      1  0.7435835050444  0.4617955501054  0.2697362565976 1.0
C      1  0.8020970870420  0.4996852567672  0.6675202672289 1.0
C      1  0.4597115734181  0.4854446673881  0.8250460546938 1.0
C      1  0.6569475275919  0.3643845369746  0.1892149513434 1.0
C      1  0.2308729214710  0.4319755785929  0.2344424967080 1.0
C      1  0.2182857453024  0.3951736880793  0.6698012425232 1.0
C      1  0.5506530629606  0.3775462935263  0.9050496345388 1.0
C      1  0.8714928585780  0.4093238516283  0.5571645423057 1.0
C      1  0.6567414128695  0.6373001749677  0.8111523126604 1.0
C      1  0.2307560207801  0.5703888923482  0.7655976394514 1.0
C      1  0.2182609066777  0.6073767095268  0.3301297146495 1.0
C      1  0.5510766930456  0.6238008413999  0.0949408400527 1.0
C      1  0.8714616178891  0.5927922908636  0.4430455325281 1.0
C      1  0.5254816556886  0.5531347977003  0.8466450347572 1.0
C      1  0.8142080222983  0.5439759083258  0.5861162009987 1.0
C      1  0.6859119531696  0.5104164143506  0.2076749889976 1.0
C      1  0.3442408592969  0.5244289980932  0.2978614838868 1.0
C      1  0.1923415385150  0.5384704643143  0.6159353907070 1.0
C      1  0.5257213855323  0.4484531617751  0.1536303826849 1.0
C      1  0.8138686238277  0.4582557060032  0.4143837716293 1.0
C      1  0.6857187095736  0.4914904877194  0.7926791787174 1.0
C      1  0.3441791732698  0.4779296111292  0.7021470302515 1.0
C      1  0.1923636048322  0.4640681303758  0.3839771448024 1.0
C      1  0.2364880952310  0.4931790329750  0.6951588505182 1.0
C      1  0.6275584589010  0.5493442085495  0.8407629242015 1.0
C      1  0.8613316654279  0.5010574588320  0.5001873538891 1.0
C      1  0.2366313285881  0.5093639918727  0.3048182941087 1.0
C      1  0.6277729383894  0.4523405789906  0.1596778688666 1.0
C      1  0.4192483412817  0.6812159200169  0.5986576922045 1.0
C      1  0.4191328743279  0.3212752339454  0.4013528031103 1.0
C      1  0.4371389769283  0.6009835139244  0.5337556923625 1.0
C      1  0.4370435178497  0.4015235866431  0.4662005811149 1.0
END
