TITL C-167541-928-7 -6.535 3375.00 -1080.89789727 0 0 136 (C1) n - 1
REM
REM Run started: at 2021.01.02 21:04:40 in /rds/project/t2_vol4/rds-t2-cs072/BORA/CARBON/AIRSS/Generating-Clusters/Str-Search/Higher-Symm/C100-200
REM VASP from code version vasp.5.4.4.18Apr17-6-g9f103f2a35 (build Oct 11 2019 16:45:47) gamma-only
REM
REM
REM
REM
REM ./C.cell (533062f00bc710175b3da973d35f2034)
REM AIRSS Version 0.9.1 bugfix July 2018 build 013d7b7c2542+ Fri, 06 Jul 2018 19:26:36 +0100
REM compiler GCC version 4.8.5 20150623 (Red Hat 4.8.5-39)
REM options -cpp -mtune=generic -march=x86-64 -g -O0
REM seed -13831368 -114634764 -2064641937 -428425472 678024468 1963131675 1176230073 -2122179893 -376115154 171037849 -784049208 1832746680
REM
REM C.POTCAR (d86ddea03c3ceb6dc662c8ad6801f873)
REM 
CELL 1.54180   15.00000   15.00000   15.00000   90.00000   90.00000   90.00000
LATT -1
SFAC C  
C      1  0.6703908676122  0.5048504273909  0.3628607987612 1.0
C      1  0.4823162295254  0.3578761845691  0.6535457526368 1.0
C      1  0.3687958858828  0.6665632901352  0.4879375769649 1.0
C      1  0.6673161995273  0.4979839562730  0.6288708890468 1.0
C      1  0.3593283373151  0.5022219241870  0.6253589408046 1.0
C      1  0.3324309715669  0.5097401515234  0.3695332200251 1.0
C      1  0.4860633384522  0.6307325325403  0.3287108527984 1.0
C      1  0.4950571351238  0.3709640137897  0.3593808155235 1.0
C      1  0.5097287530187  0.6241965545463  0.6598298535003 1.0
C      1  0.3684734557672  0.3315278544163  0.5046797752710 1.0
C      1  0.6237543093020  0.6579761865459  0.4872685232602 1.0
C      1  0.6265616262646  0.3419587466305  0.5069912070184 1.0
C      1  0.5799759074898  0.7676554946250  0.4051978643091 1.0
C      1  0.7705563701419  0.4021573651332  0.6049759621743 1.0
C      1  0.4219088745057  0.5885191685113  0.7691846538593 1.0
C      1  0.5753917438754  0.2244064130582  0.5826773793889 1.0
C      1  0.4101914108119  0.7585083975042  0.5799740069912 1.0
C      1  0.4030909549049  0.2236614949926  0.4145452074739 1.0
C      1  0.7738411751385  0.6043126265739  0.3913821984055 1.0
C      1  0.2394956429783  0.4175992716140  0.4085245912066 1.0
C      1  0.2424425866134  0.5879357294182  0.5895745123986 1.0
C      1  0.4131575403895  0.4102762119063  0.2420780003497 1.0
C      1  0.5752871667139  0.5914097440345  0.2326667577896 1.0
C      1  0.5698228019858  0.4038763997188  0.7598788039242 1.0
C      1  0.2297879545688  0.6521919672601  0.6607023351402 1.0
C      1  0.6398655165306  0.6649303984626  0.2198854162593 1.0
C      1  0.6441192066737  0.2230168202921  0.6526847300054 1.0
C      1  0.2292475336527  0.3508179241712  0.3364506946469 1.0
C      1  0.7686582489393  0.6692694023158  0.3200129653987 1.0
C      1  0.7640658660532  0.3354200581734  0.6749290726425 1.0
C      1  0.6350439294927  0.3346748411939  0.7720783438749 1.0
C      1  0.3525954282343  0.6571237467865  0.7695646477903 1.0
C      1  0.3480381240801  0.3400018404518  0.2281846363988 1.0
C      1  0.6493483821185  0.7793788878638  0.3367165315107 1.0
C      1  0.3357449428131  0.2259740518706  0.3446785721151 1.0
C      1  0.3398683733322  0.7677543884579  0.6479078438533 1.0
C      1  0.3941782983121  0.4759036580585  0.3100222101784 1.0
C      1  0.4741305429249  0.2951418712022  0.4139006086538 1.0
C      1  0.3222007820927  0.3995548079181  0.4663636617197 1.0
C      1  0.4182887133656  0.5179313397782  0.6984191558439 1.0
C      1  0.5903030162923  0.4698664579872  0.6826876457583 1.0
C      1  0.5979032193089  0.5353836009202  0.3159067373129 1.0
C      1  0.4688332027932  0.6754058627875  0.5964019461674 1.0
C      1  0.4978607755272  0.2822870680207  0.5942076051028 1.0
C      1  0.5178750082675  0.6937982694357  0.3885844744947 1.0
C      1  0.3095026661978  0.6050877341636  0.5222365681127 1.0
C      1  0.6989546263043  0.3909319045687  0.5366376837887 1.0
C      1  0.6994199111014  0.6139720341045  0.4600376567559 1.0
C      1  0.2332424179730  0.6262060405781  0.2799642491168 1.0
C      1  0.6256996942422  0.2834134690510  0.2537781301398 1.0
C      1  0.2655733172814  0.2394351362537  0.6212145975236 1.0
C      1  0.2448015039061  0.3747772840540  0.7185976748852 1.0
C      1  0.7539319998390  0.6214211624189  0.7181926328317 1.0
C      1  0.7581599038332  0.3832722423461  0.2791888269024 1.0
C      1  0.6272728392395  0.7232478220338  0.7491440094438 1.0
C      1  0.3633987086817  0.2686259584778  0.7558980454390 1.0
C      1  0.3641775387085  0.7202457494577  0.2360642985848 1.0
C      1  0.2744303711538  0.7611245743561  0.3734381983583 1.0
C      1  0.7239928134420  0.2496730514428  0.3823933440598 1.0
C      1  0.7183820652114  0.7540463570884  0.6125062679191 1.0
C      1  0.5209162145558  0.5498024839178  0.3791052054145 1.0
C      1  0.5454290530172  0.3924409772597  0.5207302415322 1.0
C      1  0.3858872299520  0.5369966695636  0.5328981212188 1.0
C      1  0.5224331978694  0.4361864368586  0.6064662359797 1.0
C      1  0.5089106844239  0.5226393147858  0.6538345022040 1.0
C      1  0.4628738928694  0.4651486811275  0.3858498914935 1.0
C      1  0.5329199710730  0.6195561990703  0.4572155865831 1.0
C      1  0.4698041515796  0.3292171929668  0.5074961246919 1.0
C      1  0.4516414773251  0.6173412226767  0.5174756574036 1.0
C      1  0.3825592164359  0.4781354748445  0.4512649054339 1.0
C      1  0.6675362945369  0.5233012741795  0.4576264938770 1.0
C      1  0.6613647147795  0.4798075257612  0.5340095721969 1.0
C      1  0.2347210044092  0.5125756807046  0.3854340549055 1.0
C      1  0.5050519177552  0.3822569966586  0.2608176666850 1.0
C      1  0.3665453636181  0.2288523695488  0.5059839682480 1.0
C      1  0.2610304641196  0.4963324755091  0.6178928802719 1.0
C      1  0.7696088560110  0.4975440989887  0.6288610451829 1.0
C      1  0.7735163314994  0.5086150776104  0.3666354022762 1.0
C      1  0.5136483701672  0.6224979735174  0.7625823541551 1.0
C      1  0.4758478667164  0.3772386397419  0.7495643161558 1.0
C      1  0.4794729526366  0.6139363556412  0.2321095854719 1.0
C      1  0.3836744646694  0.7635395620759  0.4849245504247 1.0
C      1  0.6103287065346  0.2430900235439  0.4921666737669 1.0
C      1  0.6080323150632  0.7568973625230  0.4984822926145 1.0
C      1  0.3479547265205  0.8066294548768  0.4139114546899 1.0
C      1  0.8118267207701  0.4309789848432  0.3427874917448 1.0
C      1  0.4078509415413  0.3412858035590  0.7993315894553 1.0
C      1  0.3334858939084  0.1875078209490  0.5786911994858 1.0
C      1  0.6411527706097  0.7919156219364  0.5738838402631 1.0
C      1  0.6500390520750  0.2047981021614  0.4207034290679 1.0
C      1  0.8070296372465  0.5744002731233  0.6542122531709 1.0
C      1  0.2181666602509  0.4224058285004  0.6440099247403 1.0
C      1  0.1888186203204  0.5827404660155  0.3521325387566 1.0
C      1  0.4053846471756  0.6464723351007  0.1917780600442 1.0
C      1  0.5807260718171  0.3572896658694  0.2194701518321 1.0
C      1  0.5889578736118  0.6530047019136  0.8009367562920 1.0
C      1  0.4355875945486  0.2053995055306  0.7538161445407 1.0
C      1  0.2156844292909  0.7521685189355  0.4497207387851 1.0
C      1  0.7378250922833  0.4545640401727  0.2143335993615 1.0
C      1  0.4371906897422  0.7823867928914  0.2414873897566 1.0
C      1  0.5527359922536  0.2185790034850  0.2566833903752 1.0
C      1  0.5531135643875  0.7829229686476  0.7351873763147 1.0
C      1  0.2060899989558  0.2566455202064  0.5466258435924 1.0
C      1  0.7770773347312  0.7565693281048  0.5347459102137 1.0
C      1  0.7812339452992  0.2495121775278  0.4607351825452 1.0
C      1  0.7309887808759  0.5494989012563  0.7817841653677 1.0
C      1  0.2518274673181  0.4465793147522  0.7846147789881 1.0
C      1  0.2453346875059  0.5520366870252  0.2190124972905 1.0
C      1  0.3783748879607  0.2510928282259  0.2608375396163 1.0
C      1  0.2480810107240  0.2634822827381  0.3744771405978 1.0
C      1  0.2600316978563  0.3793280443069  0.2479430680770 1.0
C      1  0.3809847834123  0.7452780800034  0.7338394354858 1.0
C      1  0.6060539915296  0.2441796240619  0.7401602502422 1.0
C      1  0.6096392329752  0.7538162622108  0.2504252508375 1.0
C      1  0.2498017815073  0.7400160717269  0.6216041037802 1.0
C      1  0.7359607827546  0.2521180543679  0.6303918461315 1.0
C      1  0.7405267216047  0.7534517447702  0.3623448512817 1.0
C      1  0.2657861243108  0.6190159872165  0.7480599928602 1.0
C      1  0.7233459754428  0.3728603005949  0.7565897353731 1.0
C      1  0.7286941705017  0.6304865304963  0.2371509143811 1.0
C      1  0.7744425823743  0.7653453506134  0.4512316787483 1.0
C      1  0.7323586812473  0.4646374430374  0.7847990679604 1.0
C      1  0.4689587149844  0.7794875854811  0.7409664010106 1.0
C      1  0.7748857001072  0.2400459842307  0.5442846018113 1.0
C      1  0.2160453419633  0.7532232033836  0.5335693731228 1.0
C      1  0.2130482524329  0.2548244850477  0.4624640682242 1.0
C      1  0.7385493658875  0.5388309336240  0.2095584495087 1.0
C      1  0.2465793541971  0.4680745871048  0.2166806428121 1.0
C      1  0.2528313558306  0.5307521358662  0.7802915011461 1.0
C      1  0.4684947975792  0.2203496968562  0.2519066673804 1.0
C      1  0.5210515064269  0.7837328555139  0.2375040166407 1.0
C      1  0.5197303029282  0.2108872049563  0.7558293499855 1.0
C      1  0.2812987895794  0.2841798297188  0.7067240428397 1.0
C      1  0.7132617778869  0.2983089656690  0.2979007977787 1.0
C      1  0.2823933283570  0.7102305302266  0.2896810365890 1.0
C      1  0.7096949555848  0.7067433880499  0.6993319783037 1.0
END
