TITL C-16343-8127-45 -9.156 3375.00 -1563.14200712 0 0 190 (C1) n - 1
REM
REM Run started: at 2021.01.03 16:04:42 in /gpfs/home/chem/mssmkc/CARBON/AIRSS/Generating-Clusters/Str-Search/Higher-Symm/C100-200
REM VASP from code version vasp.5.4.4.18Apr17-6-g9f103f2a35 (build Oct 11 2019 16:45:47) gamma-only
REM
REM
REM
REM
REM ./C.cell (533062f00bc710175b3da973d35f2034)
REM AIRSS Version 0.9.1 bugfix July 2018 build 013d7b7c2542+ Fri, 06 Jul 2018 19:26:36 +0100
REM compiler GCC version 6.3.0
REM options -cpp -iprefix /gpfs/warwick/csc/orac/software/Core/GCCcore/6.3.0/bin/../lib/gcc/x86_64-pc-linux-gnu/6.3.0/ -mtune=generic -march=x86-64 -g -O0
REM seed -1696031591 -966448248 -704994161 -797161687 -88584649 1688885528 -1318365372 -861355257 -1693156995 2021581917 -55772627 259006166
REM
REM C.POTCAR (d86ddea03c3ceb6dc662c8ad6801f873)
REM 
CELL 1.54180   15.00000   15.00000   15.00000   90.00000   90.00000   90.00000
LATT -1
SFAC C  
C      1  0.6522621573500  0.6809975857791  0.2846576568128 1.0
C      1  0.6521356468170  0.3190577251381  0.2848089515724 1.0
C      1  0.3452702994598  0.6125169484346  0.5878474144446 1.0
C      1  0.3448461140542  0.3864724951572  0.5890712114342 1.0
C      1  0.1342138908118  0.5458614624975  0.4861081142094 1.0
C      1  0.1275962276027  0.4527231532165  0.4944312283582 1.0
C      1  0.2402920428552  0.3408508360961  0.6932094703320 1.0
C      1  0.2395057755367  0.6565319162214  0.6910139733803 1.0
C      1  0.4052638302938  0.3447692373490  0.3744838449909 1.0
C      1  0.4057752912387  0.6556412988413  0.3738942514535 1.0
C      1  0.5408929216771  0.5796327828202  0.5636107692433 1.0
C      1  0.5410345203043  0.4200038798267  0.5638421299232 1.0
C      1  0.8509006230917  0.4550701593955  0.4862421675850 1.0
C      1  0.8509035783187  0.5451563821049  0.4863056234322 1.0
C      1  0.5389677102140  0.9359337263357  0.4048462486621 1.0
C      1  0.5390516135997  0.0641436373120  0.4047472097965 1.0
C      1  0.5088002147227  0.3007515871091  0.1612303449630 1.0
C      1  0.5103977072608  0.6994175642406  0.1613484370807 1.0
C      1  0.4697934449487  0.8609753605207  0.3861247823051 1.0
C      1  0.4697947612884  0.1391252184045  0.3863776382377 1.0
C      1  0.3249161923106  0.6930071730015  0.4329539917234 1.0
C      1  0.3248318346813  0.3068089251573  0.4338551336438 1.0
C      1  0.3491400234715  0.7182938193416  0.2330243628029 1.0
C      1  0.3478504408725  0.2821642253859  0.2341626238478 1.0
C      1  0.4509555748542  0.7400754679012  0.2307311474904 1.0
C      1  0.4497883395617  0.2603895663118  0.2311491399132 1.0
C      1  0.6925085557298  0.4012574434979  0.7686618585629 1.0
C      1  0.6920898362795  0.5986764196025  0.7685957823975 1.0
C      1  0.1700704843387  0.2179583968927  0.5024676392724 1.0
C      1  0.1698615219217  0.7800408352367  0.5002714912951 1.0
C      1  0.3397018664730  0.3823431965843  0.2177437366545 1.0
C      1  0.3409293214557  0.6184619914404  0.2162077342141 1.0
C      1  0.8047497053786  0.6046374488027  0.5568702236150 1.0
C      1  0.8048951271372  0.3955277359133  0.5567785335366 1.0
C      1  0.6297858794774  0.5532425807197  0.6035326122652 1.0
C      1  0.6299032574803  0.4465931754221  0.6036227185386 1.0
C      1  0.4227862472967  0.4385362398188  0.1750254766412 1.0
C      1  0.4234675684039  0.5620618484576  0.1745673949931 1.0
C      1  0.4750810003189  0.5436389149507  0.6295744682772 1.0
C      1  0.4751074524481  0.4557085222431  0.6298227093215 1.0
C      1  0.5791647972219  0.6938460971986  0.3535808791630 1.0
C      1  0.5789362770640  0.3062932209063  0.3536551936040 1.0
C      1  0.5238646201818  0.3216576784478  0.5644129288094 1.0
C      1  0.5235470793642  0.6779844822385  0.5641426978911 1.0
C      1  0.6555273702847  0.5852303190038  0.2614423368526 1.0
C      1  0.6552942324236  0.4147557197762  0.2615384229824 1.0
C      1  0.4360062340108  0.7962805388448  0.6790146666469 1.0
C      1  0.4371671605536  0.2028175021394  0.6793556462729 1.0
C      1  0.5877761947063  0.8993049140515  0.5056611264326 1.0
C      1  0.5883349826939  0.1006236997971  0.5054551402652 1.0
C      1  0.2954737591376  0.4495782240902  0.2885312032900 1.0
C      1  0.2959986527683  0.5532859885111  0.2866357979395 1.0
C      1  0.6135708192431  0.2164441036381  0.3934719075547 1.0
C      1  0.6136877617737  0.7836887156334  0.3935189337055 1.0
C      1  0.6076320381266  0.4505650574112  0.7958517537389 1.0
C      1  0.6073660789922  0.5491560343753  0.7957367155080 1.0
C      1  0.3550058127036  0.4437204801935  0.5009722476517 1.0
C      1  0.3553802310350  0.5554151509866  0.4996477486766 1.0
C      1  0.5791061690835  0.8677495998559  0.6819756456618 1.0
C      1  0.5802495561370  0.1318089674853  0.6819087853365 1.0
C      1  0.8446252811722  0.6240260645426  0.4244850377859 1.0
C      1  0.8445938626203  0.3761727816913  0.4243358010998 1.0
C      1  0.1806118382548  0.7760167376467  0.4073317927537 1.0
C      1  0.1803992765990  0.2239859630418  0.4095150530289 1.0
C      1  0.6997950024228  0.4054223758261  0.5323031700731 1.0
C      1  0.6996918255369  0.5945768018446  0.5322818312472 1.0
C      1  0.3174608616733  0.3061869116105  0.7411508846107 1.0
C      1  0.3161977689957  0.6917882690105  0.7397593066594 1.0
C      1  0.4179001455250  0.6166294857782  0.6613447970048 1.0
C      1  0.4181261600358  0.3825042422331  0.6619759538007 1.0
C      1  0.5654802181819  0.1432136930136  0.3402040287441 1.0
C      1  0.5657456046310  0.8570446421039  0.3403520871804 1.0
C      1  0.6673411193962  0.8289517106538  0.7046646776174 1.0
C      1  0.6683897281401  0.1708455528791  0.7045802956675 1.0
C      1  0.5155093856548  0.8248596127622  0.7357911381033 1.0
C      1  0.5167063128010  0.1745067191978  0.7358764168393 1.0
C      1  0.4373399818925  0.6008036105863  0.4522297976562 1.0
C      1  0.4370905807778  0.3987818187573  0.4530446590278 1.0
C      1  0.4553629181977  0.3098559114210  0.4969772992794 1.0
C      1  0.4552459945200  0.6897578654685  0.4964898691717 1.0
C      1  0.7139435368359  0.2252434187548  0.3979766630558 1.0
C      1  0.7140042682119  0.7748073028378  0.3980449063011 1.0
C      1  0.3108283277637  0.1519048469933  0.4811743952522 1.0
C      1  0.3102986894389  0.8472980561059  0.4805524234985 1.0
C      1  0.8247616623280  0.6826550558832  0.4940679137807 1.0
C      1  0.8249875478640  0.3174766338979  0.4939636154386 1.0
C      1  0.4986723693022  0.3876766729347  0.1305414744038 1.0
C      1  0.4996029828765  0.6126291547215  0.1302925888267 1.0
C      1  0.4960776842712  0.6714607209815  0.7986303477779 1.0
C      1  0.4969623753525  0.3278176384748  0.7989838041225 1.0
C      1  0.2368592613452  0.4461690920995  0.3747565380054 1.0
C      1  0.2342537058129  0.5589183424191  0.3704806849223 1.0
C      1  0.3840794383262  0.4095357796876  0.3073647284770 1.0
C      1  0.3848274147079  0.5915127127058  0.3064615652460 1.0
C      1  0.7398167539358  0.8278254170564  0.5548823771449 1.0
C      1  0.7403565834409  0.1722280259766  0.5546313403343 1.0
C      1  0.4350726812960  0.5480677060635  0.8185091906186 1.0
C      1  0.4354008232966  0.4508583631585  0.8189071059016 1.0
C      1  0.5714641476829  0.1983769747044  0.4827753457717 1.0
C      1  0.5712035537580  0.8015234288831  0.4827343201123 1.0
C      1  0.1648592355579  0.2926370497648  0.5583061036891 1.0
C      1  0.1647771357522  0.7045954958373  0.5549475047968 1.0
C      1  0.1940888722565  0.3881833127163  0.5352351089254 1.0
C      1  0.1975840617584  0.6097330895242  0.5314889250858 1.0
C      1  0.6144871227294  0.4020602833435  0.7007439174598 1.0
C      1  0.6141467159220  0.5976802588885  0.7005872279462 1.0
C      1  0.5846200882177  0.5917195007554  0.3977482129295 1.0
C      1  0.5844107637125  0.4082649798722  0.3978312485148 1.0
C      1  0.3368820019535  0.2215723064066  0.6980238540089 1.0
C      1  0.3354038111319  0.7764833889876  0.6969214280823 1.0
C      1  0.4814518757904  0.1885249306096  0.3013901031982 1.0
C      1  0.4820426107724  0.8118010189574  0.3011003636185 1.0
C      1  0.6789676858464  0.6905365451823  0.5252912957634 1.0
C      1  0.6792158880553  0.3094464943644  0.5253034795534 1.0
C      1  0.2534583748191  0.5925535597271  0.6184823072125 1.0
C      1  0.2528404041874  0.4050066804747  0.6205998622322 1.0
C      1  0.5706550612189  0.5475854554440  0.1152844603655 1.0
C      1  0.5702263959249  0.4523550354091  0.1154453518841 1.0
C      1  0.2917831997246  0.2326181503844  0.2908201695039 1.0
C      1  0.2926657551876  0.7675939968187  0.2895063212265 1.0
C      1  0.7703384173621  0.2922015640224  0.6874767380726 1.0
C      1  0.7697242081393  0.7079319966760  0.6876006207644 1.0
C      1  0.5587244962976  0.2488485667977  0.7841123142677 1.0
C      1  0.5577558478376  0.7506070446904  0.7839700928483 1.0
C      1  0.4480728964328  0.8553141761421  0.5997127452042 1.0
C      1  0.4489791505259  0.1440401461450  0.5999010065591 1.0
C      1  0.2731541616585  0.6044577947584  0.4529493964514 1.0
C      1  0.2726856428781  0.3945325653677  0.4545738939475 1.0
C      1  0.2423871582324  0.8363224239935  0.5442408923823 1.0
C      1  0.2433830048423  0.1617522729692  0.5452976733472 1.0
C      1  0.6880143099903  0.8916402344895  0.5096014147552 1.0
C      1  0.6885674052139  0.1084555299116  0.5092559304409 1.0
C      1  0.7991731099085  0.3789061007946  0.6566775459561 1.0
C      1  0.7988402134803  0.6213109549199  0.6567644762111 1.0
C      1  0.7649148002396  0.4526689903486  0.7168669422902 1.0
C      1  0.7647391367327  0.5474511137250  0.7168786332480 1.0
C      1  0.7291763900895  0.5524865299069  0.3318999263127 1.0
C      1  0.7290451978843  0.4475283081112  0.3319344631726 1.0
C      1  0.1988793178601  0.2691343966570  0.6449919670693 1.0
C      1  0.1979550906252  0.7277046293425  0.6424394271565 1.0
C      1  0.4814573245051  0.2880805158192  0.3257777754965 1.0
C      1  0.4819567948926  0.7122782882138  0.3255222944774 1.0
C      1  0.6739369401749  0.4476502546504  0.4283040678596 1.0
C      1  0.6740187913636  0.5523574906021  0.4283298437241 1.0
C      1  0.5659865945535  0.5499102301691  0.3064985283748 1.0
C      1  0.5657631405446  0.4501827851094  0.3066293673908 1.0
C      1  0.4660242330486  0.5494332963543  0.2699454629794 1.0
C      1  0.4655722125965  0.4509553289559  0.2703233322122 1.0
C      1  0.2051427502401  0.7710957575433  0.3245891463859 1.0
C      1  0.2043165722306  0.2281494180518  0.3262645648195 1.0
C      1  0.5340375325145  0.8927824605020  0.5959260136115 1.0
C      1  0.5349886965770  0.1067872505936  0.5958777997475 1.0
C      1  0.7528894790060  0.2483364595737  0.4899654217422 1.0
C      1  0.7526809891653  0.7517968804471  0.4901186611703 1.0
C      1  0.5505463897767  0.3250741913351  0.7146965073775 1.0
C      1  0.5499170112517  0.6744752918361  0.7144923989671 1.0
C      1  0.3956798128590  0.8179374443620  0.5241537124197 1.0
C      1  0.3961845224215  0.1815639340993  0.5246020722424 1.0
C      1  0.5201271123149  0.4140217917136  0.8332215333943 1.0
C      1  0.5195577218637  0.5853374696328  0.8327675639967 1.0
C      1  0.7372727614691  0.7986282277325  0.6485313781702 1.0
C      1  0.7380887044580  0.2013862983671  0.6483450066082 1.0
C      1  0.7915055660676  0.3688195766347  0.3435051835219 1.0
C      1  0.7914434942240  0.6312693756336  0.3437507481393 1.0
C      1  0.2915772856648  0.2182310172466  0.3977452769405 1.0
C      1  0.2917233850559  0.7817140352043  0.3966678203351 1.0
C      1  0.3660746065885  0.2889941926614  0.5286228613090 1.0
C      1  0.3658531084214  0.7102876497653  0.5279874718692 1.0
C      1  0.2599725105367  0.1952123193814  0.6388786018916 1.0
C      1  0.2584800654496  0.8022483177947  0.6373570534818 1.0
C      1  0.7340598292825  0.7088040354259  0.3293828477487 1.0
C      1  0.7339443761917  0.2913040715579  0.3293761329855 1.0
C      1  0.6571649760977  0.2360571974375  0.7791666026546 1.0
C      1  0.6562363982798  0.7636986586735  0.7792080914593 1.0
C      1  0.5210403061033  0.5516662837653  0.4656152440042 1.0
C      1  0.5208952302036  0.4480587623419  0.4658402989448 1.0
C      1  0.4800555456030  0.6979428887165  0.6504459753629 1.0
C      1  0.4806352555400  0.3014191947702  0.6507762202733 1.0
C      1  0.4719540361163  0.2065567750193  0.4630651882497 1.0
C      1  0.4717064856368  0.7933470930725  0.4627355808846 1.0
C      1  0.6001807600243  0.2717812735513  0.5382552395491 1.0
C      1  0.5998423775343  0.7280518902812  0.5381859966364 1.0
C      1  0.6574333748622  0.5461200712895  0.1706527150033 1.0
C      1  0.6571560523161  0.4536548968282  0.1707704940627 1.0
C      1  0.7181402014675  0.3050379640446  0.7703382418966 1.0
C      1  0.7174508519807  0.6949131633937  0.7703856505670 1.0
C      1  0.1278748142260  0.5617696936901  0.3833331488636 1.0
C      1  0.1425085469376  0.4667541484098  0.3996073652229 1.0
C      1  0.3983569056083  0.6332162420739  0.7648913479445 1.0
C      1  0.3992144456837  0.3654217799580  0.7656115490260 1.0
END
