TITL C-16605-5188-4 -4.099 3375.00 -695.39539857 0 0 86 (Ci) n - 1
REM
REM Run started: at 2020.11.21 01:45:56 in /rds/project/t2_vol4/rds-t2-cs072/BORA/CARBON/AIRSS/Generating-Clusters/Str-Search/Higher-Symm
REM VASP from code version vasp.5.4.4.18Apr17-6-g9f103f2a35 (build Oct 11 2019 16:45:47) gamma-only
REM
REM
REM
REM
REM ./C.cell (e5ae0387ce4d49c7c0135a1433873289)
REM AIRSS Version 0.9.1 bugfix July 2018 build 013d7b7c2542+ Fri, 06 Jul 2018 19:26:36 +0100
REM compiler GCC version 4.8.5 20150623 (Red Hat 4.8.5-39)
REM options -cpp -mtune=generic -march=x86-64 -g -O0
REM seed 1663776548 907652838 1009339365 -1206100952 1906639201 -369009530 -40425712 -1841991851 1070854278 1501793006 -316164503 117433435
REM
REM C.POTCAR (d86ddea03c3ceb6dc662c8ad6801f873)
REM 
CELL 1.54180   15.00000   15.00000   15.00000   90.00000   90.00000   90.00000
LATT -1
SFAC C  
C      1  0.4029180841818  0.5443878755896  0.4491519538560 1.0
C      1  0.5970819167724  0.4556118159642  0.5508474068986 1.0
C      1  0.2109733578179  0.5490399570509  0.6187444018716 1.0
C      1  0.7890278221098  0.4509599791005  0.3812563786458 1.0
C      1  0.6413328632599  0.3420618841194  0.2767807255769 1.0
C      1  0.3586714915430  0.6579367733793  0.7232217347328 1.0
C      1  0.4457002701235  0.1686845204980  0.3451580174183 1.0
C      1  0.5542939719279  0.8313192436586  0.6548406030235 1.0
C      1  0.3174172937834  0.5094693420401  0.3103062065003 1.0
C      1  0.6825828901457  0.4905294706468  0.6896936495296 1.0
C      1  0.6190968364391  0.4959695149198  0.4614729220877 1.0
C      1  0.3809032775118  0.5040301763865  0.5385268030564 1.0
C      1  0.4053216481257  0.4143407185824  0.6610805863515 1.0
C      1  0.5946789442139  0.5856596572210  0.3389194608672 1.0
C      1  0.5355736953118  0.5187081447283  0.5951983514599 1.0
C      1  0.4644267611559  0.4812920282415  0.4048005979264 1.0
C      1  0.5502962109371  0.2534400372892  0.4231068063325 1.0
C      1  0.4497038295793  0.7465577410370  0.5768929371164 1.0
C      1  0.5713391935108  0.5964381356132  0.6296035653766 1.0
C      1  0.4286612227690  0.4035621295367  0.3703959072252 1.0
C      1  0.3056561217769  0.5680626899448  0.3923842102661 1.0
C      1  0.6943438743786  0.4319362348663  0.6076152561308 1.0
C      1  0.4981345006114  0.2112572506550  0.5907080641647 1.0
C      1  0.5018648185105  0.7887429506980  0.4092927390080 1.0
C      1  0.6150816912766  0.4653408566374  0.7573357356405 1.0
C      1  0.3849189584461  0.5346583405733  0.2426637931572 1.0
C      1  0.6558728219812  0.5812480968493  0.6765595730555 1.0
C      1  0.3441279487417  0.4187508551757  0.3234392976855 1.0
C      1  0.4911020797793  0.2476884396840  0.3450338391801 1.0
C      1  0.5088970022673  0.7523120843024  0.6549666278230 1.0
C      1  0.4272246165528  0.1033432359910  0.3962327810240 1.0
C      1  0.5727641464045  0.8966649842849  0.6037708731569 1.0
C      1  0.5733897082460  0.8976670235755  0.5135126363585 1.0
C      1  0.4266017094712  0.1023354984965  0.4864898952437 1.0
C      1  0.2914014026433  0.6715401142456  0.6763574494942 1.0
C      1  0.7086007756018  0.3284587666880  0.3236409663891 1.0
C      1  0.4529004905190  0.1353098870349  0.5583824685818 1.0
C      1  0.5470972980154  0.8646925880743  0.4416187885223 1.0
C      1  0.2412179045726  0.6575058019877  0.5142924188770 1.0
C      1  0.7587843637629  0.3424928948344  0.4857074443159 1.0
C      1  0.4744584113949  0.7580525241776  0.3291115991002 1.0
C      1  0.5255411016548  0.2419478334591  0.6708892456810 1.0
C      1  0.2311514974919  0.6411884295493  0.6112493128430 1.0
C      1  0.7688513283892  0.3588111397877  0.3887510407149 1.0
C      1  0.2959008771151  0.4535599056434  0.5693149516371 1.0
C      1  0.7040990776683  0.5464395624062  0.4306859525418 1.0
C      1  0.6954292177648  0.2873632131580  0.5259620038000 1.0
C      1  0.3045711706190  0.7126361446304  0.4740373001330 1.0
C      1  0.7806060681564  0.4932729299213  0.4702930750437 1.0
C      1  0.2193941782410  0.5067264095794  0.5297075551409 1.0
C      1  0.4436200645950  0.6282491392581  0.7460970949541 1.0
C      1  0.5563824205437  0.3717504876885  0.2539035537719 1.0
C      1  0.5671761382633  0.3589349071841  0.5678207891494 1.0
C      1  0.4328236058900  0.6410651079558  0.4321780641030 1.0
C      1  0.5554554972140  0.5127082598290  0.3986735533563 1.0
C      1  0.4445457028038  0.4872918463295  0.6013260492486 1.0
C      1  0.4702254479611  0.5506462676010  0.7970034892981 1.0
C      1  0.5297766421804  0.4493534917501  0.2029968945528 1.0
C      1  0.7647927346141  0.4282175354833  0.5354063667817 1.0
C      1  0.2352073082313  0.5717814976954  0.4645939240386 1.0
C      1  0.4163541491357  0.4727557250677  0.7839140780793 1.0
C      1  0.5836472273973  0.5272438787689  0.2160864822724 1.0
C      1  0.2706353500506  0.4867233554589  0.6642807750601 1.0
C      1  0.7293652591524  0.5132765516784  0.3357204711978 1.0
C      1  0.4403257849273  0.6075179429145  0.2646295785705 1.0
C      1  0.5596742770898  0.3924827445139  0.7353687241815 1.0
C      1  0.3387351875884  0.6656039594582  0.3915240441125 1.0
C      1  0.6612634783149  0.3343942004035  0.6084746821446 1.0
C      1  0.3971993323975  0.3806306569730  0.2503250215461 1.0
C      1  0.6028031117090  0.6193686278327  0.7496733454925 1.0
C      1  0.6217414368143  0.2453707447399  0.4767327751573 1.0
C      1  0.3782597088948  0.7546283082344  0.5232667311636 1.0
C      1  0.4198781544383  0.6759341802488  0.3340012454091 1.0
C      1  0.5801210160251  0.3240661442371  0.6659968773893 1.0
C      1  0.4323670487162  0.4557126139857  0.2050424444940 1.0
C      1  0.5676347837119  0.5442867261341  0.7949572136795 1.0
C      1  0.4649386367541  0.7240023715680  0.4799152311906 1.0
C      1  0.5350615544449  0.2759971411335  0.5200844114504 1.0
C      1  0.6342506822119  0.6194112383232  0.4299129498799 1.0
C      1  0.3657488953682  0.3805887569914  0.5700877380665 1.0
C      1  0.5252883872440  0.6637279611222  0.6989020966541 1.0
C      1  0.4747130753143  0.3362720843331  0.3010977207025 1.0
C      1  0.3402900219786  0.4669172560428  0.7182275020548 1.0
C      1  0.6597106973522  0.5330823039459  0.2817728623784 1.0
C      1  0.5349398526578  0.5981513475390  0.2568914305038 1.0
C      1  0.4650605847399  0.4018488050623  0.7431078773508 1.0
END
