TITL C-166495-9706-4 -5.984 3375.00 -1078.16792610 0 0 133 (C1) n - 1
REM
REM Run started: at 2020.11.26 07:33:02 in /rds/project/t2_vol4/rds-t2-cs072/BORA/CARBON/AIRSS/Generating-Clusters/Str-Search/Higher-Symm
REM VASP from code version vasp.5.4.4.18Apr17-6-g9f103f2a35 (build Oct 11 2019 16:45:47) gamma-only
REM
REM
REM
REM
REM ./C.cell (e5ae0387ce4d49c7c0135a1433873289)
REM AIRSS Version 0.9.1 bugfix July 2018 build 013d7b7c2542+ Fri, 06 Jul 2018 19:26:36 +0100
REM compiler GCC version 4.8.5 20150623 (Red Hat 4.8.5-39)
REM options -cpp -mtune=generic -march=x86-64 -g -O0
REM seed -954772402 1185606872 1575531135 961291017 -1399947143 77376785 -618699279 -1400747096 -555589197 -1667597023 1410176572 2106025043
REM
REM C.POTCAR (d86ddea03c3ceb6dc662c8ad6801f873)
REM 
CELL 1.54180   15.00000   15.00000   15.00000   90.00000   90.00000   90.00000
LATT -1
SFAC C  
C      1  0.3884102224830  0.5414205590762  0.7638323751505 1.0
C      1  0.7749971141749  0.5456052399586  0.6088316126602 1.0
C      1  0.6242233676347  0.5499663268202  0.2338938755970 1.0
C      1  0.2397141732304  0.5583844065696  0.3912158601572 1.0
C      1  0.3895243372269  0.4389946521595  0.7796571195039 1.0
C      1  0.8015291280754  0.4420588475555  0.6169261075972 1.0
C      1  0.6240122499119  0.4500147670169  0.2354290653187 1.0
C      1  0.2407940703941  0.4408894376777  0.3896308718603 1.0
C      1  0.8066287331592  0.6178058482762  0.4427669385490 1.0
C      1  0.4508962855974  0.6117167304896  0.2128226467667 1.0
C      1  0.2162153985513  0.6189421964680  0.5652917766205 1.0
C      1  0.5777341816564  0.6071849186265  0.7643683062459 1.0
C      1  0.8062707615316  0.3846282063562  0.4474289145373 1.0
C      1  0.4510838374898  0.3892830295526  0.2129338043519 1.0
C      1  0.2141750280538  0.3741302606643  0.5577551097429 1.0
C      1  0.5708420544139  0.3849447913019  0.7736013218915 1.0
C      1  0.5800943333880  0.5532775753232  0.6102948599937 1.0
C      1  0.6043533866441  0.5886448747165  0.4363937291425 1.0
C      1  0.4156082083519  0.5868022852820  0.4043482472860 1.0
C      1  0.4022796629330  0.5771984527875  0.5900579461865 1.0
C      1  0.5746378444464  0.4364463062891  0.6895870126593 1.0
C      1  0.6073381175490  0.4186982838898  0.4371556902895 1.0
C      1  0.4164812473046  0.4138262200813  0.4041805728221 1.0
C      1  0.3907050856138  0.4218380689630  0.5849599653664 1.0
C      1  0.5475410646738  0.3944024710954  0.2350276079581 1.0
C      1  0.2346230311891  0.3739195533480  0.4658480074327 1.0
C      1  0.4656034263978  0.3829328665014  0.7758956147420 1.0
C      1  0.7889334401488  0.3855164398974  0.5445547120110 1.0
C      1  0.5478987138909  0.6059750555046  0.2329515212709 1.0
C      1  0.2367955040013  0.6211451539548  0.4693015659452 1.0
C      1  0.4772331510326  0.5923493625735  0.7491546253613 1.0
C      1  0.7839174640275  0.6122376839750  0.5337663708094 1.0
C      1  0.5281912947801  0.2265588215242  0.5035655411086 1.0
C      1  0.4420470868169  0.2498154111639  0.4694989719060 1.0
C      1  0.3963715822263  0.2171800051399  0.5493426412413 1.0
C      1  0.4904044960573  0.2145678078821  0.5901019004751 1.0
C      1  0.5270409460391  0.7842135326604  0.4992337779366 1.0
C      1  0.4410544996868  0.7533867464349  0.4689504393432 1.0
C      1  0.3947152301180  0.7830391090313  0.5497745535023 1.0
C      1  0.4877813195690  0.7917329609755  0.5890956901809 1.0
C      1  0.7063639298872  0.5902460238713  0.2898912433881 1.0
C      1  0.2808305441485  0.5990291221484  0.2975073297843 1.0
C      1  0.2972047305498  0.5925885683176  0.7347544073738 1.0
C      1  0.7487176519636  0.6041245873201  0.6935629568625 1.0
C      1  0.7052008830012  0.4109876087924  0.2928024038435 1.0
C      1  0.2805212952746  0.4015330545560  0.2961316549054 1.0
C      1  0.3039155696773  0.4031930004875  0.7299475582902 1.0
C      1  0.7432073231080  0.3992302635352  0.6938849150054 1.0
C      1  0.5694436563831  0.7847600325233  0.2604046964872 1.0
C      1  0.2506594419140  0.8292858654937  0.3739507015380 1.0
C      1  0.4388679293175  0.7953705298789  0.7506270754282 1.0
C      1  0.7061369828859  0.7417354333526  0.4701830340528 1.0
C      1  0.5685288879858  0.2164236897867  0.2661849479184 1.0
C      1  0.2526829038228  0.1705786285205  0.3780964603260 1.0
C      1  0.4386933820118  0.2015285842138  0.7432348754141 1.0
C      1  0.7018511413207  0.2659351481992  0.4774584601335 1.0
C      1  0.6007642091560  0.2772906163851  0.4678417607707 1.0
C      1  0.4837139050975  0.2480198931885  0.2817949855674 1.0
C      1  0.3084292685889  0.2480724129949  0.5436242007049 1.0
C      1  0.5219551667462  0.2436474102631  0.6857285797544 1.0
C      1  0.6025459391363  0.7373177445261  0.4579118975292 1.0
C      1  0.4849352017717  0.7541722442422  0.2789968804356 1.0
C      1  0.3081277332296  0.7475412476223  0.5471996389099 1.0
C      1  0.5165518847915  0.7591979329770  0.6864134933450 1.0
C      1  0.6092008971613  0.2923091124856  0.7146438706442 1.0
C      1  0.7534003723124  0.3076904698803  0.4097702197730 1.0
C      1  0.4103085545170  0.3058023725386  0.2529034894484 1.0
C      1  0.2581195172757  0.2980023370972  0.6074717103100 1.0
C      1  0.6019317052335  0.6889576191293  0.6851211295691 1.0
C      1  0.7562001737789  0.6967621865347  0.4027299806631 1.0
C      1  0.4105035997679  0.6952428605238  0.2533615345480 1.0
C      1  0.2607589508431  0.6964484600201  0.6124339655042 1.0
C      1  0.2976036498462  0.2965561371331  0.4518202527668 1.0
C      1  0.4505669382882  0.3164241159978  0.7026168233468 1.0
C      1  0.6192361189864  0.3615631861002  0.5289747782567 1.0
C      1  0.5586438885258  0.3198944282057  0.2992214770662 1.0
C      1  0.2974438423107  0.6995619557263  0.4558689819834 1.0
C      1  0.4535236733136  0.6782443945612  0.6953041204872 1.0
C      1  0.6214651565573  0.6557386378598  0.5161266755063 1.0
C      1  0.5613812775588  0.6822581317154  0.2940343995844 1.0
C      1  0.8367973734680  0.4508409441196  0.3872986757336 1.0
C      1  0.3897459167619  0.4509866090218  0.1812785171230 1.0
C      1  0.2105351313081  0.4527344591699  0.6178901444889 1.0
C      1  0.6408860312311  0.4474170552494  0.8255352433291 1.0
C      1  0.8383168690939  0.5487173202265  0.3841287393779 1.0
C      1  0.3894768809990  0.5497788540564  0.1822785273136 1.0
C      1  0.1871997926181  0.5492589837461  0.6215146706328 1.0
C      1  0.6432085279465  0.5501502799400  0.8087655257051 1.0
C      1  0.4536348207324  0.3649414335709  0.6158892017341 1.0
C      1  0.5456069690550  0.3993785507905  0.5945413381926 1.0
C      1  0.5646397709193  0.3390476700872  0.3957420624367 1.0
C      1  0.3975509645808  0.3269575879923  0.4408254425955 1.0
C      1  0.4604075669655  0.6448459232660  0.6051487592285 1.0
C      1  0.5613678127629  0.6449489881120  0.5943615008383 1.0
C      1  0.5645503626979  0.6695689329545  0.3907499328868 1.0
C      1  0.3992755980086  0.6743169238748  0.4406730695970 1.0
C      1  0.6729852676323  0.4581881135503  0.3772100349044 1.0
C      1  0.3408125363514  0.4518686323686  0.3616078913881 1.0
C      1  0.3175546591623  0.4528288143670  0.6410178613466 1.0
C      1  0.6658458157873  0.4516170521730  0.6646337693955 1.0
C      1  0.6722013332225  0.5480923530313  0.3765896533134 1.0
C      1  0.3416194399521  0.5484913897212  0.3613828420310 1.0
C      1  0.3504529714774  0.5427962112377  0.6640152592802 1.0
C      1  0.6755997126178  0.5215872122596  0.6113869938622 1.0
C      1  0.7164452551035  0.6809107556251  0.5561113285440 1.0
C      1  0.6467172901808  0.7417028046631  0.2816196676985 1.0
C      1  0.2869196017344  0.7507394921231  0.3604290701415 1.0
C      1  0.3749878390845  0.7352492283679  0.7257900805770 1.0
C      1  0.7122700752368  0.3198104271507  0.5634636015476 1.0
C      1  0.6444906421952  0.2590044998718  0.2907499260265 1.0
C      1  0.2877163799383  0.2474219177149  0.3560258340412 1.0
C      1  0.3699962636935  0.2542023108149  0.7192769483092 1.0
C      1  0.3236732823523  0.6916495516577  0.2921921364716 1.0
C      1  0.2952768754514  0.6885961298382  0.7021964503400 1.0
C      1  0.7018388834638  0.6812072342812  0.6589015488202 1.0
C      1  0.7191678579088  0.6908007790152  0.3123976328521 1.0
C      1  0.3229934930008  0.3087364296108  0.2897517190412 1.0
C      1  0.2936023410858  0.3059699144669  0.6969843550855 1.0
C      1  0.6920639116052  0.3115593148982  0.6680856338030 1.0
C      1  0.7163129913173  0.3112961241173  0.3195898910637 1.0
C      1  0.2128941943955  0.4511178370867  0.7221830231947 1.0
C      1  0.7239441762956  0.4533729770949  0.7744788038596 1.0
C      1  0.7971523672180  0.4517094646023  0.2925512044021 1.0
C      1  0.2974866405957  0.4530755589039  0.2151863047488 1.0
C      1  0.2107317699925  0.5448274936080  0.7192800919511 1.0
C      1  0.7330216767545  0.5546196446270  0.7760168353364 1.0
C      1  0.7962443561112  0.5448723559120  0.2938064496696 1.0
C      1  0.2968802312703  0.5482916272693  0.2151806698008 1.0
C      1  0.5444432888134  0.5337582953425  0.6988679932853 1.0
C      1  0.5542436045521  0.5014067312524  0.4598543422889 1.0
C      1  0.4569128307670  0.5008375830709  0.4401592064665 1.0
C      1  0.4332511087633  0.4995962506116  0.5412067385097 1.0
C      1  0.5320327872495  0.4901306552453  0.5542522166410 1.0
END
