TITL C-163590-8656-36 -2.103 3375.00 -364.82626645 0 0 44 (C1) n - 1
REM
REM Run started: at 2020.11.27 15:17:24 in /rds/project/t2_vol4/rds-t2-cs072/BORA/CARBON/AIRSS/Generating-Clusters/Str-Search/Higher-Symm/C10-100
REM VASP from code version vasp.5.4.4.18Apr17-6-g9f103f2a35 (build Oct 11 2019 16:45:47) gamma-only
REM
REM
REM
REM
REM ./C.cell (f39ce9773e2efe3fa5bbdf770a4156b8)
REM AIRSS Version 0.9.1 bugfix July 2018 build 013d7b7c2542+ Fri, 06 Jul 2018 19:26:36 +0100
REM compiler GCC version 4.8.5 20150623 (Red Hat 4.8.5-39)
REM options -cpp -mtune=generic -march=x86-64 -g -O0
REM seed 478379452 1685829182 -1564727893 1207717332 -1517063159 118944912 219950572 -99149910 95697118 51503231 -996555565 544518962
REM
REM C.POTCAR (d86ddea03c3ceb6dc662c8ad6801f873)
REM 
CELL 1.54180   15.00000   15.00000   15.00000   90.00000   90.00000   90.00000
LATT -1
SFAC C  
C      1  0.2814823168419  0.4190654956857  0.5349393450495 1.0
C      1  0.2850770211037  0.4212865509497  0.4408362435743 1.0
C      1  0.2841226932609  0.5098004360557  0.4015264806122 1.0
C      1  0.2854646771536  0.5887872332134  0.4533777261084 1.0
C      1  0.2832784108117  0.5814752712288  0.5483406124440 1.0
C      1  0.2843305623284  0.4966329878139  0.5900751704660 1.0
C      1  0.7164378390067  0.4111630195341  0.5358060206911 1.0
C      1  0.7123731048197  0.4190744706125  0.4409559512838 1.0
C      1  0.7165222622417  0.5073719193701  0.4011334851147 1.0
C      1  0.7158536463102  0.5887741481125  0.4515278210889 1.0
C      1  0.7186546297248  0.5843626559190  0.5458271266870 1.0
C      1  0.7066649191184  0.4953281021200  0.5857520006721 1.0
C      1  0.4113414693014  0.5908313036216  0.3561143020714 1.0
C      1  0.4104852691906  0.6695174336479  0.5112618862238 1.0
C      1  0.4100719581740  0.5868419839163  0.6459937106663 1.0
C      1  0.4029414159104  0.3874345044999  0.6498295174291 1.0
C      1  0.4093837495548  0.3299198325999  0.4833038054026 1.0
C      1  0.4090820933262  0.4328525292813  0.3440362493485 1.0
C      1  0.5909372977504  0.5892839626574  0.3571958861220 1.0
C      1  0.5919466748775  0.6716447652171  0.5111511317296 1.0
C      1  0.5904786012976  0.5786547633865  0.6365839898796 1.0
C      1  0.5884185185213  0.4106762199982  0.6241075374713 1.0
C      1  0.5896934410944  0.3304650156936  0.4879781775930 1.0
C      1  0.5901046696555  0.4328250428299  0.3460142552351 1.0
C      1  0.6392097458155  0.4915325289967  0.6645176859616 1.0
C      1  0.6448516003932  0.3557002352065  0.5642826408948 1.0
C      1  0.6314108389756  0.3730025807815  0.4098986962854 1.0
C      1  0.6460515364905  0.5117569178137  0.3378642405514 1.0
C      1  0.6319952530721  0.6389196643506  0.4284060811689 1.0
C      1  0.6490217860010  0.6384657321168  0.5823381065229 1.0
C      1  0.3730165340624  0.4923937151440  0.6413884520109 1.0
C      1  0.3589289983250  0.3665540355792  0.5611213010065 1.0
C      1  0.3659029441750  0.3725831400505  0.4084166440218 1.0
C      1  0.3561691083030  0.5128447057088  0.3395237866699 1.0
C      1  0.3705289389868  0.6382687663879  0.4305807280098 1.0
C      1  0.3552402964541  0.6341219863543  0.5839887491401 1.0
C      1  0.5003375712879  0.5614060158181  0.3413068261771 1.0
C      1  0.5016633485787  0.6680451453052  0.5446207737159 1.0
C      1  0.4994580130196  0.3276709409037  0.5174431444607 1.0
C      1  0.4995377600426  0.4627072215084  0.3339792412138 1.0
C      1  0.4995690408728  0.6154835932128  0.6271807334672 1.0
C      1  0.4951362893981  0.3809225538490  0.6069582963922 1.0
C      1  0.4268346236830  0.4475148352975  0.5678940765549 1.0
C      1  0.6001392306870  0.4988192376496  0.5688155628099 1.0
END
