TITL C-160259-9374-33 -3.26 3375.00 -514.02238529 0 0 63 (C1) n - 1
REM
REM Run started: at 2020.11.27 11:37:46 in /rds/project/t2_vol4/rds-t2-cs072/BORA/CARBON/AIRSS/Generating-Clusters/Str-Search/Higher-Symm/C10-100
REM VASP from code version vasp.5.4.4.18Apr17-6-g9f103f2a35 (build Oct 11 2019 16:45:47) gamma-only
REM
REM
REM
REM
REM ./C.cell (f39ce9773e2efe3fa5bbdf770a4156b8)
REM AIRSS Version 0.9.1 bugfix July 2018 build 013d7b7c2542+ Fri, 06 Jul 2018 19:26:36 +0100
REM compiler GCC version 4.8.5 20150623 (Red Hat 4.8.5-39)
REM options -cpp -mtune=generic -march=x86-64 -g -O0
REM seed -2008720895 -622398188 723320784 -530003947 1262669709 -1082443232 -805229035 587717043 795064826 1520617008 885025294 752505519
REM
REM C.POTCAR (d86ddea03c3ceb6dc662c8ad6801f873)
REM 
CELL 1.54180   15.00000   15.00000   15.00000   90.00000   90.00000   90.00000
LATT -1
SFAC C  
C      1  0.2839724199907  0.6894327747800  0.3850736652107 1.0
C      1  0.3345001120336  0.3547338010304  0.4331947271149 1.0
C      1  0.5279313537964  0.2089233310410  0.3532893124544 1.0
C      1  0.7709949958127  0.4575381534951  0.3834058950608 1.0
C      1  0.5940394382255  0.7176139044434  0.4275408283733 1.0
C      1  0.6828750661242  0.6602486563177  0.5988812471616 1.0
C      1  0.7241234989326  0.3986479436993  0.6147822643775 1.0
C      1  0.4762481409617  0.2425226540185  0.5787860144142 1.0
C      1  0.2610508048669  0.5037774137223  0.5660554996553 1.0
C      1  0.4211541872673  0.7097358594704  0.5548822541970 1.0
C      1  0.6113831145367  0.6106228300778  0.5525557853101 1.0
C      1  0.4559453148159  0.6347098390013  0.4965299553033 1.0
C      1  0.3012418575242  0.5675116118271  0.4998962088365 1.0
C      1  0.4848353649641  0.3296631906793  0.5321609290177 1.0
C      1  0.6379957931198  0.4279433621309  0.5777233619852 1.0
C      1  0.2619197731002  0.6215496694363  0.4409786339366 1.0
C      1  0.5536313824152  0.6514624485768  0.4871316547614 1.0
C      1  0.6022444643260  0.5174210493294  0.5514417470079 1.0
C      1  0.5593888415520  0.3857823973389  0.5418079130355 1.0
C      1  0.4187517440724  0.3786138399268  0.4808826655398 1.0
C      1  0.4687593728473  0.2594706780037  0.6722325422553 1.0
C      1  0.7186693150237  0.3776257320202  0.7073059236208 1.0
C      1  0.6926822283014  0.6315391626277  0.6881934619633 1.0
C      1  0.4372876657824  0.6902082217745  0.6452420378005 1.0
C      1  0.2965063486648  0.5010383665214  0.6503785833015 1.0
C      1  0.5345909590324  0.2714507386094  0.2922793659778 1.0
C      1  0.3374617501621  0.3754117364955  0.3427029223731 1.0
C      1  0.3092991162656  0.6620510101157  0.2980961859044 1.0
C      1  0.5664289677778  0.7138119686746  0.3371265705093 1.0
C      1  0.7234387118827  0.4824617746433  0.3143096350329 1.0
C      1  0.7818503494232  0.4065269792809  0.5461921898465 1.0
C      1  0.7065882005562  0.7290213125032  0.5420670210331 1.0
C      1  0.3666491619526  0.7622761281716  0.5025061921008 1.0
C      1  0.2170115683154  0.4261191996027  0.5341230120839 1.0
C      1  0.4907618208428  0.1797728075128  0.5154432505661 1.0
C      1  0.2601376727077  0.3745278677244  0.4834726187881 1.0
C      1  0.3213753799578  0.7662146704532  0.4312964533374 1.0
C      1  0.6693171980022  0.7523547304581  0.4696869709960 1.0
C      1  0.7856108235909  0.4327032844158  0.4633325321248 1.0
C      1  0.5093189656185  0.1777448772392  0.4304051230594 1.0
C      1  0.3632344511403  0.4160533757129  0.2751215116826 1.0
C      1  0.5367972603504  0.3450106744473  0.2511416732253 1.0
C      1  0.6616197562006  0.5031134349845  0.2613655962742 1.0
C      1  0.5444281978404  0.6672217375083  0.2728655181419 1.0
C      1  0.3584082814104  0.6175294236150  0.2492779891368 1.0
C      1  0.6571267076503  0.3917700062239  0.7613749838915 1.0
C      1  0.4749698883993  0.3202822390845  0.7285812881067 1.0
C      1  0.3554665566894  0.4845596122395  0.7064348256316 1.0
C      1  0.4672241036250  0.6394596332657  0.7040591478361 1.0
C      1  0.6517429243396  0.5849094947337  0.7432861926363 1.0
C      1  0.5172917614144  0.4311746834889  0.2279080806138 1.0
C      1  0.5760606415430  0.5094208705262  0.2302033108827 1.0
C      1  0.5196592415096  0.5886503342155  0.2279026040731 1.0
C      1  0.4279970701832  0.5614979362432  0.2220808488019 1.0
C      1  0.4257484549506  0.4649162403640  0.2282072213256 1.0
C      1  0.4913894807302  0.4041733604161  0.7685787391284 1.0
C      1  0.4355121566571  0.4821172273642  0.7506131442226 1.0
C      1  0.4912405915697  0.5618421790498  0.7514734963258 1.0
C      1  0.5792947211663  0.5344575948345  0.7753138808803 1.0
C      1  0.5795001848713  0.4373205491311  0.7862222639472 1.0
C      1  0.5312650339104  0.4720086531802  0.5090768453623 1.0
C      1  0.4013324356755  0.5603858551538  0.4859108372922 1.0
C      1  0.4456543530275  0.4738901070263  0.4776156451525 1.0
END
