TITL C-161415-4081-5 -5.737 3375.00 -999.09090529 0 0 123 (C1) n - 1
REM
REM Run started: at 2020.12.21 00:08:36 in /rds/project/t2_vol4/rds-t2-cs072/BORA/CARBON/AIRSS/Generating-Clusters/Str-Search/Higher-Symm/C100-200
REM VASP from code version vasp.5.4.4.18Apr17-6-g9f103f2a35 (build Oct 11 2019 16:45:47) gamma-only
REM
REM
REM
REM
REM ./C.cell (533062f00bc710175b3da973d35f2034)
REM AIRSS Version 0.9.1 bugfix July 2018 build 013d7b7c2542+ Fri, 06 Jul 2018 19:26:36 +0100
REM compiler GCC version 4.8.5 20150623 (Red Hat 4.8.5-39)
REM options -cpp -mtune=generic -march=x86-64 -g -O0
REM seed 954451288 1035961711 1690286401 893841109 -74857285 -1971964619 -1167655917 -1808783697 -1330180143 -1638128339 1519285460 268609625
REM
REM C.POTCAR (d86ddea03c3ceb6dc662c8ad6801f873)
REM 
CELL 1.54180   15.00000   15.00000   15.00000   90.00000   90.00000   90.00000
LATT -1
SFAC C  
C      1  0.6123825571126  0.3428734308972  0.7363805806780 1.0
C      1  0.6840185056089  0.5602010732290  0.7374412657782 1.0
C      1  0.5042029167548  0.6982815920852  0.7345338349456 1.0
C      1  0.3157779669849  0.5621487229521  0.7391792325205 1.0
C      1  0.3888287037293  0.3428770896738  0.7467240236098 1.0
C      1  0.4113753973850  0.6818480561490  0.2434372583506 1.0
C      1  0.2980223842126  0.4936272844812  0.2497433847866 1.0
C      1  0.4610527544172  0.3052367978540  0.2235851876583 1.0
C      1  0.6749373252046  0.4092396776512  0.2382241499767 1.0
C      1  0.6543014364004  0.6166594395538  0.2325723367202 1.0
C      1  0.7109407771216  0.4671340698761  0.7496438539796 1.0
C      1  0.5996929140064  0.6934348364390  0.7465045971500 1.0
C      1  0.3523212272456  0.6519517706685  0.7427698515684 1.0
C      1  0.3125459829234  0.4027857869318  0.7530369160447 1.0
C      1  0.5339996331123  0.2880456222246  0.7489930346050 1.0
C      1  0.7526043629555  0.5105264570984  0.6114368274996 1.0
C      1  0.5759990919538  0.7507397482074  0.6053150279047 1.0
C      1  0.2680851590470  0.6354077629972  0.6172240069479 1.0
C      1  0.3073259057561  0.3132170903473  0.6335811342093 1.0
C      1  0.5834905243191  0.2632445342476  0.6058067068459 1.0
C      1  0.6856860959839  0.5635731727968  0.4091332212677 1.0
C      1  0.5095186818022  0.7090959890281  0.3965689104461 1.0
C      1  0.3041767849721  0.5747652022276  0.4240522473988 1.0
C      1  0.3808161151395  0.3159497288967  0.3832048741582 1.0
C      1  0.6114711018212  0.3462770502528  0.4006221162372 1.0
C      1  0.5429463300398  0.8440129183686  0.4705947187247 1.0
C      1  0.1728953209214  0.6411069726959  0.4854633044871 1.0
C      1  0.2576264493909  0.2849951719431  0.4900558761035 1.0
C      1  0.6715023257628  0.2172383390735  0.4753965187782 1.0
C      1  0.8329404190025  0.5769460123353  0.4846220928297 1.0
C      1  0.2833917240752  0.4866893080720  0.4732714024228 1.0
C      1  0.4326801337264  0.3481639582652  0.4698830380143 1.0
C      1  0.6378050770370  0.4005144526051  0.4823472042863 1.0
C      1  0.6338839797350  0.6044303718161  0.4827628705562 1.0
C      1  0.4561500654863  0.6752538885785  0.4769532084316 1.0
C      1  0.4199764039689  0.4944556654433  0.8420651284400 1.0
C      1  0.4845422561988  0.4212971072088  0.8447486564683 1.0
C      1  0.5730683060878  0.4599825345656  0.8431482835853 1.0
C      1  0.5638239252976  0.5575363532863  0.8418871533418 1.0
C      1  0.4691064981183  0.5786468272901  0.8396105252045 1.0
C      1  0.4966336536372  0.6884754185572  0.6328508785864 1.0
C      1  0.3116077591570  0.5478362660699  0.6381774404950 1.0
C      1  0.4006750278021  0.3448112402190  0.6430214397389 1.0
C      1  0.6050140185990  0.3597433488076  0.6351737023991 1.0
C      1  0.6648400266384  0.5602127911699  0.6373869177116 1.0
C      1  0.6262278175063  0.6111887444720  0.7916700521433 1.0
C      1  0.4384376731701  0.6538775717771  0.7868618917561 1.0
C      1  0.3378356045187  0.4867294298281  0.7931126603959 1.0
C      1  0.4662078653991  0.3380975727633  0.7988374369809 1.0
C      1  0.6410148417207  0.4150961534298  0.7919538664623 1.0
C      1  0.5174780381580  0.8073117521053  0.5491970103319 1.0
C      1  0.2007243178118  0.5998133037739  0.5635881993310 1.0
C      1  0.3183326325101  0.2621456193927  0.5585761037807 1.0
C      1  0.6686555156952  0.2599034895541  0.5540169325734 1.0
C      1  0.7809067378105  0.5872272068144  0.5583810023700 1.0
C      1  0.5704638335686  0.5233621428766  0.3052597872159 1.0
C      1  0.5000413964336  0.5864041922795  0.2892091113115 1.0
C      1  0.4158037854287  0.5353087284479  0.3109899934892 1.0
C      1  0.4414025511187  0.4442700385613  0.2794107269477 1.0
C      1  0.5375015298395  0.4403156237689  0.2917044387700 1.0
C      1  0.5991378744685  0.3620867361385  0.2970549076183 1.0
C      1  0.6656010396441  0.5479811541503  0.3129416477279 1.0
C      1  0.5066606272917  0.6840081756750  0.2988990590998 1.0
C      1  0.3221360294008  0.5690609763682  0.3226181952881 1.0
C      1  0.3898449253712  0.3581334531726  0.2874816493437 1.0
C      1  0.5316745080895  0.3814821639738  0.4537591223871 1.0
C      1  0.6219291003801  0.5012096601464  0.4648501247364 1.0
C      1  0.5508754357783  0.6513051493729  0.4618753288719 1.0
C      1  0.3982409000852  0.5962366941229  0.4615333954586 1.0
C      1  0.3821039899250  0.4406812776219  0.4760425928777 1.0
C      1  0.4916044176117  0.5852583011193  0.6285405734875 1.0
C      1  0.4120880716475  0.5284208094278  0.6306331776637 1.0
C      1  0.4434008505374  0.4358828840831  0.6316251484632 1.0
C      1  0.5392894869872  0.4367365634209  0.6311109430314 1.0
C      1  0.5688639087496  0.5270260710294  0.6301850489615 1.0
C      1  0.2052481868496  0.3637084528014  0.5119179007049 1.0
C      1  0.4979553765995  0.1620664741556  0.4971543795839 1.0
C      1  0.8255510447277  0.3930579406681  0.5107680149546 1.0
C      1  0.7115915590236  0.7693125690072  0.5010053473804 1.0
C      1  0.3024010748968  0.7885601339106  0.5121574819836 1.0
C      1  0.7670217713715  0.4058932937078  0.5884191393377 1.0
C      1  0.6779856270856  0.7265239442615  0.5838314178855 1.0
C      1  0.3482983410157  0.7572632191524  0.5881408460227 1.0
C      1  0.2114909744032  0.4147112928245  0.5962445342958 1.0
C      1  0.4911012926699  0.2199057834650  0.5764657070177 1.0
C      1  0.6275313807976  0.2480092895002  0.4044197156809 1.0
C      1  0.7833645537302  0.5457374439635  0.4162097032601 1.0
C      1  0.5628114238078  0.7946191946097  0.3990818757086 1.0
C      1  0.2340054570019  0.6476162017485  0.4218885143544 1.0
C      1  0.2900371001213  0.2964315953733  0.4003722355724 1.0
C      1  0.7739252249329  0.4452697826662  0.6807632068643 1.0
C      1  0.6423237067040  0.7477310232798  0.6767437516642 1.0
C      1  0.3172476210660  0.7026761055177  0.6635461359996 1.0
C      1  0.2540770124263  0.3792983195180  0.6739671182562 1.0
C      1  0.5285687860073  0.2235010973991  0.6748351854055 1.0
C      1  0.3905448594038  0.5055474185755  0.2087414595793 1.0
C      1  0.5031202396947  0.3530938011085  0.1545211622682 1.0
C      1  0.6343712646627  0.4598091610708  0.1623646436470 1.0
C      1  0.6424066849906  0.5598857399167  0.1605405986573 1.0
C      1  0.4357793986656  0.5918374352205  0.2109034029654 1.0
C      1  0.4184470395559  0.2858840133457  0.5557809168886 1.0
C      1  0.6807438899005  0.3608204887639  0.5657619772126 1.0
C      1  0.6892414462174  0.6294058221696  0.5666732642446 1.0
C      1  0.4418512110049  0.7393938709474  0.5634458389154 1.0
C      1  0.2432498753725  0.5053402912388  0.5716127266425 1.0
C      1  0.7268006106226  0.4663258062236  0.2960646935797 1.0
C      1  0.6120964892322  0.7013483014009  0.2758741675495 1.0
C      1  0.3315111498422  0.6709203888566  0.2988415785232 1.0
C      1  0.2946056565337  0.4062100133340  0.2829803844842 1.0
C      1  0.5370960116179  0.2768193050477  0.2803837499171 1.0
C      1  0.6412014759517  0.7633620603177  0.3441288043132 1.0
C      1  0.2801804625655  0.7159544181225  0.3647876106026 1.0
C      1  0.2461827404223  0.3743581108650  0.3579581677014 1.0
C      1  0.5542100747926  0.2137428812182  0.3472040345280 1.0
C      1  0.7927203003978  0.4634473351073  0.3618878468723 1.0
C      1  0.8237448063972  0.3994230214010  0.4272526914161 1.0
C      1  0.7059904896683  0.7663481333993  0.4172190311116 1.0
C      1  0.2975846259704  0.7848389740378  0.4280569647489 1.0
C      1  0.2153139705932  0.4215210290468  0.4349873203460 1.0
C      1  0.5021871910049  0.1647794521272  0.4134069854214 1.0
C      1  0.5632364780016  0.4068034249926  0.1276673562594 1.0
C      1  0.4414370460978  0.5117441898867  0.4602322334817 1.0
C      1  0.5290742822713  0.4789200819222  0.4437503054203 1.0
END
