TITL C-162817-141-8 -6.502 3375.00 -1126.96813117 0 0 144 (C4) n - 1
REM
REM Run started: at 2020.12.22 06:40:27 in /rds/project/t2_vol4/rds-t2-cs072/BORA/CARBON/AIRSS/Generating-Clusters/Str-Search/Higher-Symm/C100-200
REM VASP from code version vasp.5.4.4.18Apr17-6-g9f103f2a35 (build Oct 11 2019 16:45:47) gamma-only
REM
REM
REM
REM
REM ./C.cell (533062f00bc710175b3da973d35f2034)
REM AIRSS Version 0.9.1 bugfix July 2018 build 013d7b7c2542+ Fri, 06 Jul 2018 19:26:36 +0100
REM compiler GCC version 4.8.5 20150623 (Red Hat 4.8.5-39)
REM options -cpp -mtune=generic -march=x86-64 -g -O0
REM seed 1043799361 1328953576 -881136042 2078519514 -1675285146 748422281 2108035544 620619244 -690467330 1744603526 1273755491 936566507
REM
REM C.POTCAR (d86ddea03c3ceb6dc662c8ad6801f873)
REM 
CELL 1.54180   15.00000   15.00000   15.00000   90.00000   90.00000   90.00000
LATT -1
SFAC C  
C      1  0.9075112006405  0.4568803675098  0.5238882645363 1.0
C      1  0.4568803611035  0.0924887251263  0.5238882296572 1.0
C      1  0.0924887402519  0.5431196217426  0.5238882566655 1.0
C      1  0.5431196310496  0.9075111973483  0.5238882675875 1.0
C      1  0.0924887320167  0.4568803695423  0.5238882421501 1.0
C      1  0.5431196300425  0.0924887329391  0.5238882434823 1.0
C      1  0.9075111939419  0.5431196230268  0.5238882770089 1.0
C      1  0.4568803599663  0.9075112041701  0.5238882561763 1.0
C      1  0.6203540022511  0.2446263583371  0.3527766237601 1.0
C      1  0.2446263738510  0.3796459756067  0.3527766245332 1.0
C      1  0.3796459599213  0.7553736305372  0.3527765136520 1.0
C      1  0.7553736473346  0.6203540172752  0.3527765136170 1.0
C      1  0.3796459755593  0.2446263749422  0.3527766240044 1.0
C      1  0.7553736315115  0.3796459598847  0.3527765137629 1.0
C      1  0.6203540174151  0.7553736451506  0.3527765139631 1.0
C      1  0.2446263578895  0.6203540014507  0.3527766239801 1.0
C      1  0.3057157126009  0.3781870465558  0.4358543486235 1.0
C      1  0.3781870420514  0.6942842904444  0.4358542588270 1.0
C      1  0.6942842918253  0.6218129576170  0.4358542264328 1.0
C      1  0.6218129560457  0.3057157118619  0.4358543161436 1.0
C      1  0.6942842908082  0.3781870431011  0.4358542583140 1.0
C      1  0.6218129587400  0.6942842909602  0.4358542271588 1.0
C      1  0.3057157116529  0.6218129554226  0.4358543161191 1.0
C      1  0.3781870450982  0.3057157138085  0.4358543486019 1.0
C      1  0.2212886493611  0.2859846864085  0.4037822227099 1.0
C      1  0.2859846763980  0.7787113443993  0.4037821232008 1.0
C      1  0.7787113614712  0.7140153164786  0.4037820866338 1.0
C      1  0.7140153069076  0.2212886314024  0.4037821857505 1.0
C      1  0.7787113438206  0.2859846763639  0.4037821239624 1.0
C      1  0.7140153173686  0.7787113613579  0.4037820864412 1.0
C      1  0.2212886320182  0.7140153071572  0.4037821851342 1.0
C      1  0.2859846875703  0.2212886498111  0.4037822227617 1.0
C      1  0.5879788462811  0.8478066426973  0.4730645085052 1.0
C      1  0.8478066615218  0.4120211317510  0.4730644617022 1.0
C      1  0.4120211402350  0.1521933115269  0.4730645148204 1.0
C      1  0.1521933483348  0.5879788526288  0.4730645512022 1.0
C      1  0.4120211383420  0.8478066689525  0.4730644691887 1.0
C      1  0.1521933209381  0.4120211336382  0.4730645096120 1.0
C      1  0.5879788450004  0.1521933382066  0.4730645555715 1.0
C      1  0.8478066345445  0.5879788528049  0.4730645025461 1.0
C      1  0.5499928886005  0.3807561001349  0.7699413359770 1.0
C      1  0.3807560982871  0.4500071089521  0.7699412713717 1.0
C      1  0.4500071138991  0.6192439005826  0.7699413751656 1.0
C      1  0.6192438951830  0.5499928835349  0.7699414308482 1.0
C      1  0.4500071087523  0.3807560969508  0.7699412699432 1.0
C      1  0.6192438988608  0.4500071136083  0.7699413711639 1.0
C      1  0.5499928838277  0.6192438968178  0.7699414343506 1.0
C      1  0.3807561028732  0.5499928876730  0.7699413380372 1.0
C      1  0.7682416486009  0.3648191577893  0.6945020591543 1.0
C      1  0.3648191392444  0.2317583616217  0.6945020192953 1.0
C      1  0.2317584058324  0.6351808530899  0.6945020289722 1.0
C      1  0.6351808658817  0.7682416090789  0.6945020874820 1.0
C      1  0.2317583660902  0.3648191665786  0.6945020063041 1.0
C      1  0.6351808651847  0.2317584010731  0.6945020392162 1.0
C      1  0.7682416136023  0.6351808739105  0.6945020840982 1.0
C      1  0.3648191486567  0.7682416449984  0.6945020659898 1.0
C      1  0.6870695498246  0.6113107837974  0.2763570318503 1.0
C      1  0.6113107346635  0.3129304617189  0.2763571537545 1.0
C      1  0.3129304862080  0.3886892428490  0.2763571623976 1.0
C      1  0.3886891923965  0.6870695239537  0.2763570422002 1.0
C      1  0.3129304616816  0.6113107334640  0.2763571532399 1.0
C      1  0.3886892421359  0.3129304864581  0.2763571627896 1.0
C      1  0.6870695249082  0.3886891924746  0.2763570412008 1.0
C      1  0.6113107846973  0.6870695489450  0.2763570320959 1.0
C      1  0.4538690609793  0.2098178488733  0.7365876079810 1.0
C      1  0.2098178652526  0.5461309513330  0.7365875781336 1.0
C      1  0.5461309757873  0.7901821258416  0.7365876521123 1.0
C      1  0.7901821531722  0.4538690538401  0.7365876847320 1.0
C      1  0.5461309446265  0.2098178725691  0.7365875730927 1.0
C      1  0.7901821304288  0.5461309639018  0.7365876504683 1.0
C      1  0.4538690374935  0.7901821495444  0.7365876855140 1.0
C      1  0.2098178418486  0.4538690600240  0.7365876130283 1.0
C      1  0.3751392584146  0.5501910063234  0.4557680067689 1.0
C      1  0.5501910108460  0.6248607561908  0.4557679468321 1.0
C      1  0.6248607495423  0.4498089989896  0.4557679344354 1.0
C      1  0.4498090034989  0.3751392653397  0.4557679963248 1.0
C      1  0.6248607558474  0.5501910107469  0.4557679452491 1.0
C      1  0.4498089984608  0.6248607500394  0.4557679360942 1.0
C      1  0.3751392643138  0.4498090041608  0.4557679968643 1.0
C      1  0.5501910057243  0.3751392584024  0.4557680055451 1.0
C      1  0.3468917978187  0.7772802489963  0.4951340515108 1.0
C      1  0.7772802316575  0.6531082176463  0.4951340289101 1.0
C      1  0.6531082227585  0.2227197548173  0.4951340847912 1.0
C      1  0.2227197379339  0.3468917916105  0.4951341038473 1.0
C      1  0.6531082156614  0.7772802318097  0.4951340313345 1.0
C      1  0.2227197557072  0.6531082263676  0.4951340819860 1.0
C      1  0.3468917933060  0.2227197382417  0.4951341061920 1.0
C      1  0.7772802490924  0.3468917969794  0.4951340490038 1.0
C      1  0.1807446553787  0.4530691924301  0.3878649910339 1.0
C      1  0.4530691879433  0.8192553476722  0.3878649106969 1.0
C      1  0.8192553485017  0.5469307948952  0.3878649279329 1.0
C      1  0.5469307914522  0.1807446599777  0.3878650089730 1.0
C      1  0.8192553510065  0.4530691879086  0.3878649098995 1.0
C      1  0.5469307949883  0.8192553450346  0.3878649282466 1.0
C      1  0.1807446583269  0.5469307909780  0.3878650103817 1.0
C      1  0.4530691921002  0.1807446573467  0.3878649903714 1.0
C      1  0.5475434308171  0.7051057235389  0.5924602485997 1.0
C      1  0.7051057453398  0.4524566115518  0.5924602237987 1.0
C      1  0.4524566233617  0.2948942516071  0.5924601680855 1.0
C      1  0.2948942741696  0.5475434285372  0.5924602001733 1.0
C      1  0.4524566097971  0.7051057440979  0.5924602208364 1.0
C      1  0.2948942492619  0.4524566221946  0.5924601737034 1.0
C      1  0.5475434227903  0.2948942757997  0.5924601942516 1.0
C      1  0.7051057241058  0.5475434334476  0.5924602531209 1.0
C      1  0.3605222784842  0.4412685112794  0.1956271995177 1.0
C      1  0.4412684333697  0.6394776849010  0.1956270375929 1.0
C      1  0.6394777367076  0.5587314966087  0.1956269912787 1.0
C      1  0.5587314202640  0.3605222273546  0.1956271561252 1.0
C      1  0.6394776850014  0.4412684337854  0.1956270365360 1.0
C      1  0.5587314973038  0.6394777355717  0.1956269927093 1.0
C      1  0.3605222281653  0.5587314191028  0.1956271558847 1.0
C      1  0.4412685109967  0.3605222790033  0.1956272004017 1.0
C      1  0.4529219411286  0.3850020914815  0.2978581760349 1.0
C      1  0.3850020980654  0.5470780791962  0.2978581308799 1.0
C      1  0.5470780760693  0.6149979351527  0.2978579274694 1.0
C      1  0.6149979421399  0.4529219450714  0.2978579723139 1.0
C      1  0.5470780799604  0.3850020977071  0.2978581315873 1.0
C      1  0.6149979363049  0.5470780757939  0.2978579274972 1.0
C      1  0.4529219451446  0.6149979414062  0.2978579739227 1.0
C      1  0.3850020912878  0.4529219407065  0.2978581765547 1.0
C      1  0.5872110433716  0.7083170047281  0.7530513095058 1.0
C      1  0.7083170190314  0.4127889686941  0.7530512596062 1.0
C      1  0.4127889575125  0.2916829615015  0.7530512523545 1.0
C      1  0.2916829695916  0.5872110484796  0.7530513129145 1.0
C      1  0.4127889696333  0.7083170123600  0.7530512577603 1.0
C      1  0.2916829604838  0.4127889575083  0.7530512624111 1.0
C      1  0.5872110527326  0.2916829691320  0.7530513075149 1.0
C      1  0.7083170096489  0.5872110407166  0.7530513066057 1.0
C      1  0.6156646468456  0.4514017038359  0.5596561460582 1.0
C      1  0.4514017003702  0.3843353950613  0.5596562322249 1.0
C      1  0.3843354088752  0.5485983244560  0.5596562581368 1.0
C      1  0.5485983231010  0.6156646270291  0.5596561714574 1.0
C      1  0.3843353913231  0.4514016992035  0.5596562345809 1.0
C      1  0.5485983241504  0.3843354113094  0.5596562559508 1.0
C      1  0.6156646321491  0.5485983223475  0.5596561714247 1.0
C      1  0.4514017038096  0.6156646411495  0.5596561464432 1.0
C      1  0.7379731285109  0.6452794366330  0.5958262517364 1.0
C      1  0.6452794007969  0.2620268708734  0.5958262458769 1.0
C      1  0.2620268214755  0.3547206521744  0.5958262486786 1.0
C      1  0.3547206274496  0.7379731666543  0.5958262648198 1.0
C      1  0.2620268725078  0.6452794155749  0.5958262407594 1.0
C      1  0.3547206632086  0.2620268253329  0.5958262565948 1.0
C      1  0.7379731711034  0.3547206228192  0.5958262584371 1.0
C      1  0.6452794288357  0.7379731286940  0.5958262555854 1.0
END
