TITL C-164774-6267-25 -2.874 3375.00 -489.70886730 0 0 60 (C3v) n - 1
REM
REM Run started: at 2020.11.28 00:58:32 in /rds/project/t2_vol4/rds-t2-cs072/BORA/CARBON/AIRSS/Generating-Clusters/Str-Search/Higher-Symm/Only-C60/Try2-TRACK-ENABLED
REM VASP from code version vasp.5.4.4.18Apr17-6-g9f103f2a35 (build Oct 11 2019 16:45:47) gamma-only
REM
REM
REM
REM
REM ./C.cell (5f7b7a0d59291d2373303da1f58b8d66)
REM AIRSS Version 0.9.1 bugfix July 2018 build 013d7b7c2542+ Fri, 06 Jul 2018 19:26:36 +0100
REM compiler GCC version 4.8.5 20150623 (Red Hat 4.8.5-39)
REM options -cpp -mtune=generic -march=x86-64 -g -O0
REM seed 1100467958 -1920142027 -1684107438 1164953859 1462284305 -494116521 1728727522 2128748467 -213846740 -433734199 1349929146 -1097709911
REM
REM C.POTCAR (d86ddea03c3ceb6dc662c8ad6801f873)
REM 
CELL 1.54180   15.00000   15.00000   15.00000   90.00000   90.00000   90.00000
LATT -1
SFAC C  
C      1  0.7177294567569  0.4157911944204  0.4832516891227 1.0
C      1  0.3769006441841  0.4164495328050  0.3196228156896 1.0
C      1  0.4055421155442  0.4151620440501  0.6964635085369 1.0
C      1  0.2822586852238  0.4157417437967  0.4833375118938 1.0
C      1  0.6230610743043  0.4164567108441  0.3195593828765 1.0
C      1  0.5945410674259  0.4151648759128  0.6964374440475 1.0
C      1  0.5452633225323  0.5959093052628  0.5796780976406 1.0
C      1  0.5460513598842  0.5966636733245  0.4217093461645 1.0
C      1  0.4086397825217  0.5961269092536  0.4999852219334 1.0
C      1  0.4547086762819  0.5960145554867  0.5796894016238 1.0
C      1  0.4539641757683  0.5967588211047  0.4216884349415 1.0
C      1  0.5913873729080  0.5962505659722  0.5000172785233 1.0
C      1  0.5806051861218  0.5662025114890  0.3365489391343 1.0
C      1  0.3175787626824  0.5655134865350  0.5123461741284 1.0
C      1  0.6017037635641  0.5651281480256  0.6520821281277 1.0
C      1  0.4193668234696  0.5661523341558  0.3365786911935 1.0
C      1  0.6824327118347  0.5655134885882  0.5123157658942 1.0
C      1  0.3983298752794  0.5650882158575  0.6520942100469 1.0
C      1  0.6683442303492  0.3380360146934  0.4581760884063 1.0
C      1  0.3800745746701  0.3382777844683  0.3743250835306 1.0
C      1  0.4516070464655  0.3373843808911  0.6658141819932 1.0
C      1  0.3317136207724  0.3380479396794  0.4582026009569 1.0
C      1  0.6199040899501  0.3383405083495  0.3743512077020 1.0
C      1  0.5484054777173  0.3374265228767  0.6657665750238 1.0
C      1  0.6391347312660  0.6454387405501  0.2593109951142 1.0
C      1  0.2209055876445  0.6449880394574  0.5003706754969 1.0
C      1  0.6397256304449  0.6442062054393  0.7412106243525 1.0
C      1  0.3613306715831  0.6445526500145  0.2602791576593 1.0
C      1  0.7780420498422  0.6441398512279  0.5004011019438 1.0
C      1  0.3607857988972  0.6432837541194  0.7402691285316 1.0
C      1  0.7359598632882  0.5715838653451  0.4258790521234 1.0
C      1  0.3177932167844  0.5719201192246  0.3330712034002 1.0
C      1  0.4463894216337  0.5704478647884  0.7415417807598 1.0
C      1  0.2638911476550  0.5716533406970  0.4260376912130 1.0
C      1  0.6821575272954  0.5720481005364  0.3328368142747 1.0
C      1  0.5537964725197  0.5705483657414  0.7416118356400 1.0
C      1  0.5487091876356  0.6347706668617  0.2645210339621 1.0
C      1  0.2708162101111  0.6336389834669  0.5759770042041 1.0
C      1  0.6803872003639  0.6335132471813  0.6603812096892 1.0
C      1  0.4516618311762  0.6350362951636  0.2643378687085 1.0
C      1  0.7291203265502  0.6339287377411  0.5764598493451 1.0
C      1  0.3191862422783  0.6338050361068  0.6600746222445 1.0
C      1  0.6406883753814  0.4734459587425  0.6350627314073 1.0
C      1  0.5466124589919  0.4745280398938  0.3111380109261 1.0
C      1  0.3129213132737  0.4735934000727  0.5541197985900 1.0
C      1  0.3592128223986  0.4734884116642  0.6352360041219 1.0
C      1  0.4533083248092  0.4745736317523  0.3109814910104 1.0
C      1  0.6872798231673  0.4736753116597  0.5541198293819 1.0
C      1  0.4527197722052  0.4709926638324  0.7593401260792 1.0
C      1  0.7483610183626  0.4721648771103  0.4111233660752 1.0
C      1  0.2989413861721  0.4724336888769  0.3291852503837 1.0
C      1  0.5472711361665  0.4711061719271  0.7591559437188 1.0
C      1  0.2517963840573  0.4722296724735  0.4112226087260 1.0
C      1  0.7009153065055  0.4725682591058  0.3292621128374 1.0
C      1  0.4543457289605  0.2889539651855  0.4151156096118 1.0
C      1  0.4499805321171  0.2885118658759  0.5808475187418 1.0
C      1  0.5957126934218  0.2886632535519  0.5017573050006 1.0
C      1  0.5456787081691  0.2889088515469  0.4150934808773 1.0
C      1  0.5500574209844  0.2884634183859  0.5808576282806 1.0
C      1  0.4042897816738  0.2885940268369  0.5017675564352 1.0
END
