TITL C-168030-6353-40 -2.964 3375.00 -478.80215583 0 0 60 (C1) n - 1
REM
REM Run started: at 2020.12.16 13:29:56 in /rds/project/t2_vol4/rds-t2-cs072/BORA/CARBON/AIRSS/Generating-Clusters/Str-Search/Higher-Symm/Only-C60
REM VASP from code version vasp.5.4.4.18Apr17-6-g9f103f2a35 (build Oct 11 2019 16:45:47) gamma-only
REM
REM
REM
REM
REM ./C.cell (5f7b7a0d59291d2373303da1f58b8d66)
REM AIRSS Version 0.9.1 bugfix July 2018 build 013d7b7c2542+ Fri, 06 Jul 2018 19:26:36 +0100
REM compiler GCC version 4.8.5 20150623 (Red Hat 4.8.5-39)
REM options -cpp -mtune=generic -march=x86-64 -g -O0
REM seed 1539822230 -1617201955 705242657 184388752 -555281839 1093219530 1723606284 -852113888 -465131794 1743732937 773077136 -798686681
REM
REM C.POTCAR (d86ddea03c3ceb6dc662c8ad6801f873)
REM 
CELL 1.54180   15.00000   15.00000   15.00000   90.00000   90.00000   90.00000
LATT -1
SFAC C  
C      1  0.3355662312013  0.3272044332365  0.4097924775379 1.0
C      1  0.7279482581001  0.4395478665245  0.4049428248679 1.0
C      1  0.4522799887501  0.7293406798729  0.4037521821011 1.0
C      1  0.3005255408023  0.4981781199194  0.5713618432416 1.0
C      1  0.6227248895722  0.3287252392266  0.5564788742915 1.0
C      1  0.5976303576829  0.6864141268781  0.5584943402672 1.0
C      1  0.3934226459076  0.3240167240416  0.5939457100451 1.0
C      1  0.7209563230118  0.4991162746799  0.5858671812297 1.0
C      1  0.4035751817964  0.7129077754486  0.5896244078761 1.0
C      1  0.6925019523640  0.6562375816222  0.5413520872911 1.0
C      1  0.2926310829760  0.5968715072878  0.5600440450162 1.0
C      1  0.5414285429014  0.2709987258340  0.5550826498247 1.0
C      1  0.6709275600211  0.5686601065652  0.3181035758305 1.0
C      1  0.3596128907922  0.6146390116300  0.3262407496124 1.0
C      1  0.4756054922431  0.3246834333457  0.3281089011422 1.0
C      1  0.7135099719711  0.6247222247321  0.3800232424798 1.0
C      1  0.2966669318206  0.6262948932277  0.3945719890403 1.0
C      1  0.4966877840419  0.2612996721292  0.3938156637011 1.0
C      1  0.5290748247716  0.6327057167130  0.5094618904993 1.0
C      1  0.3606854165633  0.4540827096506  0.5102146844100 1.0
C      1  0.6014472082720  0.4110221536950  0.5048097831330 1.0
C      1  0.7253129148462  0.3550940376000  0.5440613884316 1.0
C      1  0.5337947543541  0.7706442767391  0.5369404786730 1.0
C      1  0.2620619897130  0.3255111524215  0.5317419749381 1.0
C      1  0.7267721087992  0.6602930067920  0.4537083735373 1.0
C      1  0.2694139189996  0.6222441152802  0.4726571775553 1.0
C      1  0.5122810084991  0.2405237387276  0.4726959968349 1.0
C      1  0.2881949069892  0.4397649675961  0.6475170161057 1.0
C      1  0.6278426266378  0.3747432198445  0.6450120212772 1.0
C      1  0.5534175069544  0.6894735213161  0.6516598037828 1.0
C      1  0.5177008491826  0.6445310759256  0.2883820013198 1.0
C      1  0.3639474076567  0.4434117438455  0.2964604282543 1.0
C      1  0.6204723365810  0.4141216583416  0.2927037369318 1.0
C      1  0.3283715137864  0.4597682341299  0.7300152546723 1.0
C      1  0.5386745978166  0.3750775384464  0.6803619690389 1.0
C      1  0.5471532128214  0.6139076150496  0.7045451409678 1.0
C      1  0.7217073039969  0.5868836820286  0.5926910481854 1.0
C      1  0.3350274391734  0.6611794718056  0.6105961759547 1.0
C      1  0.4846618176040  0.3116053413204  0.6221314315237 1.0
C      1  0.7656525083796  0.3791935498913  0.4600211778060 1.0
C      1  0.4951394359537  0.7923866172458  0.4520072292320 1.0
C      1  0.2499125191705  0.3010422667604  0.4435587415922 1.0
C      1  0.5507501139441  0.3695503867482  0.2932149354273 1.0
C      1  0.5917748938169  0.6075517982845  0.2851047336955 1.0
C      1  0.3612495976832  0.5264285788851  0.2932334079425 1.0
C      1  0.6862469942123  0.4734552180695  0.3237025401535 1.0
C      1  0.4368133049741  0.6732025663972  0.3257246460779 1.0
C      1  0.3852549446827  0.3592755889160  0.3316736802184 1.0
C      1  0.4553140987241  0.6973656831460  0.5002276591618 1.0
C      1  0.3629199623215  0.3535511153310  0.5038474383294 1.0
C      1  0.6892098362346  0.4541086109841  0.4974963069679 1.0
C      1  0.7185757699637  0.4090547621253  0.6303446929568 1.0
C      1  0.4882171963355  0.7551691167537  0.6252613044321 1.0
C      1  0.2975081526601  0.3465662026328  0.6175500449983 1.0
C      1  0.4080620937728  0.4477994059867  0.7512661036541 1.0
C      1  0.4996345450403  0.4479350772088  0.7305220008823 1.0
C      1  0.5361585447044  0.5343350030123  0.7247545990460 1.0
C      1  0.5106026820303  0.5498813529789  0.4825889967851 1.0
C      1  0.4399528273481  0.4878267071340  0.4771375171852 1.0
C      1  0.5288323880731  0.4578728180373  0.4807914220323 1.0
END
