TITL C-163590-8656-15 -1.32 3375.00 -205.30066560 0 0 26 (C1) n - 1
REM
REM Run started: at 2020.11.27 09:07:35 in /rds/project/t2_vol4/rds-t2-cs072/BORA/CARBON/AIRSS/Generating-Clusters/Str-Search/Higher-Symm/C10-100
REM VASP from code version vasp.5.4.4.18Apr17-6-g9f103f2a35 (build Oct 11 2019 16:45:47) gamma-only
REM
REM
REM
REM
REM ./C.cell (f39ce9773e2efe3fa5bbdf770a4156b8)
REM AIRSS Version 0.9.1 bugfix July 2018 build 013d7b7c2542+ Fri, 06 Jul 2018 19:26:36 +0100
REM compiler GCC version 4.8.5 20150623 (Red Hat 4.8.5-39)
REM options -cpp -mtune=generic -march=x86-64 -g -O0
REM seed 770636149 27495107 46655687 -2019045329 579018134 572760030 210822688 988978543 -1489978144 -1612799366 -1375492175 534107251
REM
REM C.POTCAR (d86ddea03c3ceb6dc662c8ad6801f873)
REM 
CELL 1.54180   15.00000   15.00000   15.00000   90.00000   90.00000   90.00000
LATT -1
SFAC C  
C      1  0.4690284898981  0.2977635669535  0.5266228309726 1.0
C      1  0.6417453349813  0.5698919887234  0.4014345931918 1.0
C      1  0.5224072132681  0.4169127775213  0.3082690523430 1.0
C      1  0.3934053541118  0.5496144705952  0.5944781216144 1.0
C      1  0.4813549767813  0.5652833735568  0.6347161491416 1.0
C      1  0.4664348710223  0.5551849087188  0.3734274976130 1.0
C      1  0.4465928444366  0.4093184187583  0.6345493829691 1.0
C      1  0.5007117893578  0.3301198477384  0.6070583338627 1.0
C      1  0.4482224498799  0.6897642477976  0.4739032249760 1.0
C      1  0.3707600765175  0.5571091432385  0.4986158440803 1.0
C      1  0.5877440908390  0.3431745893034  0.6461649555566 1.0
C      1  0.6183487395149  0.6221383365320  0.5585046678159 1.0
C      1  0.3777907092565  0.4522094977620  0.5893820410662 1.0
C      1  0.6574930753055  0.6046202239753  0.4877016580002 1.0
C      1  0.5106527055607  0.4787198084843  0.6640895684256 1.0
C      1  0.4162697263862  0.6102556790545  0.4358710907752 1.0
C      1  0.4514116037420  0.4589471613789  0.3573233480802 1.0
C      1  0.4024234502937  0.4090121238231  0.4248727263836 1.0
C      1  0.5912507990018  0.4280998685204  0.6611249320270 1.0
C      1  0.5928558602015  0.4722689724824  0.3129564033884 1.0
C      1  0.3613827640357  0.4611119132899  0.4934461626455 1.0
C      1  0.6758898258787  0.4910277774482  0.3545454237758 1.0
C      1  0.4350182724118  0.3266011550383  0.4554711552239 1.0
C      1  0.5352377222647  0.6387898049096  0.6015748242290 1.0
C      1  0.4870977666366  0.6981605247071  0.5475086424256 1.0
C      1  0.5584693884158  0.5638997196887  0.3563873694165 1.0
END
