TITL C-164774-6267-4 -2.926 3375.00 -504.00401089 0 0 60 (C1) n - 1
REM
REM Run started: at 2020.11.27 19:05:44 in /rds/project/t2_vol4/rds-t2-cs072/BORA/CARBON/AIRSS/Generating-Clusters/Str-Search/Higher-Symm/Only-C60/Try2-TRACK-ENABLED
REM VASP from code version vasp.5.4.4.18Apr17-6-g9f103f2a35 (build Oct 11 2019 16:45:47) gamma-only
REM
REM
REM
REM
REM ./C.cell (5f7b7a0d59291d2373303da1f58b8d66)
REM AIRSS Version 0.9.1 bugfix July 2018 build 013d7b7c2542+ Fri, 06 Jul 2018 19:26:36 +0100
REM compiler GCC version 4.8.5 20150623 (Red Hat 4.8.5-39)
REM options -cpp -mtune=generic -march=x86-64 -g -O0
REM seed -370147110 -578151551 -1053914299 1216318150 1593571424 820453905 -95885559 298048613 -1914124416 -1152595331 -1596678665 1227048203
REM
REM C.POTCAR (d86ddea03c3ceb6dc662c8ad6801f873)
REM 
CELL 1.54180   15.00000   15.00000   15.00000   90.00000   90.00000   90.00000
LATT -1
SFAC C  
C      1  0.7103495010506  0.6144380825030  0.4183827661323 1.0
C      1  0.5509774404306  0.7121624720591  0.4140497262550 1.0
C      1  0.4633532280595  0.7403292365502  0.4278483278865 1.0
C      1  0.3895648784077  0.6885981234356  0.3926414896128 1.0
C      1  0.2774533644122  0.5576423883054  0.4239562503049 1.0
C      1  0.2688755281722  0.4633043765724  0.4289638203218 1.0
C      1  0.3528775179385  0.3068511441358  0.4222368363984 1.0
C      1  0.4378713794206  0.2656845085302  0.4208797381147 1.0
C      1  0.6150126707733  0.2907876072617  0.4210996015565 1.0
C      1  0.6860607499126  0.3521809525730  0.4215999628834 1.0
C      1  0.7380529442077  0.5238052336033  0.4210273649797 1.0
C      1  0.4383778183726  0.2575124720292  0.5794708816662 1.0
C      1  0.6123643549574  0.2922834013342  0.5810096214376 1.0
C      1  0.6816644432841  0.3555715299979  0.5814742907588 1.0
C      1  0.7304605028280  0.5256991936385  0.5794106019465 1.0
C      1  0.7042765752512  0.6167200871210  0.5781328951493 1.0
C      1  0.5661331207300  0.7279028809843  0.5760626132823 1.0
C      1  0.4707868455961  0.7350040535104  0.5893363149876 1.0
C      1  0.3323702683515  0.5880744917106  0.6691971211126 1.0
C      1  0.2896355409592  0.5664634213278  0.5862909989369 1.0
C      1  0.2799317816254  0.4690758472685  0.5884384398788 1.0
C      1  0.3513225800383  0.2957948524953  0.5809337644810 1.0
C      1  0.6431552010211  0.4099081565668  0.3530953583569 1.0
C      1  0.6728824767397  0.4971619671517  0.3505215850566 1.0
C      1  0.6443823116035  0.5948749319491  0.3502415387275 1.0
C      1  0.5645240063045  0.6424229372841  0.3447467885095 1.0
C      1  0.4896519988680  0.6010218346326  0.2966290719476 1.0
C      1  0.4005127687780  0.6158868412449  0.3334939018724 1.0
C      1  0.3360277871774  0.5497169069196  0.3473985739532 1.0
C      1  0.3300438316258  0.4498642085933  0.3519689831431 1.0
C      1  0.3796376243113  0.3725496180281  0.3532810157711 1.0
C      1  0.4725378556704  0.3301163413220  0.3531518581048 1.0
C      1  0.5641523233260  0.3434067733718  0.3535821714679 1.0
C      1  0.3283517839042  0.4333180200637  0.6671388892361 1.0
C      1  0.3733614639139  0.3531699331093  0.6552493145721 1.0
C      1  0.4696656689794  0.3174831760716  0.6527690788835 1.0
C      1  0.5596603390711  0.3411204248605  0.6492782570548 1.0
C      1  0.6356827909314  0.4133420751434  0.6484341264088 1.0
C      1  0.6634385466286  0.5023297422291  0.6491491304237 1.0
C      1  0.6395695910584  0.6037212547996  0.6497485130813 1.0
C      1  0.5742871024363  0.6693400379629  0.6549618985358 1.0
C      1  0.4762341459211  0.6814786835748  0.6713255261272 1.0
C      1  0.4138858590623  0.6283462606137  0.7096606878788 1.0
C      1  0.3515595121218  0.5091143346918  0.7187101357269 1.0
C      1  0.6087645462011  0.7159584528697  0.4929672434815 1.0
C      1  0.4182373756520  0.7422005567608  0.5147709239541 1.0
C      1  0.3424269031323  0.6894338017734  0.4764224801870 1.0
C      1  0.2924863493999  0.6130719922090  0.5006235151035 1.0
C      1  0.2692780746232  0.4160703580914  0.5092335885088 1.0
C      1  0.3085386856596  0.3277634777329  0.5033671782260 1.0
C      1  0.4841261632715  0.2388828817807  0.4994803214769 1.0
C      1  0.5781219308166  0.2551322339306  0.5007451535672 1.0
C      1  0.7234416242552  0.3850934172556  0.5021722932867 1.0
C      1  0.7510432710017  0.4765058318530  0.5017768682396 1.0
C      1  0.6879910548835  0.6630686420613  0.4967066058899 1.0
C      1  0.5123422290681  0.4719608893046  0.1785696227341 1.0
C      1  0.5624620078620  0.4846454718255  0.8582379934066 1.0
C      1  0.4274265115480  0.5468753534906  0.7651312321243 1.0
C      1  0.5028103533406  0.5389066904046  0.2307785265243 1.0
C      1  0.4939701950510  0.5163615315245  0.8178376203662 1.0
END
