TITL C-164665-5787-1 -8.309 3375.00 -1416.60912836 0 0 180 (C4h) n - 1
REM
REM Run started: at 2020.12.24 10:25:13 in /rds/project/t2_vol4/rds-t2-cs072/BORA/CARBON/AIRSS/Generating-Clusters/Str-Search/Higher-Symm/Only-C180
REM VASP from code version vasp.5.4.4.18Apr17-6-g9f103f2a35 (build Oct 11 2019 16:45:47) gamma-only
REM
REM
REM
REM
REM ./C.cell (f712cfaf3acf65fd2d5dcba0fd1fd40b)
REM AIRSS Version 0.9.1 bugfix July 2018 build 013d7b7c2542+ Fri, 06 Jul 2018 19:26:36 +0100
REM compiler GCC version 4.8.5 20150623 (Red Hat 4.8.5-39)
REM options -cpp -mtune=generic -march=x86-64 -g -O0
REM seed 525264239 778726274 -1474538826 521517091 -208227385 -1083179540 -1428988606 -1496937749 -1094469105 193525520 -1948665949 -2085121695
REM
REM C.POTCAR (d86ddea03c3ceb6dc662c8ad6801f873)
REM 
CELL 1.54180   15.00000   15.00000   15.00000   90.00000   90.00000   90.00000
LATT -1
SFAC C  
C      1  0.3583253096773  0.4065761545230  0.5534465161469 1.0
C      1  0.3583255716107  0.4465532845564  0.4065756623732 1.0
C      1  0.3583258066887  0.5934246258195  0.4465522946131 1.0
C      1  0.3583254416257  0.5534472478437  0.5934239010959 1.0
C      1  0.6442000461021  0.4065589896464  0.5534021434788 1.0
C      1  0.6442003300452  0.4465976756154  0.4065590318462 1.0
C      1  0.6442004115149  0.5934412202543  0.4465980473008 1.0
C      1  0.6441999327828  0.5534021332679  0.5934413933634 1.0
C      1  0.5477873542190  0.8611779708750  0.5428242962438 1.0
C      1  0.5477864320563  0.4571757633977  0.8611778049690 1.0
C      1  0.5477874756250  0.1388223662769  0.4571752841724 1.0
C      1  0.5477881256307  0.5428245343053  0.1388221014472 1.0
C      1  0.4546568562788  0.8612492009962  0.5428099357001 1.0
C      1  0.4546562122070  0.4571904617469  0.8612488874948 1.0
C      1  0.4546570967515  0.1387507156189  0.4571901536541 1.0
C      1  0.4546577227443  0.5428094769745  0.1387503306574 1.0
C      1  0.4486719570425  0.4353322247380  0.5317902169136 1.0
C      1  0.4486722813816  0.4682098328110  0.4353320227760 1.0
C      1  0.4486722209746  0.5646681610225  0.4682094559923 1.0
C      1  0.4486718955637  0.5317905435443  0.5646677634223 1.0
C      1  0.5539064133936  0.4353272409702  0.5317882740402 1.0
C      1  0.5539064660721  0.4682118617794  0.4353273014945 1.0
C      1  0.5539064523031  0.5646728106866  0.4682117379482 1.0
C      1  0.5539064202029  0.5317884258134  0.5646727903187 1.0
C      1  0.7027359968696  0.3733877156488  0.1675820679427 1.0
C      1  0.7027361838599  0.8324176455961  0.3733881978325 1.0
C      1  0.7027366469916  0.6266098160426  0.8324184539841 1.0
C      1  0.7027371422848  0.1675823518508  0.6266098130387 1.0
C      1  0.2999504240103  0.3730998266506  0.1675418897345 1.0
C      1  0.2999483873690  0.8324583417373  0.3731011264866 1.0
C      1  0.2999507959705  0.6269025110938  0.8324587267127 1.0
C      1  0.2999512071234  0.1675415130895  0.6269023926584 1.0
C      1  0.1740137114462  0.3207822032809  0.4030453012299 1.0
C      1  0.1740124650692  0.5969542616171  0.3207836311118 1.0
C      1  0.1740125815327  0.6792148864390  0.5969537771553 1.0
C      1  0.1740137375439  0.4030454486470  0.6792170967209 1.0
C      1  0.8285346823741  0.3208867895221  0.4028919555165 1.0
C      1  0.8285348835031  0.5971076541515  0.3208865424778 1.0
C      1  0.8285346654258  0.6791139241624  0.5971087436929 1.0
C      1  0.8285348791650  0.4028919248417  0.6791127446413 1.0
C      1  0.4040339793910  0.4096501724619  0.7296795444094 1.0
C      1  0.4040345423277  0.2703200514817  0.4096498290554 1.0
C      1  0.4040345734019  0.5903508473970  0.2703202439048 1.0
C      1  0.4040340373498  0.7296795111052  0.5903503883256 1.0
C      1  0.5985074332290  0.4096433856697  0.7296554568946 1.0
C      1  0.5985082258040  0.2703443897272  0.4096431469226 1.0
C      1  0.5985086529252  0.5903567781752  0.2703441457893 1.0
C      1  0.5985082290474  0.7296559296287  0.5903564516806 1.0
C      1  0.4061263390291  0.7823695992949  0.5118823660301 1.0
C      1  0.4061262288499  0.4881181636526  0.7823690665064 1.0
C      1  0.4061270595803  0.2176304928333  0.4881177777649 1.0
C      1  0.4061271992368  0.5118829583562  0.2176303884617 1.0
C      1  0.5963535766188  0.7823209456442  0.5119093961815 1.0
C      1  0.5963525798082  0.4880905665065  0.7823204737229 1.0
C      1  0.5963535529723  0.2176795537196  0.4880901984679 1.0
C      1  0.5963539103334  0.5119092830211  0.2176792843697 1.0
C      1  0.2455017036837  0.8721058673411  0.4433986018730 1.0
C      1  0.2455016498221  0.5566056822540  0.8721055135301 1.0
C      1  0.2455020276233  0.1278943522656  0.5566061075217 1.0
C      1  0.2455029832537  0.4433967468633  0.1278943022058 1.0
C      1  0.7573578265248  0.8719202670603  0.4436389528548 1.0
C      1  0.7573579329696  0.5563592732082  0.8719222149450 1.0
C      1  0.7573584263497  0.1280775424739  0.5563594781534 1.0
C      1  0.7573575519020  0.4436380436321  0.1280792155791 1.0
C      1  0.1677155244917  0.4712758405980  0.7494477576324 1.0
C      1  0.1677153420227  0.2505519054889  0.4712760817618 1.0
C      1  0.1677145361222  0.5287232746439  0.2505521048418 1.0
C      1  0.1677141004750  0.7494456340745  0.5287239417462 1.0
C      1  0.8351873235454  0.4710193945496  0.7493631098330 1.0
C      1  0.8351875725760  0.2506366952181  0.4710196820341 1.0
C      1  0.8351871161901  0.5289795705161  0.2506363591743 1.0
C      1  0.8351871488982  0.7493633520078  0.5289803762632 1.0
C      1  0.8246618205913  0.6413548940652  0.6848989967004 1.0
C      1  0.8246623840955  0.3151015508492  0.6413548755904 1.0
C      1  0.8246613709770  0.3586445111990  0.3151017798707 1.0
C      1  0.8246615236253  0.6848975238568  0.3586452607245 1.0
C      1  0.1779438567526  0.6415211337644  0.6847810394020 1.0
C      1  0.1779453474173  0.3152192281354  0.6415226804378 1.0
C      1  0.1779445905197  0.3584772608878  0.3152193913020 1.0
C      1  0.1779417074575  0.6847803085174  0.3584781142155 1.0
C      1  0.3301613945427  0.6997387463109  0.3614465150320 1.0
C      1  0.3301625136869  0.6385549108744  0.6997387625191 1.0
C      1  0.3301645798458  0.3002622346669  0.6385532700950 1.0
C      1  0.3301647167807  0.3614465888084  0.3002616181462 1.0
C      1  0.6723227214789  0.6997614992355  0.3615040541435 1.0
C      1  0.6723221924666  0.6384959833193  0.6997619722247 1.0
C      1  0.6723221418894  0.3002383421942  0.6384959151982 1.0
C      1  0.6723224665403  0.3615039138601  0.3002385880232 1.0
C      1  0.6016235983494  0.1736525786890  0.6611409455875 1.0
C      1  0.6016232285211  0.3388593005557  0.1736503167612 1.0
C      1  0.6016234710445  0.8263501327787  0.3388599304910 1.0
C      1  0.6016233393328  0.6611410953603  0.8263479755071 1.0
C      1  0.4009413739453  0.1737664566861  0.6612776832747 1.0
C      1  0.4009404435028  0.3387222263107  0.1737674922574 1.0
C      1  0.4009389282850  0.8262315815597  0.3387217413972 1.0
C      1  0.4009412123221  0.6612784511829  0.8262329538075 1.0
C      1  0.2540344651781  0.6588253789980  0.7472728780752 1.0
C      1  0.2540360591639  0.2527278685789  0.6588241239673 1.0
C      1  0.2540354276857  0.3411774263982  0.2527276990851 1.0
C      1  0.2540318455413  0.7472728755621  0.3411778018563 1.0
C      1  0.7484939332610  0.6586550834025  0.7472442568641 1.0
C      1  0.7484946426710  0.2527573142250  0.6586551035644 1.0
C      1  0.7484938803919  0.3413419134288  0.2527570669674 1.0
C      1  0.7484940264703  0.7472424731344  0.3413425173767 1.0
C      1  0.8335336243146  0.6839688100507  0.4550405422041 1.0
C      1  0.8335335887002  0.5449598114520  0.6839692918156 1.0
C      1  0.8335340965826  0.3160304336378  0.5449593736771 1.0
C      1  0.8335335212012  0.4550397384386  0.3160308376248 1.0
C      1  0.1691768174389  0.6839816826329  0.4548768275402 1.0
C      1  0.1691782561161  0.5451231402069  0.6839835176802 1.0
C      1  0.1691787284922  0.3160166020061  0.5451236419857 1.0
C      1  0.1691784439773  0.4548757583663  0.3160172161971 1.0
C      1  0.5555694587254  0.7725680139035  0.6706505296854 1.0
C      1  0.5555685871705  0.3293493658800  0.7725674162553 1.0
C      1  0.5555696747134  0.2274327359164  0.3293485558365 1.0
C      1  0.5555703553492  0.6706515178897  0.2274325587427 1.0
C      1  0.4469866541152  0.7726025951281  0.6706392891808 1.0
C      1  0.4469860032587  0.3293611607867  0.7726025357574 1.0
C      1  0.4469869424879  0.2273976355980  0.3293606035872 1.0
C      1  0.4469878255724  0.6706394472937  0.2273972326182 1.0
C      1  0.5574361220373  0.1210248790353  0.3569184796860 1.0
C      1  0.5574375120937  0.6430823395888  0.1210232339619 1.0
C      1  0.5574360622621  0.8789756807528  0.6430811217814 1.0
C      1  0.5574352060312  0.3569188398562  0.8789759429867 1.0
C      1  0.4451550253996  0.1209904027272  0.3569234397199 1.0
C      1  0.4451563899064  0.6430755072371  0.1209897101624 1.0
C      1  0.4451551311263  0.8790103052276  0.6430765224795 1.0
C      1  0.4451541075121  0.3569237639943  0.8790093961723 1.0
C      1  0.7015630301510  0.4742105398052  0.6115951002146 1.0
C      1  0.7015631395641  0.3884047670465  0.4742106422868 1.0
C      1  0.7015632661113  0.5257893586594  0.3884051270700 1.0
C      1  0.7015630790670  0.6115950927661  0.5257898615726 1.0
C      1  0.3009406136995  0.4742594751464  0.6115811371945 1.0
C      1  0.3009409276958  0.3884186491872  0.4742586728941 1.0
C      1  0.3009410566025  0.5257412187390  0.3884178577497 1.0
C      1  0.3009407299517  0.6115810575190  0.5257401809410 1.0
C      1  0.6547642396459  0.3933413823956  0.6531036678118 1.0
C      1  0.6547649231800  0.3468968263054  0.3933411679606 1.0
C      1  0.6547651498806  0.6066585479211  0.3468967370702 1.0
C      1  0.6547644535537  0.6531038102602  0.6066590556548 1.0
C      1  0.3477150104632  0.3933753550596  0.6531310480974 1.0
C      1  0.3477157664285  0.3468686727094  0.3933746818596 1.0
C      1  0.3477149688103  0.6066255927809  0.3468678718624 1.0
C      1  0.3477146084554  0.6531316329455  0.6066248976116 1.0
C      1  0.4547245344671  0.7670753658432  0.2713141710026 1.0
C      1  0.4547248022974  0.7286863380897  0.7670753635457 1.0
C      1  0.4547242245952  0.2329247380184  0.7286855562370 1.0
C      1  0.4547243587236  0.2713144805869  0.2329245846661 1.0
C      1  0.5477776602249  0.7670931037731  0.2713654251913 1.0
C      1  0.5477780016552  0.7286371539391  0.7670910216704 1.0
C      1  0.5477774888199  0.2329093734823  0.7286365877315 1.0
C      1  0.5477774418671  0.2713650403670  0.2329071621413 1.0
C      1  0.8006330541596  0.6189507336864  0.5204673739398 1.0
C      1  0.8006333111920  0.4795333407017  0.6189496779956 1.0
C      1  0.8006335027219  0.3810501333299  0.4795335109389 1.0
C      1  0.8006333399797  0.5204661300226  0.3810495613031 1.0
C      1  0.2018153342586  0.6188730256448  0.5203677315038 1.0
C      1  0.2018154241686  0.4796318158341  0.6188760048113 1.0
C      1  0.2018158830785  0.3811230345586  0.4796313884943 1.0
C      1  0.2018159715532  0.5203681089321  0.3811247663366 1.0
C      1  0.6235267586410  0.4168923740355  0.2304663876258 1.0
C      1  0.6235269564036  0.7695336024890  0.4168924902254 1.0
C      1  0.6235269292268  0.5831068436090  0.7695335747821 1.0
C      1  0.6235276037310  0.2304665091680  0.5831067115159 1.0
C      1  0.3790143452325  0.4168223508465  0.2304993643535 1.0
C      1  0.3790116397584  0.7695003158870  0.4168216723281 1.0
C      1  0.3790130669831  0.5831795665503  0.7694997040279 1.0
C      1  0.3790149317146  0.2304997631845  0.5831782285602 1.0
C      1  0.8040916662738  0.1653531658003  0.4972723213028 1.0
C      1  0.8040912587668  0.5027260553700  0.1653533771917 1.0
C      1  0.8040915444340  0.8346465327993  0.5027268220202 1.0
C      1  0.8040914506785  0.4972719986288  0.8346467061582 1.0
C      1  0.1989370878456  0.1652812705426  0.4974827916779 1.0
C      1  0.1989340342986  0.5025193151974  0.1652816239859 1.0
C      1  0.1989334125582  0.8347172411130  0.5025203037210 1.0
C      1  0.1989374984056  0.4974823163922  0.8347184825412 1.0
C      1  0.5012900710486  0.3024649098729  0.9308826329704 1.0
C      1  0.5012911936730  0.0691173244197  0.3024648013756 1.0
C      1  0.5012917783533  0.6975348532412  0.0691164751638 1.0
C      1  0.5012914266445  0.9308830314692  0.6975350284720 1.0
END
