TITL C-161415-4081-9 -4.902 3375.00 -821.37159206 0 0 100 (C1) n - 1
REM
REM Run started: at 2020.12.21 06:18:46 in /rds/project/t2_vol4/rds-t2-cs072/BORA/CARBON/AIRSS/Generating-Clusters/Str-Search/Higher-Symm/C100-200
REM VASP from code version vasp.5.4.4.18Apr17-6-g9f103f2a35 (build Oct 11 2019 16:45:47) gamma-only
REM
REM
REM
REM
REM ./C.cell (533062f00bc710175b3da973d35f2034)
REM AIRSS Version 0.9.1 bugfix July 2018 build 013d7b7c2542+ Fri, 06 Jul 2018 19:26:36 +0100
REM compiler GCC version 4.8.5 20150623 (Red Hat 4.8.5-39)
REM options -cpp -mtune=generic -march=x86-64 -g -O0
REM seed -1619132110 -1346455738 153101196 2021765438 1498903358 1023146493 -919524588 2067750714 -1337070693 1929745780 573617686 -1942147349
REM
REM C.POTCAR (d86ddea03c3ceb6dc662c8ad6801f873)
REM 
CELL 1.54180   15.00000   15.00000   15.00000   90.00000   90.00000   90.00000
LATT -1
SFAC C  
C      1  0.2882890891651  0.5737294506357  0.5069475477194 1.0
C      1  0.5066510928138  0.7068149544724  0.4975116379883 1.0
C      1  0.7073023817752  0.5415432119690  0.4938942352605 1.0
C      1  0.6238498872325  0.3137363800628  0.5284869736204 1.0
C      1  0.3605042722582  0.3478535060019  0.4843235323417 1.0
C      1  0.6742300605660  0.2938723960212  0.4476793713168 1.0
C      1  0.3848856763000  0.2801484168630  0.4254612741830 1.0
C      1  0.2567002330594  0.5473713184033  0.4229634229429 1.0
C      1  0.4534486135633  0.7451267727718  0.4320399019216 1.0
C      1  0.7290885935393  0.6013221356817  0.4256971424342 1.0
C      1  0.8828517566294  0.4493533998284  0.6392089177380 1.0
C      1  0.5709688453982  0.1118385770429  0.6458223997014 1.0
C      1  0.1543018698815  0.3323670580933  0.6257649001778 1.0
C      1  0.2613135631644  0.7830174410176  0.6313137667779 1.0
C      1  0.6566689780437  0.8312606269107  0.6495516235195 1.0
C      1  0.2646726133302  0.4055526019341  0.7352794533047 1.0
C      1  0.3410979028634  0.6941689029903  0.7545682517434 1.0
C      1  0.6207463834419  0.7176289748848  0.7722442661681 1.0
C      1  0.7509190350572  0.4658651764975  0.7463121841738 1.0
C      1  0.5480823442526  0.2619951766801  0.7246240583677 1.0
C      1  0.4815669910149  0.5859404443397  0.2436573069482 1.0
C      1  0.5722934677322  0.5457046858888  0.2432191152699 1.0
C      1  0.5608303582325  0.4491866835204  0.2427031295405 1.0
C      1  0.4665095352565  0.4270155487976  0.2431108188398 1.0
C      1  0.4166252754950  0.5125627200648  0.2389068772324 1.0
C      1  0.5639861364621  0.1144893290510  0.4768403279169 1.0
C      1  0.1644607812269  0.3168106064572  0.4553086801219 1.0
C      1  0.2333612928869  0.7930947152694  0.4630043632258 1.0
C      1  0.6517400245464  0.8423975158634  0.4789860748058 1.0
C      1  0.8763587366950  0.4365822215561  0.4693988330289 1.0
C      1  0.4925917915969  0.6471318886315  0.5752372713014 1.0
C      1  0.6567786597527  0.5536599090707  0.5782920409469 1.0
C      1  0.6544209800127  0.4020583859279  0.5597345367335 1.0
C      1  0.3900095989407  0.3659795418755  0.5744816883423 1.0
C      1  0.3429363945675  0.5312880238372  0.5819471940659 1.0
C      1  0.7087829109503  0.4033824227268  0.3156250532984 1.0
C      1  0.5067521948431  0.3310142179039  0.3671608096564 1.0
C      1  0.2793359452640  0.4433138425136  0.2992097847592 1.0
C      1  0.3891144171736  0.6299148275897  0.3686736787132 1.0
C      1  0.6372010049352  0.6764040675575  0.3230613178483 1.0
C      1  0.4386092781667  0.3474983651040  0.2946053069945 1.0
C      1  0.3252051591376  0.5183064901632  0.2709103893429 1.0
C      1  0.4526971855339  0.6643134318680  0.2962950076015 1.0
C      1  0.6477151437075  0.5914616884217  0.2853514461713 1.0
C      1  0.6265864433016  0.3838960493557  0.2771561503867 1.0
C      1  0.2398181120352  0.8003080524389  0.5465007371295 1.0
C      1  0.6588200283832  0.8465763607343  0.5632001490577 1.0
C      1  0.8912445709066  0.4375195365766  0.5536497881132 1.0
C      1  0.5629483535392  0.0967220212549  0.5603750869896 1.0
C      1  0.1497282588617  0.3227273391655  0.5392408137331 1.0
C      1  0.4937825644722  0.7375472372815  0.3395715639021 1.0
C      1  0.7266926369814  0.5574300428942  0.3369238424538 1.0
C      1  0.5923892344728  0.3105497798836  0.3265528748015 1.0
C      1  0.3604412087940  0.3081749441938  0.3295096976164 1.0
C      1  0.2979090374829  0.5952276705157  0.3385426767742 1.0
C      1  0.5278860742584  0.2969890318656  0.5303484726229 1.0
C      1  0.3422318037556  0.4308344966808  0.4353017732246 1.0
C      1  0.3437392390858  0.6506701825049  0.5143709155460 1.0
C      1  0.5856759209684  0.6508463448131  0.4716757941079 1.0
C      1  0.6702550734555  0.4499356870859  0.4709420131368 1.0
C      1  0.5447008310351  0.5639994038602  0.8012048382365 1.0
C      1  0.5778827962776  0.4778213715226  0.7703834304871 1.0
C      1  0.5034877839738  0.4241515568539  0.7471582395912 1.0
C      1  0.4237515414987  0.4737268120492  0.7656493777309 1.0
C      1  0.4463139164818  0.5610635211660  0.7970864940179 1.0
C      1  0.8247856470808  0.4570702306217  0.7022840212549 1.0
C      1  0.5616148080947  0.1823658702308  0.6954580990265 1.0
C      1  0.2021074547307  0.3703325153313  0.6862021676646 1.0
C      1  0.2964535385235  0.7477055037734  0.6988948723649 1.0
C      1  0.6426026612706  0.7820903914240  0.7166588398085 1.0
C      1  0.2509356347039  0.4530190465473  0.3943028603272 1.0
C      1  0.3640728511151  0.7041000198884  0.4345402931854 1.0
C      1  0.6690964500220  0.6829265177009  0.4176482400612 1.0
C      1  0.7230942329372  0.3762235050899  0.4125941891728 1.0
C      1  0.4842787369881  0.2592824843854  0.4386335018586 1.0
C      1  0.5418570182425  0.5666093538880  0.4320064166544 1.0
C      1  0.5777739344013  0.4763046249662  0.4374768340007 1.0
C      1  0.5074967036934  0.4181311208050  0.4206155807955 1.0
C      1  0.4246657168281  0.4699050107379  0.4182377745342 1.0
C      1  0.4499911039787  0.5609851158384  0.4102382957729 1.0
C      1  0.6539387691921  0.4651737727082  0.6255198257319 1.0
C      1  0.4731119232215  0.3287291699365  0.6034285383179 1.0
C      1  0.3577111653789  0.4443097541652  0.6197401862863 1.0
C      1  0.4016500774536  0.6132680892348  0.5811803692471 1.0
C      1  0.5867471158087  0.6131137350041  0.5657646459877 1.0
C      1  0.5881281236511  0.7575658770441  0.3339947510353 1.0
C      1  0.7711240480902  0.4749603522401  0.3289011281086 1.0
C      1  0.6276196619162  0.2398628514559  0.3834424170228 1.0
C      1  0.2727512140217  0.3452600656712  0.3139188329854 1.0
C      1  0.2435129839581  0.6810074556252  0.3304249858630 1.0
C      1  0.5902735758726  0.6432490429520  0.7960249077022 1.0
C      1  0.6627782806714  0.4642362924610  0.7249296086778 1.0
C      1  0.5095066889005  0.3397789893734  0.6956008991818 1.0
C      1  0.3451387669586  0.4430932266845  0.7192566921148 1.0
C      1  0.3902920706481  0.6345126169146  0.7860233058006 1.0
C      1  0.5536832641363  0.1855466566519  0.4223297701644 1.0
C      1  0.2097507676291  0.3580511480775  0.3896673957134 1.0
C      1  0.2704261391204  0.7382459088543  0.3960221574272 1.0
C      1  0.6450049998862  0.7844776167026  0.4100040703770 1.0
C      1  0.8132821843866  0.4277102715553  0.4072723820055 1.0
END
