TITL C-16605-5188-8 -3.496 3375.00 -589.49456723 0 0 72 (D3h) n - 1
REM
REM Run started: at 2020.11.21 07:16:15 in /rds/project/t2_vol4/rds-t2-cs072/BORA/CARBON/AIRSS/Generating-Clusters/Str-Search/Higher-Symm
REM VASP from code version vasp.5.4.4.18Apr17-6-g9f103f2a35 (build Oct 11 2019 16:45:47) gamma-only
REM
REM
REM
REM
REM ./C.cell (e5ae0387ce4d49c7c0135a1433873289)
REM AIRSS Version 0.9.1 bugfix July 2018 build 013d7b7c2542+ Fri, 06 Jul 2018 19:26:36 +0100
REM compiler GCC version 4.8.5 20150623 (Red Hat 4.8.5-39)
REM options -cpp -mtune=generic -march=x86-64 -g -O0
REM seed 12994465 -175086171 -1741796662 1544954335 -1341279937 -1292755814 -518388859 -1695048841 -882243888 1992736043 201131082 2091320342
REM
REM C.POTCAR (d86ddea03c3ceb6dc662c8ad6801f873)
REM 
CELL 1.54180   15.00000   15.00000   15.00000   90.00000   90.00000   90.00000
LATT -1
SFAC C  
C      1  0.4505320522775  0.5761910621287  0.2738178321903 1.0
C      1  0.4505515803362  0.6579151907638  0.6788099178067 1.0
C      1  0.4505089413880  0.2659687249165  0.5472350031878 1.0
C      1  0.5494675757369  0.5761910686414  0.2738180424031 1.0
C      1  0.5494481996685  0.6579151381060  0.6788099793562 1.0
C      1  0.5494908415669  0.2659687480944  0.5472350505364 1.0
C      1  0.4505324039206  0.5761912169548  0.7261818102353 1.0
C      1  0.4505518123685  0.6579150586413  0.3211896828625 1.0
C      1  0.4505092088028  0.2659687084676  0.4527651619689 1.0
C      1  0.5494678382318  0.5761912436557  0.7261820045179 1.0
C      1  0.5494483111836  0.6579151587882  0.3211897648570 1.0
C      1  0.5494911239703  0.2659686905515  0.4527651934566 1.0
C      1  0.5498371154890  0.7306430277772  0.4528545512336 1.0
C      1  0.5497681756587  0.4256502266535  0.7230048258099 1.0
C      1  0.5497869024485  0.3440736843915  0.3243706816572 1.0
C      1  0.4501628912530  0.7306431419842  0.4528544082238 1.0
C      1  0.4502319667101  0.4256502074662  0.7230048735847 1.0
C      1  0.4502133226892  0.3440736326147  0.3243706738114 1.0
C      1  0.5498370258640  0.7306430228670  0.5471452254981 1.0
C      1  0.5497680148439  0.4256501510755  0.2769954517863 1.0
C      1  0.5497866751672  0.3440738271337  0.6756294490725 1.0
C      1  0.4501627833180  0.7306428355060  0.5471450340036 1.0
C      1  0.4502318285257  0.4256501248583  0.2769954960754 1.0
C      1  0.4502130634817  0.3440737990949  0.6756293791002 1.0
C      1  0.6597430381030  0.5031536354773  0.6154176861821 1.0
C      1  0.6597639020906  0.3986939178774  0.4451388948502 1.0
C      1  0.6597676496078  0.5982285994693  0.4394000191788 1.0
C      1  0.3402574287006  0.5031532191474  0.6154182270527 1.0
C      1  0.3402365005795  0.3986935404496  0.4451381610778 1.0
C      1  0.3402326067883  0.5982292107778  0.4394001052057 1.0
C      1  0.6597428569285  0.5031534902764  0.3845821478987 1.0
C      1  0.6597637823964  0.3986937594997  0.5548615399958 1.0
C      1  0.6597675558815  0.5982288306382  0.5605997899118 1.0
C      1  0.3402566674607  0.5031538509247  0.3845826228196 1.0
C      1  0.3402360198980  0.3986941279256  0.5548608028871 1.0
C      1  0.3402320885303  0.5982280735525  0.5605999135445 1.0
C      1  0.2437348881819  0.4726487722695  0.6379713921096 1.0
C      1  0.2437422175559  0.3942737387265  0.4074891138038 1.0
C      1  0.2437479306656  0.6327323874898  0.4546865992715 1.0
C      1  0.7562660068260  0.4726505032803  0.6379702317538 1.0
C      1  0.7562584836969  0.3942740240257  0.4074908248013 1.0
C      1  0.7562526670742  0.6327308009374  0.4546856384760 1.0
C      1  0.2437334737141  0.4726513092006  0.3620304561269 1.0
C      1  0.2437412011857  0.3942739992106  0.5925081818914 1.0
C      1  0.2437468399133  0.6327296317110  0.5453147942439 1.0
C      1  0.7562656293745  0.4726498344761  0.3620292452097 1.0
C      1  0.7562582823288  0.3942739922227  0.5925098718971 1.0
C      1  0.7562524425484  0.6327314508677  0.5453138303720 1.0
C      1  0.4030603655589  0.3290115055701  0.5966594566701 1.0
C      1  0.4030596749960  0.5016868608030  0.3033076526947 1.0
C      1  0.4030263706782  0.6695401646654  0.5996281423822 1.0
C      1  0.5969392631976  0.3290116041366  0.5966594214698 1.0
C      1  0.5969397637642  0.5016867996898  0.3033079188100 1.0
C      1  0.5969732194333  0.6695401475188  0.5996281868428 1.0
C      1  0.4030609955668  0.3290114995532  0.4033408093809 1.0
C      1  0.4030604086018  0.5016869204666  0.6966920970498 1.0
C      1  0.4030268725421  0.6695400814129  0.4003715530828 1.0
C      1  0.5969394834588  0.3290114442705  0.4033408346178 1.0
C      1  0.5969400818538  0.5016869118604  0.6966923426334 1.0
C      1  0.5969733716176  0.6695402309815  0.4003715737306 1.0
C      1  0.1817185338012  0.6137801543561  0.6142289069181 1.0
C      1  0.1819141900146  0.3437379679228  0.5416014897127 1.0
C      1  0.1819427304302  0.5420700599556  0.3436331215437 1.0
C      1  0.8182807935050  0.6137733010928  0.6142238914781 1.0
C      1  0.8180853872355  0.3437456102147  0.5415976603194 1.0
C      1  0.8180561195797  0.5420696622217  0.3436409661739 1.0
C      1  0.1817196438578  0.6137687046191  0.3857790095855 1.0
C      1  0.1819152839833  0.3437499014375  0.4584047596238 1.0
C      1  0.1819444128078  0.5420692912618  0.6563539321614 1.0
C      1  0.8182808891271  0.6137758518214  0.3857739704223 1.0
C      1  0.8180857491497  0.3437429717163  0.4584009408703 1.0
C      1  0.8180565803081  0.5420699608850  0.6563617780291 1.0
END
