TITL C-162902-9065-5 -12.071 3375.00 -2440.41557070 0 0 296 (C1) n - 1
REM
REM Run started: at 2020.11.22 04:57:00 in /rds/project/t2_vol4/rds-t2-cs072/BORA/CARBON/AIRSS/Generating-Clusters/Str-Search/Higher-Symm
REM VASP from code version vasp.5.4.4.18Apr17-6-g9f103f2a35 (build Oct 11 2019 16:45:47) gamma-only
REM
REM
REM
REM
REM ./C.cell (e5ae0387ce4d49c7c0135a1433873289)
REM AIRSS Version 0.9.1 bugfix July 2018 build 013d7b7c2542+ Fri, 06 Jul 2018 19:26:36 +0100
REM compiler GCC version 4.8.5 20150623 (Red Hat 4.8.5-39)
REM options -cpp -mtune=generic -march=x86-64 -g -O0
REM seed -845270688 1484546479 658026841 352009300 1600263476 494942260 1176317160 932957929 -1725846871 291517563 498723611 1734859844
REM
REM C.POTCAR (d86ddea03c3ceb6dc662c8ad6801f873)
REM 
CELL 1.54180   15.00000   15.00000   15.00000   90.00000   90.00000   90.00000
LATT -1
SFAC C  
C      1  0.7996251654065  0.5874452624548  0.1299099327809 1.0
C      1  0.8263289801454  0.7517859282297  0.4574187892502 1.0
C      1  0.3551842592989  0.8400080007473  0.7602504750708 1.0
C      1  0.5869607532079  0.8908861478990  0.3069305265676 1.0
C      1  0.8365320144741  0.5837170108406  0.3518789586422 1.0
C      1  0.2257970595550  0.5896835787066  0.8914722949131 1.0
C      1  0.6822893446161  0.5267867463633  0.2143355445044 1.0
C      1  0.6595778298260  0.9230223610072  0.6561714326307 1.0
C      1  0.7287411603987  0.2423326342760  0.2112016355310 1.0
C      1  0.2900749569316  0.8012912023393  0.8152839077914 1.0
C      1  0.6684905290863  0.0009265901593  0.4024494067801 1.0
C      1  0.5025586092430  0.0813200337832  0.4066753061898 1.0
C      1  0.0808084339222  0.6118949626733  0.3318293689813 1.0
C      1  0.5860011132343  0.9430592507921  0.3908919847393 1.0
C      1  0.6639613657565  0.6622318881455  0.1265321791612 1.0
C      1  0.2783327258106  0.3508341466375  0.6807757636909 1.0
C      1  0.7349602523769  0.2312333798356  0.7698480350980 1.0
C      1  0.0858823753042  0.7728851227769  0.5641404986300 1.0
C      1  0.1871992150202  0.5931481790729  0.5290236276354 1.0
C      1  0.1821132208078  0.8271255260401  0.4452073972336 1.0
C      1  0.0028361560686  0.7266450656515  0.5750446807053 1.0
C      1  0.8929445348497  0.4221890590559  0.5178462786835 1.0
C      1  0.0499246272465  0.3423517707140  0.2822224913083 1.0
C      1  0.4195674668459  0.1181466261216  0.3551864765111 1.0
C      1  0.4190710521832  0.4164861294148  0.3182646053200 1.0
C      1  0.7283512030772  0.2977339662704  0.2983766270119 1.0
C      1  0.5498534322455  0.6099654030655  0.5028467044666 1.0
C      1  0.5884230831965  0.5602771670540  0.4357230013491 1.0
C      1  0.1998856765874  0.7958146951247  0.7771548425796 1.0
C      1  0.3103820271268  0.6356631661388  0.4082663010081 1.0
C      1  0.6727960017051  0.7697595901755  0.5423506246205 1.0
C      1  0.5967856366924  0.7593782078696  0.6016729555133 1.0
C      1  0.7467011199975  0.7017404023962  0.7829383728963 1.0
C      1  0.7160966721155  0.3289211166769  0.4451227970898 1.0
C      1  0.5370396963540  0.1225437206091  0.4968457097796 1.0
C      1  0.4054906521297  0.6471717651000  0.6877558469838 1.0
C      1  0.7264937599681  0.7110776006545  0.1938814498911 1.0
C      1  0.5630765166496  0.6327239834586  0.7172206697608 1.0
C      1  0.9011014290648  0.5352073898346  0.6595237776096 1.0
C      1  0.5233633800835  0.4303576345896  0.9462728386463 1.0
C      1  0.2979955750568  0.7275585862751  0.8768587573741 1.0
C      1  0.8620701347992  0.8905937121173  0.5331690200607 1.0
C      1  0.4810046147567  0.4678507970304  0.6653127348651 1.0
C      1  0.5010326747965  0.7524274460915  0.8271165763090 1.0
C      1  0.2482497391788  0.2043419618981  0.4918593730223 1.0
C      1  0.6178294924325  0.4220674486220  0.0864281566871 1.0
C      1  0.7915426754026  0.1389173491201  0.4845102180748 1.0
C      1  0.0309846603427  0.4443858676153  0.2976020593144 1.0
C      1  0.6306965717794  0.2976940173598  0.3225123600956 1.0
C      1  0.5988889832822  0.2176530912671  0.1355321703128 1.0
C      1  0.1530395752946  0.7223593990776  0.8129673656423 1.0
C      1  0.3648603306599  0.3256212792866  0.9965548979222 1.0
C      1  0.5737313698917  0.0542792713235  0.5729148225778 1.0
C      1  0.8754875618496  0.4864424686141  0.5822343056651 1.0
C      1  0.7329961400653  0.3422552604003  0.5486566580694 1.0
C      1  0.3204672775000  0.6983406078053  0.1133816244746 1.0
C      1  0.6218820685717  0.4222483065745  0.8202081993529 1.0
C      1  0.5768256092537  0.8634242669183  0.2292342767159 1.0
C      1  0.9149256710209  0.7578542257887  0.6049516225523 1.0
C      1  0.6073083170204  0.5579252641735  0.5683693190494 1.0
C      1  0.3236887053440  0.3265077644699  0.5951715329371 1.0
C      1  0.6167260533459  0.3821217631064  0.1779579391522 1.0
C      1  0.1242271266854  0.3661826844963  0.8125473932031 1.0
C      1  0.6065295870667  0.5460032383387  0.3483555732524 1.0
C      1  0.3776648964115  0.6332449405468  0.0762315546337 1.0
C      1  0.7183883581794  0.4208292307469  0.3886953150923 1.0
C      1  0.4140656256037  0.4520636570954  0.8070800408902 1.0
C      1  0.8784843110310  0.3280882283106  0.5063264631423 1.0
C      1  0.2043722409213  0.8321879530239  0.6897609414856 1.0
C      1  0.6455684166724  0.4421399381516  0.6720495696636 1.0
C      1  0.4842514039951  0.7621338585703  0.1203377630342 1.0
C      1  0.3113406852353  0.6609217004344  0.6915061081945 1.0
C      1  0.4882199046572  0.9812058575074  0.4107132066226 1.0
C      1  0.6427081465393  0.2808509914718  0.9008470606920 1.0
C      1  0.5243511637663  0.1883771187053  0.6422050282754 1.0
C      1  0.8726552288625  0.5118599287126  0.2922021132445 1.0
C      1  0.3943527339594  0.1134829840545  0.2036384513075 1.0
C      1  0.3487265999550  0.4063159355698  0.2523644044438 1.0
C      1  0.1696855639595  0.3312893077021  0.6609172398951 1.0
C      1  0.7865784755275  0.5853170013354  0.4290913714275 1.0
C      1  0.7308870814011  0.5227194061964  0.8941171138222 1.0
C      1  0.5995578328325  0.3715467621008  0.9033306525912 1.0
C      1  0.6952608356813  0.1848875950818  0.6219082922369 1.0
C      1  0.3107345869236  0.4618821692650  0.7911994475105 1.0
C      1  0.4570189070654  0.6230617468193  0.2505336561690 1.0
C      1  0.3190657989844  0.0905782021940  0.3548525811471 1.0
C      1  0.4539754535673  0.0650892791183  0.2721477433362 1.0
C      1  0.3060643198305  0.8869965272472  0.5843488654668 1.0
C      1  0.5150480710424  0.6499267991782  0.0002417918177 1.0
C      1  0.8266597108306  0.6786709772355  0.7316501101055 1.0
C      1  0.1650451480486  0.2364022552507  0.6317070823056 1.0
C      1  0.5865494559756  0.4098187179634  0.5327127259989 1.0
C      1  0.4280700541687  0.4426181935477  0.9062098634999 1.0
C      1  0.0642478651713  0.4616828308379  0.6825539491520 1.0
C      1  0.2874457873482  0.3746016726413  0.8456967159235 1.0
C      1  0.4208402886378  0.2059936176208  0.8901408836158 1.0
C      1  0.7645462641710  0.1516573825730  0.3923857016883 1.0
C      1  0.6949629850900  0.3521007336256  0.9460948280970 1.0
C      1  0.4199834890485  0.1922367871990  0.1494879774510 1.0
C      1  0.5676766279748  0.5071068949058  0.8149080082381 1.0
C      1  0.6908666361098  0.3607379184793  0.0495516081558 1.0
C      1  0.5188413958023  0.3830922483867  0.1954371006243 1.0
C      1  0.2215450302281  0.8488150257692  0.3647746783031 1.0
C      1  0.3707388775159  0.4097252714319  0.5582923272266 1.0
C      1  0.2385290211916  0.7005099979716  0.1647210564751 1.0
C      1  0.2083899827534  0.6229200228327  0.2234688553904 1.0
C      1  0.6450250088594  0.8222948871639  0.7834256854844 1.0
C      1  0.4287598097443  0.9657694321584  0.3297074614421 1.0
C      1  0.8204819581587  0.2985508939472  0.5927330040541 1.0
C      1  0.4556401670528  0.9641325539718  0.7227491773624 1.0
C      1  0.7515722358017  0.7971728277793  0.4099567838823 1.0
C      1  0.7483767742621  0.3982337162997  0.2893533996167 1.0
C      1  0.1684925407022  0.6480080960330  0.3100077888899 1.0
C      1  0.3591647274893  0.5008399900761  0.9513731266693 1.0
C      1  0.7298676109611  0.6119704719422  0.0708126053725 1.0
C      1  0.3657371340266  0.3078336401165  0.4494597091936 1.0
C      1  0.3802441870890  0.1551188974131  0.5867144487660 1.0
C      1  0.7124194666254  0.7510117134903  0.3455249237359 1.0
C      1  0.8637571385270  0.4210944419217  0.9036893987400 1.0
C      1  0.4308615425052  0.1939112658120  0.8003063146823 1.0
C      1  0.6336046841583  0.9710244442408  0.5681125657183 1.0
C      1  0.3664973804456  0.4084330321759  0.4637821654299 1.0
C      1  0.3659740277193  0.6635622193680  0.8823425912169 1.0
C      1  0.6536904023328  0.7575398043955  0.1367844353230 1.0
C      1  0.2414550277307  0.1761032731197  0.2362123521881 1.0
C      1  0.4339796615219  0.7213502695285  0.4440255560934 1.0
C      1  0.2778784704533  0.2557647040423  0.1996665615753 1.0
C      1  0.6258330770477  0.2845064771841  0.4720188287246 1.0
C      1  0.3554946786090  0.2668354022431  0.1479548700789 1.0
C      1  0.2184067106697  0.6500335355773  0.3856210990072 1.0
C      1  0.7321864619799  0.4219121261331  0.6207531113363 1.0
C      1  0.5441674960624  0.3421462087110  0.4596056338817 1.0
C      1  0.4601565360439  0.6627501019058  0.8484813705430 1.0
C      1  0.8179211453797  0.4942996510541  0.9243851047031 1.0
C      1  0.7029762175955  0.1407567044876  0.5324813880256 1.0
C      1  0.5623877941693  0.5255386945790  0.9129198501286 1.0
C      1  0.2497503639815  0.5938518785551  0.7250019741855 1.0
C      1  0.3589045126768  0.5284856716409  0.0517271537371 1.0
C      1  0.7698656490886  0.4971705961170  0.1614138282344 1.0
C      1  0.8575112477182  0.7594750921866  0.6819680247566 1.0
C      1  0.7650103127729  0.1716106979524  0.6927630098802 1.0
C      1  0.2650582963525  0.5559745219119  0.5682235903305 1.0
C      1  0.4022295194342  0.9651812513270  0.4649285715647 1.0
C      1  0.2623729071634  0.3001140273393  0.2889930513914 1.0
C      1  0.9435903453104  0.4483426715622  0.3275196524230 1.0
C      1  0.4589526747431  0.2863970740439  0.5052698193956 1.0
C      1  0.0751234581333  0.5308849363843  0.2769785656226 1.0
C      1  0.2637468641559  0.5132301625118  0.0805571207486 1.0
C      1  0.4742949447297  0.4786338357165  0.1783755954992 1.0
C      1  0.1412334803672  0.4779643421953  0.6219103288148 1.0
C      1  0.3863120414764  0.4683993606565  0.3976903955018 1.0
C      1  0.6915436165444  0.8376613229513  0.4788367047258 1.0
C      1  0.7898289995964  0.8297137879098  0.7033734510098 1.0
C      1  0.2654869527221  0.1824976402921  0.3934393974731 1.0
C      1  0.6540722686064  0.9301214432800  0.4735681807288 1.0
C      1  0.6936817230231  0.6912106960579  0.2849090120394 1.0
C      1  0.7329742673759  0.7947573954084  0.7673852634389 1.0
C      1  0.6525188653026  0.6002620531169  0.2804782619420 1.0
C      1  0.1839891517039  0.1945938609684  0.5625615192143 1.0
C      1  0.9021557620979  0.2407937830083  0.2325019028923 1.0
C      1  0.2886355573968  0.7489456918376  0.5316062418145 1.0
C      1  0.4936772025660  0.3574229412352  0.2934787194287 1.0
C      1  0.5677258132588  0.4755868208494  0.6138070843611 1.0
C      1  0.6168891818448  0.1876092631118  0.5030836352193 1.0
C      1  0.3084501711516  0.1112262047367  0.2512150748474 1.0
C      1  0.5837655457197  0.2348518628420  0.2826603713962 1.0
C      1  0.4510393663139  0.0427013143132  0.6855010319421 1.0
C      1  0.6119359711768  0.5924325213391  0.1847424661361 1.0
C      1  0.3772198866889  0.5679127100033  0.2761242904965 1.0
C      1  0.6415961426148  0.1784271584714  0.2199953144072 1.0
C      1  0.6778286791483  0.6200099258237  0.6090383498086 1.0
C      1  0.3486588058115  0.2182200167539  0.7524452598929 1.0
C      1  0.4547366185845  0.8252237143569  0.7835237625060 1.0
C      1  0.1305452984225  0.3632568101790  0.4961847293484 1.0
C      1  0.1640600473127  0.6597195011749  0.4638372626507 1.0
C      1  0.9591465163171  0.3012502059731  0.2782267867375 1.0
C      1  0.5092362116809  0.2325509738687  0.1184935174456 1.0
C      1  0.4711244030601  0.6147847465142  0.7520840556523 1.0
C      1  0.1871139611618  0.5112906350492  0.1126931980680 1.0
C      1  0.5257816533140  0.3197669245958  0.7387896676663 1.0
C      1  0.8255103207575  0.2199343562732  0.2065780029650 1.0
C      1  0.1589017614101  0.8179051735479  0.6066764862942 1.0
C      1  0.4043782937897  0.4806286343550  0.2439880338746 1.0
C      1  0.2976600116658  0.8655687136865  0.6758934386429 1.0
C      1  0.6048665765891  0.8878036565059  0.7280267032153 1.0
C      1  0.8337216749037  0.2009399673823  0.6223217959931 1.0
C      1  0.9104002580639  0.3549461721468  0.3427498753693 1.0
C      1  0.6256966062553  0.3662290716168  0.7390999889376 1.0
C      1  0.3317174314355  0.3141953488428  0.7648308098134 1.0
C      1  0.3745772350166  0.0856163320829  0.6464271914399 1.0
C      1  0.2302958083868  0.8330094423693  0.5358431564131 1.0
C      1  0.7536039710346  0.9038708771947  0.6548806306391 1.0
C      1  0.1512120302448  0.3884590986790  0.5792405663601 1.0
C      1  0.8753974829872  0.7980288975465  0.5201328597664 1.0
C      1  0.1931472478109  0.3541364902919  0.8572720944191 1.0
C      1  0.4690624736846  0.3663814734333  0.6732830217613 1.0
C      1  0.8198042927430  0.6534745606112  0.1933292941993 1.0
C      1  0.2094651023707  0.6826050374121  0.8771083422815 1.0
C      1  0.6620689820523  0.4360891773725  0.2489218617061 1.0
C      1  0.3939168700359  0.8637716596831  0.3333584406495 1.0
C      1  0.4887982838025  0.2574850485649  0.2984729855809 1.0
C      1  0.8610564091057  0.6126971846718  0.2696715557524 1.0
C      1  0.6140637877451  0.0993223050612  0.7279175732216 1.0
C      1  0.6951737416845  0.0867149124070  0.3628240927391 1.0
C      1  0.3390102326779  0.1697676761278  0.6740818752296 1.0
C      1  0.1171436465533  0.7527269036245  0.4684816007581 1.0
C      1  0.4399056414486  0.7682846616776  0.3558755542914 1.0
C      1  0.1532095994940  0.5332166311233  0.2060653526774 1.0
C      1  0.6359570262882  0.3215132600566  0.5642737279249 1.0
C      1  0.1977426719552  0.2228510207706  0.3190120101413 1.0
C      1  0.4282784425705  0.7689649730751  0.2051063783898 1.0
C      1  0.4269631638370  0.3613545556575  0.7631310836222 1.0
C      1  0.6613370536067  0.2187645996859  0.8337170113128 1.0
C      1  0.2175222322366  0.7803908413973  0.2075470080197 1.0
C      1  0.3936956250132  0.3479100471029  0.0912224938998 1.0
C      1  0.5150134447192  0.5724054425193  0.1972805828853 1.0
C      1  0.5447596457808  0.0807264346864  0.3103413066215 1.0
C      1  0.8120029462277  0.9317762055380  0.5847094898378 1.0
C      1  0.6429738604657  0.4974033401158  0.4952830769359 1.0
C      1  0.4207627020162  0.2142301511058  0.3358166177672 1.0
C      1  0.8224145503848  0.4820885156222  0.5053445352737 1.0
C      1  0.6617695165679  0.6671433525649  0.8139257063590 1.0
C      1  0.5226964967560  0.8128591812313  0.5900666370291 1.0
C      1  0.6061402039842  0.6803514491686  0.6516312096064 1.0
C      1  0.0060862870632  0.6483818594658  0.5155027841980 1.0
C      1  0.3365607701696  0.2581097750874  0.3644742973126 1.0
C      1  0.6305982933595  0.1033968426302  0.2881617784651 1.0
C      1  0.4509433390334  0.7183210452187  0.2799681297248 1.0
C      1  0.6919976586160  0.5143452646675  0.7298580784374 1.0
C      1  0.5395704000122  0.0889659609629  0.6599822224477 1.0
C      1  0.6977534082673  0.0947298135497  0.6772747411426 1.0
C      1  0.4307697056353  0.4582523619749  0.0902446987169 1.0
C      1  0.6564026244326  0.5397053843157  0.9449316798449 1.0
C      1  0.5137045696035  0.6122736754565  0.9221641398381 1.0
C      1  0.4900651161295  0.3315277897872  0.1047601499066 1.0
C      1  0.4642819313832  0.8654537337040  0.5685074484451 1.0
C      1  0.7841293712527  0.6643222323752  0.4816761787233 1.0
C      1  0.9996727366227  0.5292191222898  0.6562095815626 1.0
C      1  0.4063542385862  0.6471728682129  0.5855322039362 1.0
C      1  0.8543700121287  0.1532384799922  0.5466453877525 1.0
C      1  0.2605940292591  0.3981490408881  0.2717115784251 1.0
C      1  0.6094823889305  0.2281596976834  0.6028867616212 1.0
C      1  0.0285456482591  0.5736656535805  0.5737171496939 1.0
C      1  0.1161714383281  0.5463429579598  0.5604792527512 1.0
C      1  0.5949857163819  0.1707298802005  0.7826893061997 1.0
C      1  0.2992750093750  0.4510698333675  0.6908818664881 1.0
C      1  0.3579755946595  0.5599256323921  0.5736167020900 1.0
C      1  0.8346823893679  0.5916682381108  0.6893437929806 1.0
C      1  0.2641228955018  0.5479466898395  0.8113182584325 1.0
C      1  0.3087762805779  0.8949648467070  0.3579043281797 1.0
C      1  0.3866642330196  0.2465755661973  0.9563922200793 1.0
C      1  0.3891619794853  0.9122797114140  0.5386759509777 1.0
C      1  0.7402347342597  0.4957699983092  0.4551472888438 1.0
C      1  0.1970896850353  0.8191142820396  0.2789382394157 1.0
C      1  0.6954139844117  0.5359703650437  0.0310262147587 1.0
C      1  0.8149349244855  0.4512264834637  0.2395824503735 1.0
C      1  0.2278058332122  0.4847434455052  0.2543220780582 1.0
C      1  0.7169049557983  0.6830629331954  0.5425944258847 1.0
C      1  0.2319858006557  0.5155682663041  0.6544925813258 1.0
C      1  0.7182489093404  0.4554518787610  0.0794201306122 1.0
C      1  0.4255559497617  0.3335758608196  0.5899214975252 1.0
C      1  0.3406051974133  0.3964665868529  0.9317472824528 1.0
C      1  0.3187159159488  0.6987972254130  0.6002083456886 1.0
C      1  0.1163376943657  0.2880560921919  0.3387414472844 1.0
C      1  0.6252373335255  0.4486492759529  0.3411546702913 1.0
C      1  0.7748831098390  0.2589206729925  0.3835702412694 1.0
C      1  0.7822106942742  0.3563169859854  0.6711717254356 1.0
C      1  0.5214825701256  0.4173575804287  0.0452817661064 1.0
C      1  0.5136571896147  0.2178788959992  0.7448582107693 1.0
C      1  0.0677160525742  0.6612574209284  0.4340687886457 1.0
C      1  0.3659416885086  0.5601541078237  0.3743777253837 1.0
C      1  0.5746456937674  0.8040841848443  0.1525948754488 1.0
C      1  0.5091157987947  0.8944798690351  0.7458172090280 1.0
C      1  0.8621294970978  0.3068254007573  0.4134913696585 1.0
C      1  0.4677775445050  0.1886302195295  0.5483672916499 1.0
C      1  0.3846873618531  0.4806828827542  0.6246880926859 1.0
C      1  0.3216954467856  0.5789786826414  0.9012628985972 1.0
C      1  0.7449671400215  0.5609146852789  0.6616527576693 1.0
C      1  0.7679516811894  0.3998526069088  0.8877563111626 1.0
C      1  0.2808846294314  0.5618369423264  0.2519757583676 1.0
C      1  0.4806912471758  0.5109625743251  0.7603223267706 1.0
C      1  0.3379998917763  0.7101683319792  0.4555095746891 1.0
C      1  0.5679210519298  0.3690190666338  0.3587226952900 1.0
C      1  0.6762868963002  0.0595341929046  0.5834048990793 1.0
C      1  0.6684871135101  0.2960104040646  0.1365591906467 1.0
C      1  0.3400590086342  0.9884758479574  0.3822846050918 1.0
C      1  0.4738692912516  0.6666932809819  0.5088889560207 1.0
C      1  0.6254447425701  0.5793228218599  0.7725456283955 1.0
C      1  0.0966150116736  0.3803160670494  0.7257714342158 1.0
C      1  0.4689582532771  0.6773682418511  0.0689295458864 1.0
C      1  0.3794473665013  0.7799995480419  0.1321404232830 1.0
C      1  0.3015631742547  0.2748025199698  0.5165008196898 1.0
C      1  0.1206050050762  0.3252355512922  0.4213003913739 1.0
C      1  0.7239957126697  0.3184952943990  0.7348114044509 1.0
C      1  0.7140922067676  0.4612979623026  0.8191406758416 1.0
C      1  0.5967088894114  0.7487034887487  0.8212046960175 1.0
END
