TITL C-168030-6353-6 -2.912 3375.00 -509.41641061 0 0 60 (D5h) n - 1
REM
REM Run started: at 2020.12.16 05:07:45 in /rds/project/t2_vol4/rds-t2-cs072/BORA/CARBON/AIRSS/Generating-Clusters/Str-Search/Higher-Symm/Only-C60
REM VASP from code version vasp.5.4.4.18Apr17-6-g9f103f2a35 (build Oct 11 2019 16:45:47) gamma-only
REM
REM
REM
REM
REM ./C.cell (5f7b7a0d59291d2373303da1f58b8d66)
REM AIRSS Version 0.9.1 bugfix July 2018 build 013d7b7c2542+ Fri, 06 Jul 2018 19:26:36 +0100
REM compiler GCC version 4.8.5 20150623 (Red Hat 4.8.5-39)
REM options -cpp -mtune=generic -march=x86-64 -g -O0
REM seed 1051616614 -434782203 375881140 1498646543 149206961 -972753275 116346322 -1663293327 -1168029687 2049635542 -992740522 598222367
REM
REM C.POTCAR (d86ddea03c3ceb6dc662c8ad6801f873)
REM 
CELL 1.54180   15.00000   15.00000   15.00000   90.00000   90.00000   90.00000
LATT -1
SFAC C  
C      1  0.4583795530163  0.2619202648901  0.4071851660303 1.0
C      1  0.7135027718727  0.3871484038731  0.4071506473270 1.0
C      1  0.6733749337747  0.6681054711273  0.4071382478200 1.0
C      1  0.3935939818792  0.7168665475399  0.4071180849997 1.0
C      1  0.2609273557471  0.4661644929188  0.4071802320699 1.0
C      1  0.4583794793385  0.2619201549370  0.5928148238612 1.0
C      1  0.7135026942726  0.3871483733541  0.5928492967584 1.0
C      1  0.6733748595895  0.6681053833878  0.5928617099079 1.0
C      1  0.3935938864781  0.7168666186448  0.5928821019325 1.0
C      1  0.2609271517124  0.4661644157839  0.5928199055975 1.0
C      1  0.4706487595503  0.6746741282717  0.3621011360519 1.0
C      1  0.3247837311447  0.5262991392657  0.3621024835940 1.0
C      1  0.4209866964191  0.3412827644088  0.3621031814507 1.0
C      1  0.6264598359796  0.3756688995850  0.3620592412620 1.0
C      1  0.6573183706331  0.5818053635682  0.3620269073006 1.0
C      1  0.4706486756792  0.6746740773856  0.6378989186725 1.0
C      1  0.3247835248839  0.5262990726457  0.6378976298684 1.0
C      1  0.4209865510311  0.3412826220881  0.6378967977565 1.0
C      1  0.6264597488579  0.3756688346193  0.6379406844009 1.0
C      1  0.6573182592305  0.5818052813770  0.6379730048747 1.0
C      1  0.5297986900173  0.7394468613441  0.5928666952016 1.0
C      1  0.2812822169938  0.6026034493317  0.5929160818961 1.0
C      1  0.3349525352899  0.3239191997938  0.5928556034817 1.0
C      1  0.6166270024411  0.2885067792292  0.5928585859384 1.0
C      1  0.7372800889262  0.5457403419668  0.5929044628362 1.0
C      1  0.5297987324291  0.7394469483722  0.4071333179195 1.0
C      1  0.2812823632705  0.6026034487705  0.4070840809225 1.0
C      1  0.3349527046723  0.3239193574383  0.4071444650189 1.0
C      1  0.6166269942331  0.2885069081863  0.4071414422598 1.0
C      1  0.7372802010102  0.5457403886166  0.4070954604258 1.0
C      1  0.5414952934918  0.2517596845660  0.4496952168582 1.0
C      1  0.7488206373825  0.4630007692653  0.4497108022824 1.0
C      1  0.6120676138561  0.7249327921276  0.4497248528995 1.0
C      1  0.3205230560267  0.6762993573401  0.4497208449966 1.0
C      1  0.2770157253599  0.3841077837068  0.4497406863800 1.0
C      1  0.5414952709072  0.2517596031275  0.5503048179058 1.0
C      1  0.7488205970507  0.4630007400037  0.5502891540510 1.0
C      1  0.6120675814321  0.7249327595162  0.5502751458886 1.0
C      1  0.3205229707838  0.6762993820634  0.5502793470645 1.0
C      1  0.2770156054841  0.3841077174990  0.5502594377659 1.0
C      1  0.4178902506130  0.5121093361644  0.6567617498861 1.0
C      1  0.4631173169885  0.4254087099895  0.6567946702398 1.0
C      1  0.5594573856864  0.4416514307359  0.6568844756914 1.0
C      1  0.5738511418105  0.5383065459667  0.6568532179991 1.0
C      1  0.4862809011897  0.5818163347032  0.6567986783742 1.0
C      1  0.4178904385299  0.5121094341554  0.3432382025738 1.0
C      1  0.4631174915605  0.4254088228371  0.3432052397883 1.0
C      1  0.5594575478307  0.4416515317299  0.3431153298736 1.0
C      1  0.5738513250546  0.5383066575966  0.3431464166179 1.0
C      1  0.4862810675763  0.5818164290046  0.3432012339899 1.0
C      1  0.3748714665358  0.2495607684132  0.5460669919225 1.0
C      1  0.6996550527052  0.3039077708710  0.5460602933399 1.0
C      1  0.7483438953381  0.6293349880568  0.5460612588027 1.0
C      1  0.4537216971751  0.7760463760485  0.5460794965238 1.0
C      1  0.2229719212068  0.5416051275473  0.5460775254222 1.0
C      1  0.3748715049627  0.2495607791818  0.4539329297943 1.0
C      1  0.6996550491616  0.3039078290337  0.4539397015758 1.0
C      1  0.7483439484769  0.6293350282139  0.4539386977635 1.0
C      1  0.4537217336193  0.7760463580333  0.4539206371232 1.0
C      1  0.2229719618292  0.5416051597798  0.4539225491687 1.0
END
