TITL C-164420-5984-7 -10.188 3375.00 -1867.88342757 0 0 227 (C1) n - 1
REM
REM Run started: at 2020.11.26 11:38:40 in /rds/project/t2_vol4/rds-t2-cs072/BORA/CARBON/AIRSS/Generating-Clusters/Str-Search/Higher-Symm
REM VASP from code version vasp.5.4.4.18Apr17-6-g9f103f2a35 (build Oct 11 2019 16:45:47) gamma-only
REM
REM
REM
REM
REM ./C.cell (e5ae0387ce4d49c7c0135a1433873289)
REM AIRSS Version 0.9.1 bugfix July 2018 build 013d7b7c2542+ Fri, 06 Jul 2018 19:26:36 +0100
REM compiler GCC version 4.8.5 20150623 (Red Hat 4.8.5-39)
REM options -cpp -mtune=generic -march=x86-64 -g -O0
REM seed 1905269418 295864467 453419910 -1504352592 81700173 505478651 -421978507 -647001126 -554951436 -1219469891 413101024 -1598969096
REM
REM C.POTCAR (d86ddea03c3ceb6dc662c8ad6801f873)
REM 
CELL 1.54180   15.00000   15.00000   15.00000   90.00000   90.00000   90.00000
LATT -1
SFAC C  
C      1  0.6111311245933  0.4431701993990  0.5806879490764 1.0
C      1  0.7362587497761  0.6114080914727  0.6185871148070 1.0
C      1  0.4332866809439  0.4993160456569  0.3239840346273 1.0
C      1  0.4402007557686  0.6074791336766  0.4719296262064 1.0
C      1  0.0831864083444  0.4577019995275  0.6068631082137 1.0
C      1  0.5181172123709  0.2442834431222  0.2034756536049 1.0
C      1  0.4488294701252  0.7295814069482  0.6800425976206 1.0
C      1  0.2980395747271  0.2303829134888  0.4201717496536 1.0
C      1  0.8468627432724  0.3787741613136  0.7653307610568 1.0
C      1  0.1494581444809  0.3784140414214  0.2090507196405 1.0
C      1  0.7052450672027  0.8221221355681  0.4030949000228 1.0
C      1  0.6849599046756  0.2139046417797  0.7249631643027 1.0
C      1  0.8922275861097  0.5856119920351  0.6694769818558 1.0
C      1  0.2314893168425  0.7875319511174  0.6058958052216 1.0
C      1  0.1102184243786  0.3015399011697  0.2475922348060 1.0
C      1  0.6205606518841  0.1243710177978  0.5253086817826 1.0
C      1  0.8580002041009  0.6561047999538  0.2449588628866 1.0
C      1  0.3319978861329  0.3897484902054  0.8814308188038 1.0
C      1  0.5303831313706  0.5916847084743  0.5135580564986 1.0
C      1  0.3351636978964  0.3244318828942  0.3794549066297 1.0
C      1  0.5872847091448  0.3089649793889  0.3796755994759 1.0
C      1  0.0615636008374  0.5946907365237  0.3094713032926 1.0
C      1  0.3130630273346  0.3989979101676  0.6047596988537 1.0
C      1  0.6251761592262  0.8757780295093  0.3775397148044 1.0
C      1  0.7061993029476  0.4380580434532  0.0895196300893 1.0
C      1  0.6081331938527  0.4148148874522  0.8488204181153 1.0
C      1  0.5878324018784  0.6603365489110  0.4732256646542 1.0
C      1  0.5507558037297  0.0849163660414  0.5825586420309 1.0
C      1  0.7406627449530  0.2062129464295  0.4547646945441 1.0
C      1  0.2300839131993  0.6421150626260  0.7274606155449 1.0
C      1  0.3878533376588  0.6377149407329  0.2178780242199 1.0
C      1  0.2433104278919  0.2145309082193  0.5024734168284 1.0
C      1  0.6601248011121  0.6442276667915  0.4018249314305 1.0
C      1  0.4603446226039  0.3115284622728  0.2537859679198 1.0
C      1  0.8155818884615  0.2947270100668  0.7392308566210 1.0
C      1  0.6873704343676  0.2512085875437  0.2611951436652 1.0
C      1  0.9278657336999  0.4950777600297  0.6628900123066 1.0
C      1  0.3721941822797  0.8636783247129  0.3270014487415 1.0
C      1  0.2817781993011  0.5671199478294  0.4795689401029 1.0
C      1  0.7658580013172  0.5542462379707  0.3748685193769 1.0
C      1  0.3634738140814  0.6854585159816  0.6815643119902 1.0
C      1  0.7448598955405  0.5148147014983  0.6062884056852 1.0
C      1  0.3588385365965  0.2011295131040  0.2830427805183 1.0
C      1  0.6365744262114  0.0969868292544  0.4376528979895 1.0
C      1  0.8986607512220  0.5344945519560  0.5763509973425 1.0
C      1  0.8321056581613  0.4990452756159  0.3325253386466 1.0
C      1  0.4458312460293  0.1342864649413  0.7219154911301 1.0
C      1  0.2167098430336  0.4019013713662  0.1413475062777 1.0
C      1  0.9094712624448  0.7046091277243  0.3983032768615 1.0
C      1  0.8434027168461  0.3542491529610  0.2792832304824 1.0
C      1  0.2361486621218  0.4890443244508  0.1102718476222 1.0
C      1  0.5973936541156  0.5304776249909  0.2753689209917 1.0
C      1  0.4552426362772  0.7555268421177  0.5131353993643 1.0
C      1  0.5143300609481  0.4708069388701  0.2704224920188 1.0
C      1  0.5540839331967  0.9705290240584  0.6968414730771 1.0
C      1  0.6085015873824  0.8981661057178  0.7076992528722 1.0
C      1  0.2227171266987  0.3919988772303  0.5744561467920 1.0
C      1  0.4207129074300  0.0019750522369  0.3928529250597 1.0
C      1  0.5321304428228  0.5544908340168  0.2201990559347 1.0
C      1  0.2427928572362  0.2534644169770  0.8031955039613 1.0
C      1  0.5149569195294  0.3082606748664  0.6466023925961 1.0
C      1  0.6396300079067  0.8605664307774  0.6177403641108 1.0
C      1  0.7232203875218  0.3058204974352  0.7636235056447 1.0
C      1  0.3651063006648  0.2912369959946  0.2823672621525 1.0
C      1  0.7283017278346  0.7306164802782  0.8017745102270 1.0
C      1  0.5255019330213  0.3827173405941  0.1228144753474 1.0
C      1  0.0578223277568  0.4629128596458  0.5168425090311 1.0
C      1  0.2096774819025  0.2297398875348  0.7151269620447 1.0
C      1  0.5756300924504  0.3143565419803  0.4744960173868 1.0
C      1  0.2646565845813  0.7056965321161  0.6506362691116 1.0
C      1  0.8236261971602  0.4971155634890  0.2340083717846 1.0
C      1  0.3892457466428  0.4417626541635  0.1843370904636 1.0
C      1  0.3801856318089  0.2391643664895  0.5809726942825 1.0
C      1  0.3887486439229  0.0837746852985  0.3490682341070 1.0
C      1  0.3752091299225  0.7950674725658  0.2814811726129 1.0
C      1  0.2232428139180  0.8222273822848  0.4395433522270 1.0
C      1  0.4753954168819  0.4293313888347  0.9644407921478 1.0
C      1  0.1528257468832  0.2446661165174  0.4898076919922 1.0
C      1  0.4884953931715  0.1335926023568  0.6304795861022 1.0
C      1  0.5978609547808  0.6964551051598  0.6763187046768 1.0
C      1  0.2605207463592  0.6773349732835  0.3720870841910 1.0
C      1  0.2115711915088  0.7601171823540  0.3585938595566 1.0
C      1  0.8071604255056  0.4028803733570  0.2065056136561 1.0
C      1  0.8192378280559  0.2618659283701  0.6513003797800 1.0
C      1  0.5978272826361  0.9270107368560  0.5441802138860 1.0
C      1  0.4853499366816  0.7674158529168  0.5995312993050 1.0
C      1  0.8610770699824  0.3428386544773  0.6132848571599 1.0
C      1  0.1895414825047  0.5448395917626  0.7319279414812 1.0
C      1  0.8264912379942  0.3305692452702  0.3671729432692 1.0
C      1  0.6095875588506  0.3418708297521  0.6181155568255 1.0
C      1  0.9150665789342  0.6753253511088  0.4878812312075 1.0
C      1  0.1375569616120  0.7471260972726  0.3062661721330 1.0
C      1  0.2752844060038  0.4128586923091  0.4101944150187 1.0
C      1  0.0975094481378  0.3885332471997  0.2852454090069 1.0
C      1  0.5940292928399  0.3780541557443  0.7639475756563 1.0
C      1  0.5680271835081  0.7812856316638  0.3637958191034 1.0
C      1  0.4885283563635  0.3397023262078  0.4941608478507 1.0
C      1  0.7321962050924  0.3725401988486  0.1512151062870 1.0
C      1  0.4671401904878  0.2229806287271  0.6085881169657 1.0
C      1  0.3875431003808  0.5417748742500  0.8839978242294 1.0
C      1  0.3113051224440  0.5682328428789  0.8285206295462 1.0
C      1  0.0991683008960  0.3046759680000  0.4683027351309 1.0
C      1  0.5007637972846  0.6301550982181  0.7986704965142 1.0
C      1  0.7480585947462  0.3005796208741  0.4172343258027 1.0
C      1  0.5353864954560  0.5093190529190  0.4544715103806 1.0
C      1  0.5265200166965  0.3910649992822  0.8935556260994 1.0
C      1  0.3266267694625  0.6266585275687  0.7504007241186 1.0
C      1  0.7649572432823  0.8134264757884  0.4697368081527 1.0
C      1  0.7022243203115  0.1500095477143  0.3935270160792 1.0
C      1  0.7390380314382  0.8293523838917  0.6400784751195 1.0
C      1  0.0487130621227  0.5283688458871  0.3698786447892 1.0
C      1  0.6667911177598  0.7402013019884  0.3542805494102 1.0
C      1  0.1511517536034  0.3920496149036  0.6428690648663 1.0
C      1  0.8801267836309  0.6816978899955  0.6552949616872 1.0
C      1  0.3347310398760  0.6510496885614  0.5937536168062 1.0
C      1  0.2735593257876  0.6685139386113  0.8229980888486 1.0
C      1  0.3585109066723  0.1719114381392  0.7391258580694 1.0
C      1  0.4287425699275  0.1341444689599  0.2769194389162 1.0
C      1  0.4611505960671  0.5940657339384  0.1598588966667 1.0
C      1  0.5311081392647  0.5026568718602  0.5586275518266 1.0
C      1  0.3246924882245  0.1613994623884  0.3635999839461 1.0
C      1  0.1399827924280  0.4909758286416  0.6723111113030 1.0
C      1  0.4589811113362  0.3674751023274  0.5867493523418 1.0
C      1  0.6733817258124  0.3008153513095  0.3474481290043 1.0
C      1  0.4537893503402  0.5414528427928  0.4076618953441 1.0
C      1  0.4849634847889  0.4412862149281  0.0571710956509 1.0
C      1  0.0365910642004  0.5523800826916  0.4718320065900 1.0
C      1  0.4708215157146  0.3348788882509  0.8301508682266 1.0
C      1  0.7563691757557  0.6424067397200  0.7888023893778 1.0
C      1  0.4976521868975  0.3146974884467  0.3453528172152 1.0
C      1  0.6900434227745  0.5150885702161  0.0629130712613 1.0
C      1  0.2742386163716  0.3242411052914  0.0984889167918 1.0
C      1  0.2315439175759  0.3968819535819  0.4866380113846 1.0
C      1  0.2679834692297  0.5659721294496  0.1524204628501 1.0
C      1  0.5307283789511  0.1407666978393  0.7661712188831 1.0
C      1  0.5000944580303  0.7423270151431  0.1962248086180 1.0
C      1  0.0628146203886  0.4340567024944  0.3621517778054 1.0
C      1  0.5795282772381  0.9307827956012  0.4492856295980 1.0
C      1  0.3086208546576  0.5782092447272  0.2432488188142 1.0
C      1  0.1365509239933  0.6967508601376  0.5078756321564 1.0
C      1  0.6612551162591  0.5493735097521  0.3527637487504 1.0
C      1  0.5133135891805  0.9968991066860  0.4055283263844 1.0
C      1  0.3810117637660  0.3095438078767  0.8508254811894 1.0
C      1  0.6736739961676  0.4689616912262  0.6588581225212 1.0
C      1  0.3898787809714  0.4566554412922  0.9200311971952 1.0
C      1  0.2837599190253  0.8991648059789  0.4527902023949 1.0
C      1  0.0656283436317  0.3931714304981  0.4511969446522 1.0
C      1  0.7615737778001  0.3936968100554  0.8195966758399 1.0
C      1  0.2413772799295  0.5039342330079  0.8017738868708 1.0
C      1  0.4110858653965  0.7251772110600  0.2332508103968 1.0
C      1  0.5174431564133  0.6888990171476  0.7289923705346 1.0
C      1  0.8919983289518  0.6980239720862  0.3164645728851 1.0
C      1  0.1640574458816  0.3208191956488  0.7113538002681 1.0
C      1  0.7487222146867  0.6138911874485  0.4423830862736 1.0
C      1  0.2819163001892  0.9243148874625  0.5430941872360 1.0
C      1  0.3145793345485  0.5593099446541  0.5657438014478 1.0
C      1  0.4857871861123  0.7845074771444  0.9025013428095 1.0
C      1  0.6515018986415  0.6254790925021  0.6668540661143 1.0
C      1  0.7182534283037  0.7401360980101  0.5156228660822 1.0
C      1  0.7273671165453  0.3594873261599  0.4998308135178 1.0
C      1  0.3704746676352  0.3315354428372  0.5936790687026 1.0
C      1  0.3210912487554  0.5326033553841  0.0836580513703 1.0
C      1  0.4772733539009  0.3992133421256  0.2079249575963 1.0
C      1  0.2669156898373  0.8728183575923  0.6076683087447 1.0
C      1  0.6567958482602  0.8462574425308  0.7710304342185 1.0
C      1  0.2942810463014  0.1908798124104  0.5776934188467 1.0
C      1  0.7380060036608  0.2092796937427  0.6391549643583 1.0
C      1  0.6490561394786  0.7848213959847  0.8425573604681 1.0
C      1  0.8122270702306  0.3868836790444  0.5488172787636 1.0
C      1  0.7908843472928  0.7995114918056  0.5620659982845 1.0
C      1  0.3194706168393  0.3768625142273  0.1531426296877 1.0
C      1  0.4180096172581  0.5078260535313  0.1072186907375 1.0
C      1  0.6595960886858  0.7776584351711  0.2598111083000 1.0
C      1  0.5164184514309  0.3299679694731  0.7469405848890 1.0
C      1  0.6468144402630  0.5930466794950  0.0586669101534 1.0
C      1  0.6899753637398  0.2003179214643  0.5462856791068 1.0
C      1  0.0972501384961  0.6260007610229  0.4963686741575 1.0
C      1  0.3555316017219  0.9249056661043  0.3932885338291 1.0
C      1  0.0936408652291  0.6726797345705  0.2951346583142 1.0
C      1  0.4354208190899  0.3318022070345  0.4118273001893 1.0
C      1  0.3605491051150  0.4828404405180  0.6007850801630 1.0
C      1  0.2784297811458  0.1807238103774  0.6731662451672 1.0
C      1  0.3339829331844  0.2353109576703  0.8119711756778 1.0
C      1  0.5197771214496  0.6769212884506  0.1318300834998 1.0
C      1  0.5684780566581  0.7794793534327  0.8904412075636 1.0
C      1  0.2509578114800  0.4148265263639  0.8332857752321 1.0
C      1  0.3006375234929  0.6609735483491  0.4517636042452 1.0
C      1  0.5747921962734  0.0641062123294  0.3719529757718 1.0
C      1  0.8541382679924  0.7103019253837  0.5622241536508 1.0
C      1  0.7346177962390  0.8049817771461  0.7304219679709 1.0
C      1  0.6089234457011  0.1720645994989  0.7518012713727 1.0
C      1  0.5785623359403  0.3004087804097  0.1499011495426 1.0
C      1  0.5965598091789  0.6535541718081  0.0856201065432 1.0
C      1  0.1917859633358  0.7740069427037  0.5171207995421 1.0
C      1  0.4506497417601  0.4651614091212  0.5957934882788 1.0
C      1  0.4638944605365  0.5896866743561  0.8603697985937 1.0
C      1  0.8938685483962  0.4105005512217  0.6876269810418 1.0
C      1  0.5592353734790  0.7887245462560  0.2583694691375 1.0
C      1  0.7015438433844  0.4593522254374  0.8460331510429 1.0
C      1  0.5907627480528  0.1134341524227  0.2895888520145 1.0
C      1  0.7020341573913  0.5533873838798  0.8021338793779 1.0
C      1  0.6725913082716  0.3001403164240  0.1751756606952 1.0
C      1  0.5597623200267  0.9926418098567  0.6040353380467 1.0
C      1  0.6734127384854  0.1643718379323  0.2983856538851 1.0
C      1  0.5374673928527  0.7476189613441  0.4526905338570 1.0
C      1  0.3813419029913  0.6849441134640  0.5049409860755 1.0
C      1  0.5161906175281  0.1551225371864  0.2429104987266 1.0
C      1  0.9468607582416  0.5883473722576  0.5067909975871 1.0
C      1  0.8148379413926  0.4832741156437  0.5579420427461 1.0
C      1  0.6502772812833  0.2976079123701  0.5392414375084 1.0
C      1  0.6649775317786  0.4387515250506  0.4932900377876 1.0
C      1  0.2618006208879  0.5865639283683  0.3318797992830 1.0
C      1  0.6644995424860  0.3721024245226  0.6977182830239 1.0
C      1  0.3244604254934  0.7379234253968  0.8644731263461 1.0
C      1  0.8617871650421  0.4140682503173  0.3546717327178 1.0
C      1  0.2692245735597  0.5160647107706  0.3987293918688 1.0
C      1  0.6542137890695  0.5460650807459  0.7232968146855 1.0
C      1  0.8059247283592  0.6336732894646  0.6986404723632 1.0
C      1  0.8329902525025  0.5865661095086  0.2039565052461 1.0
C      1  0.6260833773401  0.4897498322393  0.4273243313369 1.0
C      1  0.2037205342112  0.3405885215640  0.7970987095726 1.0
C      1  0.7652751073989  0.6563707037139  0.5323462143048 1.0
C      1  0.3648995752758  0.4958881792133  0.2625916596646 1.0
C      1  0.3970915121150  0.7674691249094  0.8933543803217 1.0
C      1  0.6194994892760  0.7395538261587  0.5207491971532 1.0
C      1  0.5861263185429  0.7691714398646  0.6078934072013 1.0
C      1  0.6259570325614  0.8653458784876  0.2731153933181 1.0
END
