TITL C-16343-8127-40 -8.591 3375.00 -1266.45286919 0 0 154 (C2v) n - 1
REM
REM Run started: at 2021.01.03 13:10:24 in /gpfs/home/chem/mssmkc/CARBON/AIRSS/Generating-Clusters/Str-Search/Higher-Symm/C100-200
REM VASP from code version vasp.5.4.4.18Apr17-6-g9f103f2a35 (build Oct 11 2019 16:45:47) gamma-only
REM
REM
REM
REM
REM ./C.cell (533062f00bc710175b3da973d35f2034)
REM AIRSS Version 0.9.1 bugfix July 2018 build 013d7b7c2542+ Fri, 06 Jul 2018 19:26:36 +0100
REM compiler GCC version 6.3.0
REM options -cpp -iprefix /gpfs/warwick/csc/orac/software/Core/GCCcore/6.3.0/bin/../lib/gcc/x86_64-pc-linux-gnu/6.3.0/ -mtune=generic -march=x86-64 -g -O0
REM seed 1420437160 -1330901514 -1304514016 1936867719 -1904446081 -1504401900 1602868466 -733167347 924301764 29627363 223388272 -1196342779
REM
REM C.POTCAR (d86ddea03c3ceb6dc662c8ad6801f873)
REM 
CELL 1.54180   15.00000   15.00000   15.00000   90.00000   90.00000   90.00000
LATT -1
SFAC C  
C      1  0.3904846970989  0.8451482471156  0.3090020701511 1.0
C      1  0.3904923708242  0.1548498043873  0.6910053088207 1.0
C      1  0.6106514156647  0.8456422835400  0.3087954867924 1.0
C      1  0.6106472794814  0.1543573144565  0.6912074535833 1.0
C      1  0.3904843607578  0.1548487005966  0.3090026293723 1.0
C      1  0.3904914130107  0.8451506718715  0.6910031798511 1.0
C      1  0.6106515400572  0.1543570291309  0.3087973903542 1.0
C      1  0.6106491142772  0.8456460234465  0.6912052960557 1.0
C      1  0.4640103784782  0.5731037407434  0.1180529524964 1.0
C      1  0.4640123019533  0.4268966280556  0.8819464896493 1.0
C      1  0.5529225525084  0.5470023970358  0.1459664249662 1.0
C      1  0.5529242609558  0.4529984821222  0.8540338520299 1.0
C      1  0.4640087109326  0.4268938376754  0.1180512658329 1.0
C      1  0.4640112582268  0.5731067798956  0.8819500981975 1.0
C      1  0.5529214714196  0.4529936031412  0.1459649961148 1.0
C      1  0.5529237875867  0.5470073966489  0.8540358096034 1.0
C      1  0.6891701861865  0.3794739495421  0.8049355497349 1.0
C      1  0.6891705091652  0.6205221941785  0.1950643760741 1.0
C      1  0.3221306760675  0.3737940521249  0.8208306516392 1.0
C      1  0.3221311286326  0.6262050098193  0.1791717751851 1.0
C      1  0.6891701630163  0.6205253299684  0.8049376024399 1.0
C      1  0.6891685023718  0.3794747302589  0.1950618649304 1.0
C      1  0.3221322129561  0.6262070722189  0.8208350312675 1.0
C      1  0.3221296073324  0.3737944356840  0.1791668766214 1.0
C      1  0.4553390036923  0.8470486677593  0.7429508857787 1.0
C      1  0.4553512066435  0.1529501761825  0.2570438861307 1.0
C      1  0.5454490014268  0.8473986599841  0.7427051079723 1.0
C      1  0.5454416994301  0.1526041747434  0.2572910217245 1.0
C      1  0.4553359361918  0.1529527373570  0.7429499374608 1.0
C      1  0.4553497842492  0.8470465777894  0.2570419491318 1.0
C      1  0.5454506095351  0.1526036318747  0.7427050739295 1.0
C      1  0.5454422800607  0.8473951065356  0.2572893173718 1.0
C      1  0.2434351124656  0.6277077883068  0.2013168552909 1.0
C      1  0.2434380320289  0.3722901705689  0.7986845108127 1.0
C      1  0.7706609554518  0.6334571843521  0.2019537186782 1.0
C      1  0.7706605737098  0.3665393604607  0.7980464323380 1.0
C      1  0.2434317508218  0.3722916724866  0.2013161011833 1.0
C      1  0.2434360066757  0.6277081137739  0.7986851372557 1.0
C      1  0.7706598637805  0.3665445419638  0.2019533005878 1.0
C      1  0.7706610829513  0.6334575361110  0.7980469222306 1.0
C      1  0.1476137182393  0.4529189677254  0.5947955454621 1.0
C      1  0.1476129644091  0.5470804443722  0.4052060557543 1.0
C      1  0.8528222503945  0.4526870061304  0.5916875811339 1.0
C      1  0.8528245965965  0.5473137246312  0.4083125270850 1.0
C      1  0.1476142370356  0.5470819285008  0.5947957610410 1.0
C      1  0.1476124842927  0.4529178066251  0.4052060293275 1.0
C      1  0.8528248077633  0.5473145131307  0.5916871708420 1.0
C      1  0.8528240796890  0.4526858885294  0.4083128647892 1.0
C      1  0.7054869495353  0.8164274360113  0.5513071353128 1.0
C      1  0.7054866330010  0.1835740635025  0.4486930445133 1.0
C      1  0.2959052627676  0.8146395761036  0.5514748545174 1.0
C      1  0.2959045445709  0.1853589891869  0.4485241265740 1.0
C      1  0.7054872166704  0.1835732541208  0.5513075709524 1.0
C      1  0.7054865330829  0.8164265427309  0.4486921417507 1.0
C      1  0.2959050322237  0.1853597080558  0.5514748736476 1.0
C      1  0.2959056667630  0.8146389630448  0.4485246569986 1.0
C      1  0.4134388812109  0.3877230122777  0.8112073873072 1.0
C      1  0.4134377842547  0.6122770501657  0.1887939376801 1.0
C      1  0.6012843291031  0.3962563667528  0.7913936540902 1.0
C      1  0.6012844039596  0.6037425502705  0.2086071706201 1.0
C      1  0.4134381948529  0.6122816862127  0.8112090965452 1.0
C      1  0.4134348553117  0.3877196941083  0.1887915134208 1.0
C      1  0.6012840322190  0.6037496887720  0.7913959354457 1.0
C      1  0.6012816415900  0.3962506565550  0.2086028851059 1.0
C      1  0.8192468996538  0.6298657321541  0.7183776790284 1.0
C      1  0.8192458884132  0.3701358488879  0.2816216765417 1.0
C      1  0.1897383834608  0.6277231228877  0.7224032250980 1.0
C      1  0.1897354694121  0.3722763846865  0.2775980342860 1.0
C      1  0.8192442906648  0.3701342897061  0.7183776604658 1.0
C      1  0.8192459681307  0.6298651743057  0.2816225082739 1.0
C      1  0.1897381429632  0.3722759525258  0.7224028450819 1.0
C      1  0.1897367341344  0.6277229002004  0.2775984923882 1.0
C      1  0.2200454413008  0.5855276702699  0.5456129327557 1.0
C      1  0.2200438923826  0.4144714524179  0.4543879632743 1.0
C      1  0.7774955387012  0.5841512281949  0.5458906322643 1.0
C      1  0.7774936919160  0.4158514370870  0.4541091074864 1.0
C      1  0.2200450786724  0.4144718390761  0.5456122218933 1.0
C      1  0.2200450698322  0.5855272479350  0.4543885865148 1.0
C      1  0.7774934724718  0.4158525251464  0.5458890409153 1.0
C      1  0.7774955935668  0.5841490015219  0.4541104670811 1.0
C      1  0.4550536988141  0.6255267604424  0.7204516060425 1.0
C      1  0.4550515528143  0.3744735966204  0.2795473727387 1.0
C      1  0.5494615711337  0.6272519148891  0.7148645863256 1.0
C      1  0.5494581069236  0.3727483662365  0.2851343366252 1.0
C      1  0.4550552442309  0.3744776251041  0.7204511719939 1.0
C      1  0.4550548377624  0.6255227526562  0.2795499612136 1.0
C      1  0.5494604622874  0.3727538827912  0.7148622397043 1.0
C      1  0.5494614973648  0.6272457440755  0.2851379094867 1.0
C      1  0.4503825065484  0.1249248839661  0.4528534921025 1.0
C      1  0.4503831586907  0.8750753387782  0.5471461259552 1.0
C      1  0.5510224166163  0.1244135229561  0.4527968032955 1.0
C      1  0.5510222520535  0.8755872359822  0.5472012910495 1.0
C      1  0.4503825512984  0.8750737089545  0.4528522117589 1.0
C      1  0.4503834131054  0.1249250842798  0.5471465005470 1.0
C      1  0.5510221279539  0.8755861302603  0.4527958308643 1.0
C      1  0.5510216087520  0.1244136511991  0.5472022707522 1.0
C      1  0.1437043261573  0.5533932781503  0.3095879062467 1.0
C      1  0.1437064039554  0.4466067984767  0.6904131692711 1.0
C      1  0.8640043116265  0.5546310547731  0.3141329045688 1.0
C      1  0.8640021705218  0.4453693841651  0.6858671487926 1.0
C      1  0.1437038072118  0.4466059317020  0.3095881958712 1.0
C      1  0.1437070849781  0.5533938891756  0.6904137278915 1.0
C      1  0.8640040337342  0.4453690849730  0.3141324198560 1.0
C      1  0.8640035522828  0.5546320584355  0.6858673848456 1.0
C      1  0.4492662950158  0.3641917468260  0.6177257950804 1.0
C      1  0.4492663211395  0.6358095386214  0.3822734424213 1.0
C      1  0.5493907523725  0.3621771376314  0.6146858472883 1.0
C      1  0.5493914348628  0.6378231775322  0.3853143540338 1.0
C      1  0.4492659009197  0.6358121722604  0.6177281161303 1.0
C      1  0.4492645688424  0.3641880100053  0.3822712365900 1.0
C      1  0.5493931769366  0.6378261844736  0.6146886310093 1.0
C      1  0.5493917155803  0.3621732935852  0.3853102607523 1.0
C      1  0.2898703612346  0.3699249143868  0.4104083745849 1.0
C      1  0.2898715663634  0.6300740222344  0.5895926761987 1.0
C      1  0.7102502868771  0.3690486702226  0.4095074592886 1.0
C      1  0.7102515933396  0.6309530056138  0.5904919444030 1.0
C      1  0.2898704230994  0.6300739929066  0.4104085799939 1.0
C      1  0.2898710089350  0.3699259681062  0.5895918087622 1.0
C      1  0.7102509231938  0.6309515360704  0.4095084453015 1.0
C      1  0.7102505207792  0.3690487325829  0.5904907380667 1.0
C      1  0.3793943177402  0.6342170905710  0.5518739116799 1.0
C      1  0.3793930614118  0.3657830936879  0.4481257663244 1.0
C      1  0.6200025914793  0.6370336915315  0.5515464650442 1.0
C      1  0.6200016534904  0.3629669627434  0.4484528536351 1.0
C      1  0.3793935402435  0.3657841287213  0.5518724667531 1.0
C      1  0.3793936122693  0.6342164882149  0.4481274833653 1.0
C      1  0.6200030485728  0.3629674874320  0.5515442722200 1.0
C      1  0.6200034147398  0.6370324120195  0.4484549693568 1.0
C      1  0.7623705793651  0.7677134549911  0.6069159967797 1.0
C      1  0.7623718348331  0.2322875450593  0.3930844235358 1.0
C      1  0.2401750311928  0.7667640855832  0.6092808190443 1.0
C      1  0.2401749163748  0.2332337501870  0.3907187478565 1.0
C      1  0.7623708977073  0.2322875029161  0.6069150636662 1.0
C      1  0.7623718900027  0.7677120414630  0.3930841901202 1.0
C      1  0.2401750171179  0.2332361082262  0.6092802750680 1.0
C      1  0.2401750621015  0.7667639336357  0.3907188997594 1.0
C      1  0.6272468733012  0.1479302895200  0.5979096386581 1.0
C      1  0.6272471928569  0.8520687614048  0.4020900535373 1.0
C      1  0.3741398207527  0.1491426489376  0.5976318397610 1.0
C      1  0.3741405938263  0.8508546419851  0.4023673196848 1.0
C      1  0.6272476767498  0.8520712227712  0.5979088132553 1.0
C      1  0.6272480367340  0.1479308069702  0.4020916051074 1.0
C      1  0.3741402856386  0.8508574750687  0.5976315100665 1.0
C      1  0.3741397233954  0.1491413160990  0.4023675360957 1.0
C      1  0.2382708929365  0.6884386738245  0.3475215855873 1.0
C      1  0.2382718889038  0.3115598715290  0.6524783669616 1.0
C      1  0.7662809105086  0.6895683592892  0.3501615072398 1.0
C      1  0.7662800043425  0.3104321390128  0.6498377306149 1.0
C      1  0.2382694522025  0.3115593597137  0.3475201549382 1.0
C      1  0.2382719452379  0.6884402445002  0.6524802883125 1.0
C      1  0.7662806590163  0.3104318374367  0.3501610205333 1.0
C      1  0.7662809778347  0.6895693856510  0.6498389641554 1.0
C      1  0.4390653072807  0.5000009591672  0.0467003092565 1.0
C      1  0.4390664902391  0.5000013096065  0.9532996914141 1.0
END
