TITL C-163590-8656-6 -0.804 3375.00 -116.58561251 0 0 15 (C1) n - 1
REM
REM Run started: at 2020.11.27 06:45:16 in /rds/project/t2_vol4/rds-t2-cs072/BORA/CARBON/AIRSS/Generating-Clusters/Str-Search/Higher-Symm/C10-100
REM VASP from code version vasp.5.4.4.18Apr17-6-g9f103f2a35 (build Oct 11 2019 16:45:47) gamma-only
REM
REM
REM
REM
REM ./C.cell (f39ce9773e2efe3fa5bbdf770a4156b8)
REM AIRSS Version 0.9.1 bugfix July 2018 build 013d7b7c2542+ Fri, 06 Jul 2018 19:26:36 +0100
REM compiler GCC version 4.8.5 20150623 (Red Hat 4.8.5-39)
REM options -cpp -mtune=generic -march=x86-64 -g -O0
REM seed -1632142770 2016381478 -1472876906 -400943777 950534184 1040282887 1047549707 -1601073910 2078309420 -778134351 608476788 1282900647
REM
REM C.POTCAR (d86ddea03c3ceb6dc662c8ad6801f873)
REM 
CELL 1.54180   15.00000   15.00000   15.00000   90.00000   90.00000   90.00000
LATT -1
SFAC C  
C      1  0.5627644384856  0.4583765019782  0.4996629574528 1.0
C      1  0.3318072363284  0.3477324593798  0.4994760809593 1.0
C      1  0.4320989062571  0.5856243908689  0.5058709719883 1.0
C      1  0.6602007201741  0.6710771605278  0.4818417279796 1.0
C      1  0.6774236008723  0.5839684416999  0.4853104041560 1.0
C      1  0.3833610450014  0.5058103813755  0.5067261546380 1.0
C      1  0.3335600044933  0.4342220457349  0.4887657037180 1.0
C      1  0.6399312072686  0.5094622938515  0.4859693928569 1.0
C      1  0.5446929125223  0.3666807814064  0.4874034996945 1.0
C      1  0.4021095221212  0.3004919859827  0.4749998398209 1.0
C      1  0.4443553702047  0.6774935824349  0.5059099849079 1.0
C      1  0.6039853466263  0.7334060589164  0.4905627781592 1.0
C      1  0.5154252551411  0.7212248686357  0.4970751935244 1.0
C      1  0.4883489374659  0.3046663973225  0.4988098299017 1.0
C      1  0.4833241970377  0.5078991498850  0.5119637802425 1.0
END
