TITL C-168237-1143-4 -6.714 3375.00 -1058.97691048 0 0 129 (C1) n - 1
REM
REM Run started: at 2021.01.02 19:20:46 in /rds/project/t2_vol4/rds-t2-cs072/BORA/CARBON/AIRSS/Generating-Clusters/Str-Search/Higher-Symm/C100-200
REM VASP from code version vasp.5.4.4.18Apr17-6-g9f103f2a35 (build Oct 11 2019 16:45:47) gamma-only
REM
REM
REM
REM
REM ./C.cell (533062f00bc710175b3da973d35f2034)
REM AIRSS Version 0.9.1 bugfix July 2018 build 013d7b7c2542+ Fri, 06 Jul 2018 19:26:36 +0100
REM compiler GCC version 4.8.5 20150623 (Red Hat 4.8.5-39)
REM options -cpp -mtune=generic -march=x86-64 -g -O0
REM seed -630507763 -1596843199 -480139133 -870291229 172282920 -1833195122 -1056199078 113767975 1163842125 362489711 -803797970 230931099
REM
REM C.POTCAR (d86ddea03c3ceb6dc662c8ad6801f873)
REM 
CELL 1.54180   15.00000   15.00000   15.00000   90.00000   90.00000   90.00000
LATT -1
SFAC C  
C      1  0.5693747232974  0.2367002299554  0.3463655921754 1.0
C      1  0.5736062227086  0.7378225777046  0.6817928089082 1.0
C      1  0.5749136706741  0.2402091741720  0.6842303914380 1.0
C      1  0.5609660095326  0.7374029093350  0.3059419034003 1.0
C      1  0.2871711736059  0.3238892268724  0.5807833029830 1.0
C      1  0.2993188125956  0.6633962571587  0.4269735944878 1.0
C      1  0.2615757857336  0.2789553416657  0.4157161002147 1.0
C      1  0.2952657484802  0.6649699267761  0.5869483612357 1.0
C      1  0.5838853022844  0.7801310921254  0.5954305176218 1.0
C      1  0.5778044082152  0.1789922867986  0.4214436989732 1.0
C      1  0.5680313035373  0.7763195158083  0.3910145028531 1.0
C      1  0.5787966671946  0.1782502131537  0.6101725987504 1.0
C      1  0.6261342149222  0.6548966679679  0.7179658776871 1.0
C      1  0.6403417728813  0.3096525848034  0.3595346848185 1.0
C      1  0.6420744966575  0.6716561318650  0.2930914491543 1.0
C      1  0.6458056604753  0.3044078221825  0.6748841014014 1.0
C      1  0.4173126641760  0.1920465423834  0.5916241324491 1.0
C      1  0.4146294458220  0.7993280610092  0.4153680483608 1.0
C      1  0.4153240069753  0.1765018510694  0.4335869698131 1.0
C      1  0.4219125811824  0.8045089372708  0.5806715547069 1.0
C      1  0.4860389347671  0.7416124470572  0.7219558613321 1.0
C      1  0.4881287776704  0.2481566426803  0.3018449575489 1.0
C      1  0.4741269161668  0.7297953659601  0.2698390240582 1.0
C      1  0.4901648414357  0.2620300596249  0.7235351777876 1.0
C      1  0.6711340976052  0.6223141608409  0.7934751109820 1.0
C      1  0.6901267568690  0.5364493909814  0.2073754363227 1.0
C      1  0.6779491252804  0.6327140515977  0.2061428989431 1.0
C      1  0.6793536053033  0.5252669697091  0.7932960629585 1.0
C      1  0.4380762680362  0.3969219032109  0.8129646810894 1.0
C      1  0.4260270234986  0.5846358248058  0.1973613479364 1.0
C      1  0.4234141648246  0.3577071913207  0.1804161001083 1.0
C      1  0.4319664190029  0.6151381890091  0.8149873655955 1.0
C      1  0.3475166926790  0.5814535896620  0.3237685815756 1.0
C      1  0.3116906063478  0.4021588171552  0.7223055856606 1.0
C      1  0.3470408105994  0.6050170344347  0.7038099231084 1.0
C      1  0.3153061620726  0.3601535139177  0.2908155763529 1.0
C      1  0.2075062839961  0.6157015713159  0.5617267183234 1.0
C      1  0.2049801611229  0.3592047626131  0.4066526008578 1.0
C      1  0.2115695725844  0.6219113875703  0.4496950593897 1.0
C      1  0.2093622726533  0.3786374116379  0.6134043654008 1.0
C      1  0.5284948800801  0.4052291511434  0.2759415783993 1.0
C      1  0.5220369171261  0.5643937917547  0.6310532892560 1.0
C      1  0.5304535164434  0.4059709222891  0.6133595048712 1.0
C      1  0.5225208788819  0.5563864025503  0.3592300744694 1.0
C      1  0.6096260949819  0.5732732801009  0.3293088683417 1.0
C      1  0.6104047103556  0.4009349454950  0.6720426385633 1.0
C      1  0.6006091458016  0.5684928882544  0.6763415395711 1.0
C      1  0.6175802537153  0.4044394429122  0.3190021494612 1.0
C      1  0.8656724750931  0.3430834521098  0.5620279849493 1.0
C      1  0.8691708883321  0.6614814179704  0.3675614287738 1.0
C      1  0.8678809523109  0.3455738766864  0.4680245679307 1.0
C      1  0.8600458739894  0.6754041909178  0.4652358383740 1.0
C      1  0.3721624639575  0.4551895223279  0.7792085952020 1.0
C      1  0.3923793909555  0.5147486491338  0.2589263499664 1.0
C      1  0.3631101604544  0.4141890159847  0.2315858507978 1.0
C      1  0.3734583543065  0.5504568753807  0.7793197272501 1.0
C      1  0.3321137278453  0.6980198913231  0.6759328146990 1.0
C      1  0.3231815292792  0.2722439409602  0.3386455278370 1.0
C      1  0.3353266569849  0.6774812402465  0.3351193384714 1.0
C      1  0.3498214400948  0.3252928851148  0.6614818119450 1.0
C      1  0.1049932796621  0.6246442817051  0.5605123412025 1.0
C      1  0.1414498983162  0.3906976755007  0.4630275245102 1.0
C      1  0.1417011068260  0.6726715724417  0.4897309874819 1.0
C      1  0.1391426838931  0.3948765625366  0.5559434139357 1.0
C      1  0.7107455588460  0.2639986324235  0.6102957842599 1.0
C      1  0.7059549398841  0.7145844208124  0.3638127245053 1.0
C      1  0.7126822258442  0.2629332106487  0.4185726022064 1.0
C      1  0.7539051809311  0.7715864056317  0.5495708685383 1.0
C      1  0.6915139127946  0.5126080847147  0.8847199725235 1.0
C      1  0.6825208168738  0.6475247815524  0.1152507342643 1.0
C      1  0.7062937511725  0.5146819544062  0.1142046185366 1.0
C      1  0.6884455872904  0.6443085780813  0.8879943530538 1.0
C      1  0.3680164856513  0.5820747410123  0.4238700576244 1.0
C      1  0.3768050182964  0.3813248143228  0.5801645665680 1.0
C      1  0.3682197764682  0.5871518883836  0.6093619420135 1.0
C      1  0.3389990541813  0.4394683113961  0.4162904326207 1.0
C      1  0.6444052101061  0.7401235312781  0.4353846831024 1.0
C      1  0.6585657218445  0.1979866942213  0.5616804078619 1.0
C      1  0.6600635944488  0.7549926539904  0.5364160309153 1.0
C      1  0.6580351871084  0.1994312386929  0.4684491434199 1.0
C      1  0.5010478264206  0.1505864980559  0.4672081537157 1.0
C      1  0.5094189113819  0.8155964363953  0.5467105228306 1.0
C      1  0.5015562605531  0.1539508733907  0.5640589797202 1.0
C      1  0.5027795601705  0.8144273363656  0.4456032871165 1.0
C      1  0.4063640103023  0.7609970519639  0.6661074627134 1.0
C      1  0.4044845380747  0.2210370073998  0.3481902926359 1.0
C      1  0.3996353783800  0.7499257617259  0.3308323335080 1.0
C      1  0.4124818248943  0.2476775942309  0.6682593752129 1.0
C      1  0.8110858846586  0.7549562637601  0.4852963615219 1.0
C      1  0.7917615480291  0.2786475884137  0.4642492471453 1.0
C      1  0.7959068871195  0.7212818189540  0.3824288366744 1.0
C      1  0.7901420007173  0.2783493150749  0.5637084486888 1.0
C      1  0.4342554722994  0.4256386340547  0.3960504206543 1.0
C      1  0.4683999896577  0.6265264750875  0.5831694434512 1.0
C      1  0.4718631224000  0.3595621821556  0.5422978385217 1.0
C      1  0.4722583874220  0.5998087576999  0.4271997394430 1.0
C      1  0.4677014164124  0.6888654374095  0.7976331926220 1.0
C      1  0.4837938568219  0.3276605632006  0.2452181568852 1.0
C      1  0.4564023010814  0.6608619435482  0.2074371520606 1.0
C      1  0.4766993373197  0.3279827569527  0.7885181360197 1.0
C      1  0.2708098418916  0.4130837098196  0.3595511520192 1.0
C      1  0.2299762372482  0.4286639769326  0.6903570178756 1.0
C      1  0.3136449428690  0.7187700358817  0.5056980898615 1.0
C      1  0.2898167402496  0.2564620594930  0.5046262542416 1.0
C      1  0.6332512047323  0.6605276630320  0.4999808487830 1.0
C      1  0.5933002682734  0.3848310592245  0.4201657069007 1.0
C      1  0.5180409829877  0.6357256443498  0.5022190452663 1.0
C      1  0.4959472210404  0.3834772311650  0.4521348782156 1.0
C      1  0.4728636314637  0.4781227877917  0.3174462505839 1.0
C      1  0.4822095767460  0.4845080249643  0.6062368733957 1.0
C      1  0.6536632272611  0.4983132439783  0.2858957310725 1.0
C      1  0.6368433594469  0.4853061688846  0.7132120645205 1.0
C      1  0.8347378369215  0.4304506966656  0.5229573930646 1.0
C      1  0.8132084687469  0.5959819227161  0.4997836172771 1.0
C      1  0.7398468331347  0.4350972425917  0.5150316404561 1.0
C      1  0.7122975484535  0.5961124142925  0.5031168923135 1.0
C      1  0.6995403181261  0.5788000471244  0.0491292399025 1.0
C      1  0.6971543806189  0.5810157088573  0.9528643978274 1.0
C      1  0.3662522501399  0.7905905395031  0.5010344382566 1.0
C      1  0.3621752179724  0.1985821026295  0.5111840189431 1.0
C      1  0.3843929213537  0.4883137456863  0.5719471487738 1.0
C      1  0.0532543346838  0.5412911704425  0.5279727964519 1.0
C      1  0.1345272988442  0.4809416382251  0.5042114957447 1.0
C      1  0.9663523567522  0.5322126334638  0.5182388900249 1.0
C      1  0.8748223479722  0.5210977745774  0.5166663062229 1.0
C      1  0.6860578875935  0.5093166526379  0.5071539414538 1.0
C      1  0.3274795005077  0.5060091661126  0.4846481203471 1.0
C      1  0.6550870094121  0.4265987415582  0.4809946194434 1.0
C      1  0.2227802755445  0.5349244499683  0.4994860545804 1.0
END
