TITL C-16343-8127-43 -5.048 3375.00 -863.51370987 0 0 107 (C1) n - 1
REM
REM Run started: at 2021.01.03 14:26:49 in /gpfs/home/chem/mssmkc/CARBON/AIRSS/Generating-Clusters/Str-Search/Higher-Symm/C100-200
REM VASP from code version vasp.5.4.4.18Apr17-6-g9f103f2a35 (build Oct 11 2019 16:45:47) gamma-only
REM
REM
REM
REM
REM ./C.cell (533062f00bc710175b3da973d35f2034)
REM AIRSS Version 0.9.1 bugfix July 2018 build 013d7b7c2542+ Fri, 06 Jul 2018 19:26:36 +0100
REM compiler GCC version 6.3.0
REM options -cpp -iprefix /gpfs/warwick/csc/orac/software/Core/GCCcore/6.3.0/bin/../lib/gcc/x86_64-pc-linux-gnu/6.3.0/ -mtune=generic -march=x86-64 -g -O0
REM seed 547310161 -1939428295 999062829 -938056952 315263558 615341977 597270661 -1374252934 1648546864 463422797 -1323420307 -1057690199
REM
REM C.POTCAR (d86ddea03c3ceb6dc662c8ad6801f873)
REM 
CELL 1.54180   15.00000   15.00000   15.00000   90.00000   90.00000   90.00000
LATT -1
SFAC C  
C      1  0.1997462005038  0.3840413444417  0.5943931027906 1.0
C      1  0.4466625197185  0.4327946319033  0.6960138053968 1.0
C      1  0.6268574906870  0.4238238313315  0.6864789666868 1.0
C      1  0.7414348523275  0.4327067450400  0.5198984428166 1.0
C      1  0.6704044854211  0.4068026428645  0.3113596641586 1.0
C      1  0.4919891645694  0.4220538031173  0.2976854206965 1.0
C      1  0.3083552306538  0.4224990960026  0.4028302800399 1.0
C      1  0.5239993992150  0.2891619371642  0.7085692887624 1.0
C      1  0.6819608897521  0.2901170667235  0.6038707190467 1.0
C      1  0.6995566087670  0.2859972191408  0.4180795522827 1.0
C      1  0.5441095914947  0.2778672873557  0.3030974060037 1.0
C      1  0.3265701971949  0.4031530997910  0.2317173031516 1.0
C      1  0.2888395734851  0.2738159064966  0.4719664802957 1.0
C      1  0.3448840287012  0.2978675479379  0.6521561206822 1.0
C      1  0.6014450045343  0.5543352640145  0.4875879045992 1.0
C      1  0.5788234740688  0.5972854520326  0.4002816498022 1.0
C      1  0.4999220930288  0.5800850036379  0.3432625845056 1.0
C      1  0.3213449837282  0.5756419296593  0.4472236611502 1.0
C      1  0.3705174275211  0.5555551531463  0.5260638843526 1.0
C      1  0.4973247826734  0.5964602149288  0.6957161929021 1.0
C      1  0.5877127687416  0.5824392320703  0.6582357179027 1.0
C      1  0.2038974387921  0.6261257725229  0.5548916132326 1.0
C      1  0.3442142534502  0.6374907322958  0.6707238990360 1.0
C      1  0.5936306852762  0.6523567868122  0.8079100613365 1.0
C      1  0.7276142055199  0.6566550288789  0.5932818702414 1.0
C      1  0.7347927485028  0.6307425929010  0.3577687114061 1.0
C      1  0.5368595083075  0.6553464849398  0.2173942415497 1.0
C      1  0.3141573456103  0.6385087470012  0.3096954331023 1.0
C      1  0.7574067320364  0.3427812865670  0.4698836075392 1.0
C      1  0.6279708638642  0.3161918306908  0.2772475636791 1.0
C      1  0.3886672544658  0.3366336782377  0.2197327561971 1.0
C      1  0.2769357849536  0.3240322615958  0.3904856406399 1.0
C      1  0.2575360544483  0.3136029297000  0.6247410058105 1.0
C      1  0.4580920363383  0.3469094792645  0.7461667893504 1.0
C      1  0.6772875816927  0.3344956373876  0.6876586337731 1.0
C      1  0.2995889487251  0.3655497450892  0.3168369131830 1.0
C      1  0.2288540189644  0.3069321532573  0.5389663930303 1.0
C      1  0.3765927181428  0.3623527756868  0.7146792682917 1.0
C      1  0.6034425948388  0.3343594074113  0.7335214353691 1.0
C      1  0.7479375892414  0.3392150301162  0.5571618133367 1.0
C      1  0.7017676687162  0.3122973517625  0.3270528446057 1.0
C      1  0.4705010979857  0.3368969702665  0.2609774455559 1.0
C      1  0.4121354379982  0.4707354210283  0.5336351592521 1.0
C      1  0.4835326105015  0.4428827925458  0.6007514706519 1.0
C      1  0.5756292160597  0.4349077371398  0.5926433344964 1.0
C      1  0.6360184690435  0.4586678246313  0.5022811988347 1.0
C      1  0.6145309670963  0.4248390160778  0.4061229799360 1.0
C      1  0.5295227450434  0.4061673838709  0.3857158356914 1.0
C      1  0.3890241756787  0.4185951075279  0.4609396896861 1.0
C      1  0.6022568966892  0.2551057464960  0.5592978589227 1.0
C      1  0.6165675410361  0.2474082979402  0.4567683591666 1.0
C      1  0.5404693478488  0.2394406265817  0.3933081399992 1.0
C      1  0.4540452036112  0.2680336396902  0.4374784145516 1.0
C      1  0.3785178371443  0.2453362195000  0.5005656259418 1.0
C      1  0.4103382570721  0.2549181156320  0.5925756043452 1.0
C      1  0.5126329613170  0.2563521308685  0.6184425025348 1.0
C      1  0.5284491865869  0.4996130161275  0.8692979587856 1.0
C      1  0.7839527276189  0.5569319428734  0.6954961594254 1.0
C      1  0.8283299725759  0.5077317523633  0.3728995509115 1.0
C      1  0.5674745424565  0.5135218875826  0.1575580027597 1.0
C      1  0.3255783410392  0.4994837177339  0.2261988823459 1.0
C      1  0.1109538795116  0.5139804266276  0.4564136705276 1.0
C      1  0.2740232124294  0.5015037397997  0.7481207258512 1.0
C      1  0.5826978645781  0.7039516703564  0.4087260883659 1.0
C      1  0.4837917596523  0.7206462877499  0.3831756319358 1.0
C      1  0.4098700701812  0.7153496654933  0.4409281063693 1.0
C      1  0.4163670108595  0.7099420584790  0.5388924764556 1.0
C      1  0.4818858710762  0.7296339342779  0.6058329541179 1.0
C      1  0.5776335954808  0.7043763088845  0.5784592006675 1.0
C      1  0.6297248302805  0.7256943442055  0.4930276259800 1.0
C      1  0.7999661852205  0.5169245499241  0.5301767856619 1.0
C      1  0.6993109965039  0.4933274384051  0.2655378243101 1.0
C      1  0.4659596054140  0.5126364970230  0.2900203082439 1.0
C      1  0.2678486858066  0.5122379947542  0.3875402401790 1.0
C      1  0.1786932960847  0.4750295477648  0.6075760945797 1.0
C      1  0.4377809240472  0.5243012632293  0.7366701159496 1.0
C      1  0.6360258245419  0.5172922028939  0.7319033306173 1.0
C      1  0.2413449981397  0.6238519687340  0.6397004897887 1.0
C      1  0.4996289875577  0.6572691679046  0.7831230889414 1.0
C      1  0.6660454776264  0.6682533796701  0.7546886099082 1.0
C      1  0.7752454258884  0.6477767444196  0.4388526998903 1.0
C      1  0.6229955093230  0.6363788602886  0.2427698399181 1.0
C      1  0.3890674182864  0.6429133629141  0.2603353642619 1.0
C      1  0.2355124656758  0.6407521994535  0.4635047019856 1.0
C      1  0.3208770823758  0.6674893324390  0.4068881217509 1.0
C      1  0.3733827067806  0.6321893759349  0.5778370162746 1.0
C      1  0.4484019317615  0.6829597590986  0.6942741111599 1.0
C      1  0.6485823677508  0.6747000701830  0.6529355770714 1.0
C      1  0.7197235842720  0.6914197490988  0.5061958884367 1.0
C      1  0.6431078850549  0.6554985588919  0.3385972279411 1.0
C      1  0.4746446835713  0.6714793669633  0.2955688939138 1.0
C      1  0.6426953131640  0.5439920250076  0.2099824837740 1.0
C      1  0.4111805773001  0.5568819007856  0.2119013045889 1.0
C      1  0.1838219688375  0.5597587766593  0.4227029688813 1.0
C      1  0.2218647610660  0.5308254819983  0.6762287990718 1.0
C      1  0.4720933038999  0.5613300630958  0.8248641699936 1.0
C      1  0.7176007030575  0.5802662761301  0.7486861816458 1.0
C      1  0.8248926852102  0.5599849058337  0.4530376634448 1.0
C      1  0.5001919856146  0.5772917430612  0.1633358742903 1.0
C      1  0.2813809558590  0.5478116889801  0.2943568202070 1.0
C      1  0.1477652701903  0.5394957442323  0.5400579079883 1.0
C      1  0.3461387244573  0.5561708530089  0.7276583405732 1.0
C      1  0.5935194630424  0.5481419086944  0.8243984709166 1.0
C      1  0.7786235230848  0.5746577593770  0.6060377734445 1.0
C      1  0.7621541791861  0.5437189460044  0.3192579088092 1.0
C      1  0.4577880853073  0.3583765866488  0.4340463065885 1.0
C      1  0.5770362319129  0.5985239472240  0.5618357981971 1.0
END
