TITL C-160259-9374-17 -1.643 3375.00 -263.10915030 0 0 33 (C1) n - 1
REM
REM Run started: at 2020.11.27 08:01:49 in /rds/project/t2_vol4/rds-t2-cs072/BORA/CARBON/AIRSS/Generating-Clusters/Str-Search/Higher-Symm/C10-100
REM VASP from code version vasp.5.4.4.18Apr17-6-g9f103f2a35 (build Oct 11 2019 16:45:47) gamma-only
REM
REM
REM
REM
REM ./C.cell (f39ce9773e2efe3fa5bbdf770a4156b8)
REM AIRSS Version 0.9.1 bugfix July 2018 build 013d7b7c2542+ Fri, 06 Jul 2018 19:26:36 +0100
REM compiler GCC version 4.8.5 20150623 (Red Hat 4.8.5-39)
REM options -cpp -mtune=generic -march=x86-64 -g -O0
REM seed -489736840 1279454260 -1357721643 1138392681 1173597909 638924860 1569403760 101017167 -1949455668 -1532798600 783358940 1427280422
REM
REM C.POTCAR (d86ddea03c3ceb6dc662c8ad6801f873)
REM 
CELL 1.54180   15.00000   15.00000   15.00000   90.00000   90.00000   90.00000
LATT -1
SFAC C  
C      1  0.3083648427709  0.5243705909757  0.3935358488591 1.0
C      1  0.3845298968440  0.4901320749526  0.3441316664906 1.0
C      1  0.5607014643811  0.4995697711214  0.3054630856811 1.0
C      1  0.6471237188871  0.4757092277825  0.3430913676599 1.0
C      1  0.6712621428761  0.5508082453661  0.3946776217117 1.0
C      1  0.6872064449743  0.5375149737370  0.6166617115282 1.0
C      1  0.6391547468544  0.5707116673422  0.6912854619902 1.0
C      1  0.5494381287312  0.5581618633032  0.7187074680602 1.0
C      1  0.4696601791151  0.5096161278293  0.6850967623912 1.0
C      1  0.3265051935300  0.4965269093053  0.5672760265303 1.0
C      1  0.2852135312777  0.5277731173044  0.4838795897919 1.0
C      1  0.5251990286254  0.5799643752812  0.3404458401724 1.0
C      1  0.5997693612839  0.6149462961732  0.3907507793259 1.0
C      1  0.6500290932619  0.6054724777528  0.4697309727970 1.0
C      1  0.6563871144801  0.6103386842732  0.5621328900642 1.0
C      1  0.6036738484800  0.6513763664392  0.6367443796520 1.0
C      1  0.5162819844692  0.6399933272369  0.6716512168647 1.0
C      1  0.4355636799448  0.5902587676377  0.6443086328566 1.0
C      1  0.3658274024645  0.5845019133988  0.5837970025398 1.0
C      1  0.3306045663621  0.6158612486197  0.4971962568765 1.0
C      1  0.3583926108227  0.6115614728232  0.4054618273220 1.0
C      1  0.4303036938575  0.5773884390967  0.3504314525805 1.0
C      1  0.6247977884571  0.3292687277684  0.4347726868348 1.0
C      1  0.6102657052390  0.3100623083394  0.5145613123229 1.0
C      1  0.5690582033454  0.3155780811088  0.5930453975528 1.0
C      1  0.5155000359889  0.3582108203354  0.6402303906358 1.0
C      1  0.4505326921660  0.4241646616557  0.6484264029042 1.0
C      1  0.3765537595598  0.4185226645956  0.5839352889086 1.0
C      1  0.3819120750983  0.3593583541316  0.5099236766425 1.0
C      1  0.4038528697881  0.3562598400164  0.4303909086223 1.0
C      1  0.4335787160736  0.4070813847716  0.3560668356618 1.0
C      1  0.5228080874558  0.4118534178806  0.3267352534833 1.0
C      1  0.6099474925341  0.3870818016444  0.3654538846853 1.0
END
