TITL C-168030-6353-2 -2.753 3375.00 -483.33153467 0 0 60 (C1) n - 1
REM
REM Run started: at 2020.12.16 03:17:21 in /rds/project/t2_vol4/rds-t2-cs072/BORA/CARBON/AIRSS/Generating-Clusters/Str-Search/Higher-Symm/Only-C60
REM VASP from code version vasp.5.4.4.18Apr17-6-g9f103f2a35 (build Oct 11 2019 16:45:47) gamma-only
REM
REM
REM
REM
REM ./C.cell (5f7b7a0d59291d2373303da1f58b8d66)
REM AIRSS Version 0.9.1 bugfix July 2018 build 013d7b7c2542+ Fri, 06 Jul 2018 19:26:36 +0100
REM compiler GCC version 4.8.5 20150623 (Red Hat 4.8.5-39)
REM options -cpp -mtune=generic -march=x86-64 -g -O0
REM seed 825115995 1058878263 1763217809 1013412339 -1681264310 1676358181 2108060890 -202210173 -645871117 1712718167 571378916 -1301357257
REM
REM C.POTCAR (d86ddea03c3ceb6dc662c8ad6801f873)
REM 
CELL 1.54180   15.00000   15.00000   15.00000   90.00000   90.00000   90.00000
LATT -1
SFAC C  
C      1  0.3323963773331  0.5028252832340  0.6047582441655 1.0
C      1  0.3122711574674  0.7030077726911  0.4703607118422 1.0
C      1  0.5221647779443  0.5061588237175  0.2821316876958 1.0
C      1  0.5375932627731  0.3676665749095  0.3921181680648 1.0
C      1  0.4127311490510  0.6732517907034  0.5940745899790 1.0
C      1  0.7030020078156  0.6086192762907  0.3899105431080 1.0
C      1  0.4269525277032  0.4093779153289  0.4938381504066 1.0
C      1  0.5083878970038  0.2768640822891  0.5294787499289 1.0
C      1  0.3807918297912  0.5734843876457  0.3921406559654 1.0
C      1  0.5278734976989  0.3694521258556  0.6963186815977 1.0
C      1  0.7564613466071  0.4788802857145  0.4845816142084 1.0
C      1  0.3223390906955  0.6018888099417  0.4734258699220 1.0
C      1  0.3660277111338  0.7394222848296  0.5362296234027 1.0
C      1  0.4847730056864  0.4628911233803  0.6794295698662 1.0
C      1  0.5908686134058  0.6516494678263  0.5971357137540 1.0
C      1  0.4715222636895  0.5469833482751  0.5262957991189 1.0
C      1  0.6658334631990  0.3407627906872  0.4778761579021 1.0
C      1  0.6885949948437  0.5256770682653  0.6228351131516 1.0
C      1  0.3555480477552  0.3113338512829  0.5893396628636 1.0
C      1  0.5058284747621  0.6432772881481  0.5460784885983 1.0
C      1  0.4951556385410  0.4602420911242  0.5718869349707 1.0
C      1  0.2868114776343  0.4583581150000  0.5279342072033 1.0
C      1  0.7363375704161  0.5529507999665  0.5451313417309 1.0
C      1  0.3951460646722  0.7525840136780  0.4474827707724 1.0
C      1  0.3027586468450  0.3299441942841  0.4219023568841 1.0
C      1  0.5355092273447  0.5477369180770  0.7052208000124 1.0
C      1  0.4819801666947  0.3339771050588  0.4559310610671 1.0
C      1  0.6338431906862  0.5506293084261  0.4417881712064 1.0
C      1  0.7152837735876  0.5059101348616  0.3958753870814 1.0
C      1  0.6762636286703  0.4281907021831  0.6083589591376 1.0
C      1  0.4783476192345  0.6180246394723  0.7188814037625 1.0
C      1  0.6149502118302  0.5782084642361  0.6557299845015 1.0
C      1  0.7269087479432  0.4007671889445  0.5238347450806 1.0
C      1  0.5833970452149  0.4172213132488  0.5637730225232 1.0
C      1  0.4928177886689  0.4504076035398  0.3620564540265 1.0
C      1  0.6331153391120  0.3626273310299  0.3918633560114 1.0
C      1  0.4592245400852  0.3101043253587  0.6847236991892 1.0
C      1  0.6682764800478  0.4393427539819  0.3370013836099 1.0
C      1  0.3739225916426  0.5818836488087  0.5605929783226 1.0
C      1  0.7025489481924  0.6260272988949  0.4888266219539 1.0
C      1  0.6157934117796  0.4717443834768  0.2699855060917 1.0
C      1  0.4267795603803  0.6780422622292  0.6916825113753 1.0
C      1  0.3295782953028  0.3682728402713  0.5107020047592 1.0
C      1  0.6116428910988  0.3576568168221  0.6420128529885 1.0
C      1  0.3812678405935  0.4522452784581  0.6690804340215 1.0
C      1  0.2713169803356  0.5159793835035  0.4538233720918 1.0
C      1  0.6342474382560  0.6874790626801  0.5220066111928 1.0
C      1  0.5551458227415  0.6873675217320  0.4543716866577 1.0
C      1  0.4443645379322  0.2657578249337  0.5957805688607 1.0
C      1  0.4493964444663  0.6389420709887  0.3520148495698 1.0
C      1  0.5258468599079  0.5982140518355  0.3184073845768 1.0
C      1  0.3729524652034  0.3563027843109  0.6703600200878 1.0
C      1  0.5969908095705  0.3149545811139  0.5494288772565 1.0
C      1  0.5963323294430  0.6219594927347  0.3826508569647 1.0
C      1  0.4446469006721  0.4996638811115  0.4378167831476 1.0
C      1  0.3146273945669  0.3648907705484  0.3476843037145 1.0
C      1  0.4696673448123  0.7182652963418  0.4064311633371 1.0
C      1  0.3432226895920  0.4439956389167  0.3012748832438 1.0
C      1  0.3116270408131  0.5106485250634  0.3596500779073 1.0
C      1  0.4399923491087  0.4490055317365  0.2776820175655 1.0
END
