TITL C-179990-9797-14 -4.541 3375.00 -804.06093253 0 0 95 (C1) n - 1
REM
REM Run started: at 2020.11.28 23:07:14 in /rds/project/t2_vol4/rds-t2-cs072/BORA/CARBON/AIRSS/Generating-Clusters/Str-Search/Higher-Symm/C10-100
REM VASP from code version vasp.5.4.4.18Apr17-6-g9f103f2a35 (build Oct 11 2019 16:45:47) gamma-only
REM
REM
REM
REM
REM ./C.cell (f39ce9773e2efe3fa5bbdf770a4156b8)
REM AIRSS Version 0.9.1 bugfix July 2018 build 013d7b7c2542+ Fri, 06 Jul 2018 19:26:36 +0100
REM compiler GCC version 4.8.5 20150623 (Red Hat 4.8.5-39)
REM options -cpp -mtune=generic -march=x86-64 -g -O0
REM seed -2028313636 -488446021 1931194147 -1680334848 -1246404562 1711011566 462318574 614057211 -1396147387 271161399 505062270 595029998
REM
REM C.POTCAR (d86ddea03c3ceb6dc662c8ad6801f873)
REM 
CELL 1.54180   15.00000   15.00000   15.00000   90.00000   90.00000   90.00000
LATT -1
SFAC C  
C      1  0.5161926503652  0.5490561715386  0.2012744551673 1.0
C      1  0.4061213051695  0.5496662107614  0.5769608089343 1.0
C      1  0.7096535139428  0.5505586394013  0.6456487037510 1.0
C      1  0.5161344717042  0.4532262919835  0.2017103801458 1.0
C      1  0.4058920563255  0.4551656934498  0.5772105136833 1.0
C      1  0.7098377954129  0.4539355016710  0.6463630827023 1.0
C      1  0.6739019143113  0.3128575309001  0.3963180167036 1.0
C      1  0.2950777850257  0.3211452252578  0.3955515518982 1.0
C      1  0.4986094059730  0.3173076862411  0.7344267475578 1.0
C      1  0.6740310276245  0.6904857135701  0.3947620813604 1.0
C      1  0.2951768692339  0.6828321645117  0.3941012054809 1.0
C      1  0.4987597531545  0.6888570355207  0.7327312252540 1.0
C      1  0.6665589530451  0.5497066741756  0.2934266810213 1.0
C      1  0.2084382879103  0.5499398330348  0.4407516631302 1.0
C      1  0.6029987302219  0.5552097127565  0.7670859774619 1.0
C      1  0.6665570130497  0.4528374461344  0.2938026092655 1.0
C      1  0.2083255309164  0.4540575310886  0.4411866245787 1.0
C      1  0.6030040763319  0.4510687343604  0.7676419589457 1.0
C      1  0.7559291392067  0.3776875241782  0.6085076754439 1.0
C      1  0.4495386372529  0.3864629279469  0.2278311812705 1.0
C      1  0.3298186559978  0.4497528675658  0.6517614776148 1.0
C      1  0.7558938081253  0.6266608884845  0.6073193537210 1.0
C      1  0.4497309384504  0.6161832151208  0.2268771584451 1.0
C      1  0.3299318982778  0.5560050789550  0.6512584424194 1.0
C      1  0.4040155393498  0.3211146532873  0.7132245825703 1.0
C      1  0.7081999054157  0.2995235223936  0.4828269174434 1.0
C      1  0.3570146206905  0.3057153264252  0.3257890136034 1.0
C      1  0.4041268523653  0.6851446807181  0.7116557171039 1.0
C      1  0.7082527681375  0.7042272100327  0.4812280165723 1.0
C      1  0.3571946228175  0.6977394034180  0.3242201977756 1.0
C      1  0.2712474681921  0.3954354243796  0.5909905518835 1.0
C      1  0.6965913888965  0.3257757314709  0.6704618120995 1.0
C      1  0.5267459081906  0.3363923309855  0.2708506388533 1.0
C      1  0.2714210602765  0.6098736380194  0.5900023641545 1.0
C      1  0.6966875009781  0.6792423826853  0.6687137106343 1.0
C      1  0.5270090441438  0.6665977959907  0.2693604431854 1.0
C      1  0.6310201135495  0.2671753186211  0.6317377433430 1.0
C      1  0.5193808029514  0.2657139737711  0.3345602112655 1.0
C      1  0.3159083059704  0.3081179040387  0.5687366398625 1.0
C      1  0.6311564213065  0.7377247452235  0.6296088579768 1.0
C      1  0.5196909492504  0.7378205901862  0.3324564370319 1.0
C      1  0.3160171293773  0.6971777212568  0.5670806572643 1.0
C      1  0.4679266889314  0.7681082721640  0.6017363006328 1.0
C      1  0.5740376821048  0.7802988028730  0.4788943364919 1.0
C      1  0.4111395862222  0.7704843058716  0.4505984440766 1.0
C      1  0.4676738212577  0.2372055205026  0.6039764430835 1.0
C      1  0.5737389696730  0.2240455900139  0.4812392427478 1.0
C      1  0.4108278220946  0.2337651368002  0.4527741456207 1.0
C      1  0.5395272848944  0.7409728390465  0.6624579033944 1.0
C      1  0.5923194856904  0.7446970947753  0.3914588116736 1.0
C      1  0.3284516667305  0.7237138262030  0.4754582059116 1.0
C      1  0.5393323030399  0.2645810056001  0.6645511980137 1.0
C      1  0.5919813510447  0.2591587002069  0.3935552467218 1.0
C      1  0.3282325912209  0.2808333116938  0.4773134648458 1.0
C      1  0.3732612743946  0.4078069687365  0.7296518370071 1.0
C      1  0.7537562649512  0.3769551513388  0.5142225219425 1.0
C      1  0.3610139315068  0.3820666897646  0.2669555272899 1.0
C      1  0.3734193045509  0.5985370148952  0.7287678814662 1.0
C      1  0.7537238624973  0.6269093299362  0.5131152410471 1.0
C      1  0.3612307010547  0.6209057508406  0.2661293029337 1.0
C      1  0.6732520250516  0.4054022131498  0.7229433805316 1.0
C      1  0.5944818032168  0.4066320092511  0.2415527723932 1.0
C      1  0.2192535618024  0.4514409223621  0.5381400721567 1.0
C      1  0.6731509612774  0.6001603518137  0.7216908866133 1.0
C      1  0.5946101774337  0.5957922529668  0.2407695428651 1.0
C      1  0.2193688951046  0.5533952830283  0.5376754469592 1.0
C      1  0.3838601227351  0.2774785201244  0.6303186884774 1.0
C      1  0.6451072804672  0.2495007775309  0.5390081520005 1.0
C      1  0.4299824911897  0.2521743252440  0.3606749679491 1.0
C      1  0.3839920445664  0.7283006742058  0.6284501992858 1.0
C      1  0.6452612962624  0.7548617513885  0.5368634714064 1.0
C      1  0.4302716801220  0.7514286627439  0.3586578858195 1.0
C      1  0.7456308637324  0.4518471757810  0.4434684568554 1.0
C      1  0.3017300278307  0.4524780937113  0.3021238285839 1.0
C      1  0.4403881936751  0.4564476735336  0.7782195183538 1.0
C      1  0.7455863343557  0.5516167994758  0.4430123888961 1.0
C      1  0.3018114679974  0.5507420290887  0.3017764328308 1.0
C      1  0.4404590353284  0.5501707784890  0.7777953820309 1.0
C      1  0.7006574470647  0.5976391239695  0.3683136827997 1.0
C      1  0.2552426173264  0.5971824689358  0.3769205235991 1.0
C      1  0.5211681217241  0.6028241853225  0.7752600834374 1.0
C      1  0.7006515534730  0.4054305332079  0.3691065794591 1.0
C      1  0.2551504199934  0.4065355138006  0.3776479897520 1.0
C      1  0.5210601904204  0.4037678287106  0.7762133364958 1.0
C      1  0.4462323262564  0.5841520682956  0.5033653616594 1.0
C      1  0.6245750194291  0.5518890066133  0.5811142458073 1.0
C      1  0.5114033402001  0.5743931766502  0.3059406872773 1.0
C      1  0.4456623639675  0.4204504203618  0.5035747704635 1.0
C      1  0.6239793111683  0.4516030003482  0.5814703467162 1.0
C      1  0.5111853271305  0.4288808968932  0.3065136916556 1.0
C      1  0.4958757693043  0.5019918936722  0.4648215087257 1.0
C      1  0.5782136337005  0.5019130343825  0.5213970226160 1.0
C      1  0.5006235524134  0.5018354413199  0.3654797420479 1.0
C      1  0.4833017952005  0.2174182502525  0.5125397011619 1.0
C      1  0.4836037383299  0.7872809005999  0.5102194088368 1.0
END
