TITL C-17444-8642-4 -11.362 3375.00 -2276.51090393 0 0 276 (C1) n - 1
REM
REM Run started: at 2020.11.22 03:32:47 in /rds/project/t2_vol4/rds-t2-cs072/BORA/CARBON/AIRSS/Generating-Clusters/Str-Search/Higher-Symm
REM VASP from code version vasp.5.4.4.18Apr17-6-g9f103f2a35 (build Oct 11 2019 16:45:47) gamma-only
REM
REM
REM
REM
REM ./C.cell (e5ae0387ce4d49c7c0135a1433873289)
REM AIRSS Version 0.9.1 bugfix July 2018 build 013d7b7c2542+ Fri, 06 Jul 2018 19:26:36 +0100
REM compiler GCC version 4.8.5 20150623 (Red Hat 4.8.5-39)
REM options -cpp -mtune=generic -march=x86-64 -g -O0
REM seed -752071261 -1499089620 -268060611 -1588875623 1396876292 -36908469 -1341973138 368448278 2044467985 -1415191083 -24377787 -1923826481
REM
REM C.POTCAR (d86ddea03c3ceb6dc662c8ad6801f873)
REM 
CELL 1.54180   15.00000   15.00000   15.00000   90.00000   90.00000   90.00000
LATT -1
SFAC C  
C      1  0.5319607461479  0.7023158861067  0.9098292278391 1.0
C      1  0.2932687562585  0.3699915840211  0.9813351123908 1.0
C      1  0.6937015151320  0.3469472714987  0.0128572919829 1.0
C      1  0.4165881857765  0.2608222373296  0.9213715427013 1.0
C      1  0.7910819203194  0.6111923373396  0.9249568333007 1.0
C      1  0.2181010193971  0.7634942455067  0.9008420374955 1.0
C      1  0.3231898291520  0.7523391927274  0.7558944480851 1.0
C      1  0.3367701680087  0.2544744285728  0.7816472076200 1.0
C      1  0.7779241775786  0.5130431141877  0.7774524069417 1.0
C      1  0.0301800837321  0.4552033852703  0.4842570320911 1.0
C      1  0.7506290016381  0.1162576220479  0.5437599509655 1.0
C      1  0.7049267420807  0.8853177910531  0.5521191431642 1.0
C      1  0.7479432573724  0.6601111107520  0.1335107854555 1.0
C      1  0.2368447875518  0.6886957397790  0.0979072478551 1.0
C      1  0.5354986257630  0.2270503808116  0.1464766992288 1.0
C      1  0.4967261506620  0.7783800517847  0.8517889662981 1.0
C      1  0.2417776777348  0.3574665206390  0.9034936923196 1.0
C      1  0.7585330542455  0.2946411177093  0.9780707942660 1.0
C      1  0.4184028864915  0.0608791710964  0.4461581401205 1.0
C      1  0.9285344999402  0.6178740774622  0.4149371771665 1.0
C      1  0.2728909857795  0.8879766639376  0.5162241987614 1.0
C      1  0.3624851384816  0.8009153908329  0.6256855840799 1.0
C      1  0.2415791842275  0.2211986191506  0.6523767214266 1.0
C      1  0.8545643709030  0.4347472401117  0.6505286484155 1.0
C      1  0.0491627593062  0.3369999450873  0.5642918661016 1.0
C      1  0.8547064967092  0.1938324592545  0.5865971606267 1.0
C      1  0.5373779561299  0.9121124849501  0.5651421794978 1.0
C      1  0.6852912182649  0.8025813080913  0.1811301500648 1.0
C      1  0.1745615516732  0.4623252936623  0.2010054646761 1.0
C      1  0.6817241024329  0.2106533113218  0.2138103727014 1.0
C      1  0.0117817252364  0.3174000937354  0.3780982319283 1.0
C      1  0.3983850711037  0.9769341996253  0.4211390267065 1.0
C      1  0.1746815236466  0.1669102562128  0.4652610318823 1.0
C      1  0.7654016415053  0.5622005974625  0.1668924929925 1.0
C      1  0.3335934312971  0.7082317735116  0.1004670649947 1.0
C      1  0.4411058760039  0.2566362861461  0.1541029192224 1.0
C      1  0.4101838114651  0.3619361025484  0.5074348662454 1.0
C      1  0.7017540616256  0.5005017248805  0.4769584802283 1.0
C      1  0.4184357193420  0.6766397832610  0.4367257623870 1.0
C      1  0.7041126864307  0.8697122542203  0.6448011402803 1.0
C      1  0.0689930587604  0.4968249066108  0.6578760733649 1.0
C      1  0.7123347441464  0.1467752294507  0.7081494719836 1.0
C      1  0.7716075398110  0.4397925683670  0.4310931301482 1.0
C      1  0.4472967787130  0.7602696676368  0.4230963636762 1.0
C      1  0.3339716808402  0.3173791707256  0.4575225297469 1.0
C      1  0.5611006456147  0.3234018387378  0.1354493862467 1.0
C      1  0.6478040167050  0.6467608921880  0.1046923505564 1.0
C      1  0.3504286429598  0.4970858796534  0.0999368629003 1.0
C      1  0.5017425435340  0.2742450429678  0.4191724872480 1.0
C      1  0.7119054541500  0.6012707548260  0.4944513956452 1.0
C      1  0.2617766768677  0.6665239654305  0.4883775306150 1.0
C      1  0.6108166562691  0.4815481505280  0.6170622006968 1.0
C      1  0.4636581956401  0.6092937335161  0.5689584986263 1.0
C      1  0.3536142603583  0.3988566288479  0.6482242653279 1.0
C      1  0.6492134993107  0.1957097470659  0.8326449922231 1.0
C      1  0.6388081979222  0.8125245071384  0.7716281955408 1.0
C      1  0.1694670972468  0.5053221410754  0.7785606493397 1.0
C      1  0.4635460969096  0.3866805221355  0.0029306427677 1.0
C      1  0.6519223762043  0.5616381741754  0.0562766786299 1.0
C      1  0.3888399593862  0.5591208105296  0.0345878945351 1.0
C      1  0.7644718110406  0.7395801280008  0.1757989411712 1.0
C      1  0.2160326817344  0.5581902927091  0.2030876435030 1.0
C      1  0.5899353101738  0.1750662490930  0.2014041876512 1.0
C      1  0.6536750307655  0.4421341514406  0.1259341361484 1.0
C      1  0.4850254725675  0.6733986365226  0.0986839760339 1.0
C      1  0.3870083973016  0.4049767814555  0.1284697719505 1.0
C      1  0.8350613643462  0.4960176815325  0.1953316328157 1.0
C      1  0.3729629356273  0.7968410567100  0.1243250033498 1.0
C      1  0.3512192330990  0.2212819876717  0.1672536708806 1.0
C      1  0.0631007880204  0.6526692415505  0.3228762794444 1.0
C      1  0.5888769892890  0.1130448161960  0.3635167368209 1.0
C      1  0.8194373138541  0.7664582888657  0.3613509896608 1.0
C      1  0.1338976859649  0.1815610346793  0.5493763676454 1.0
C      1  0.9465597307207  0.3384519266943  0.5555116163128 1.0
C      1  0.3951424036551  0.9553966463913  0.6247392724659 1.0
C      1  0.8335371289981  0.1428681532368  0.5043211556269 1.0
C      1  0.6236968228278  0.9192197572447  0.5048130426389 1.0
C      1  0.0117739924528  0.3530300020708  0.4715871417589 1.0
C      1  0.1270386540531  0.6689131786028  0.6199806022267 1.0
C      1  0.5622212810897  0.1212336309941  0.6311615493085 1.0
C      1  0.8100621009949  0.7326390397518  0.6322572245335 1.0
C      1  0.0916611013392  0.3457145251348  0.3262323433086 1.0
C      1  0.8288204550853  0.1590698052241  0.4099536301475 1.0
C      1  0.6282032570130  0.9285259355923  0.4034746456256 1.0
C      1  0.4709213353842  0.5954805853133  0.4693792640620 1.0
C      1  0.3580284039716  0.4251861443177  0.5607856619774 1.0
C      1  0.6398411502136  0.4426787900879  0.5364378005013 1.0
C      1  0.4692670661510  0.1617405714275  0.3202261365775 1.0
C      1  0.7899536042775  0.6459842142362  0.3261059245534 1.0
C      1  0.2170529104173  0.7015544020449  0.2599287575899 1.0
C      1  0.5166050548750  0.6673995705475  0.6245601007282 1.0
C      1  0.1915596535100  0.3880963051129  0.6690607925890 1.0
C      1  0.7500152195392  0.3137785812940  0.7014127295892 1.0
C      1  0.8193289589414  0.5184944265294  0.6908890196329 1.0
C      1  0.3065213703539  0.7205193015180  0.6514911986956 1.0
C      1  0.3302126623123  0.2303839617683  0.6870854358714 1.0
C      1  0.8607076098473  0.4695329788452  0.4393886928230 1.0
C      1  0.4027424489166  0.8423018586759  0.3970626325374 1.0
C      1  0.2879709049316  0.2342140603432  0.4476521311065 1.0
C      1  0.3345738205216  0.6241772728613  0.6688737000854 1.0
C      1  0.4886691690470  0.3497106358682  0.7263846793755 1.0
C      1  0.6045333734274  0.5618312752829  0.7696343321779 1.0
C      1  0.1932688224482  0.8329829061846  0.5253212247644 1.0
C      1  0.3651769922810  0.1032748422767  0.5215640619296 1.0
C      1  0.8959993651445  0.5583188845476  0.4847203704548 1.0
C      1  0.6169208495671  0.6179995587698  0.2030045222105 1.0
C      1  0.3213070028307  0.5449240165400  0.1842405723424 1.0
C      1  0.5426755541100  0.3507195088377  0.2315580875521 1.0
C      1  0.6151796719355  0.1154926008405  0.7082559075602 1.0
C      1  0.7611944739577  0.7984313595975  0.6881940915616 1.0
C      1  0.0981105810784  0.5877495784265  0.6737109564314 1.0
C      1  0.4043162641624  0.6605880725441  0.0370686298858 1.0
C      1  0.4626860980610  0.3454307584427  0.0941395315493 1.0
C      1  0.7181578984734  0.5137229180400  0.0959989217292 1.0
C      1  0.7164388035166  0.2038570850110  0.3083769096848 1.0
C      1  0.6674059302385  0.8528588313436  0.2704315866335 1.0
C      1  0.1911464558374  0.4658126245653  0.3104353552210 1.0
C      1  0.4281910602070  0.3338190245232  0.6604209413656 1.0
C      1  0.6050966864815  0.5123668375441  0.6919961621608 1.0
C      1  0.3909167409094  0.5849299451147  0.6143311666233 1.0
C      1  0.5988312534082  0.4775744005566  0.0370399986596 1.0
C      1  0.4565898983800  0.5475114305129  0.9745619805737 1.0
C      1  0.5076517302715  0.4673952219036  0.9978474955417 1.0
C      1  0.2305045770774  0.3952032079007  0.1633357585414 1.0
C      1  0.7147223971237  0.2900921518845  0.1764305678885 1.0
C      1  0.5956033220994  0.7942465280119  0.1363002130066 1.0
C      1  0.2421690787621  0.3828200912451  0.3369720009406 1.0
C      1  0.7762580032959  0.2903000246559  0.3258864850310 1.0
C      1  0.5716201234777  0.8776243360588  0.2642264009137 1.0
C      1  0.2735309943550  0.1459910291152  0.5063514536700 1.0
C      1  0.9366889167581  0.4767774195058  0.5032710514978 1.0
C      1  0.3374841013347  0.9003792708016  0.4447131139859 1.0
C      1  0.8257855000547  0.6016870034101  0.6400259327977 1.0
C      1  0.2217475049586  0.6875018218920  0.5830408132230 1.0
C      1  0.4035158331502  0.2417853065237  0.6289884729593 1.0
C      1  0.4794778310312  0.3886110531069  0.8128564569181 1.0
C      1  0.6128466230456  0.5430927701299  0.8608140998902 1.0
C      1  0.3669094127664  0.5782743632670  0.8224534238441 1.0
C      1  0.5806575367852  0.1409625148651  0.7957075059171 1.0
C      1  0.7314407368179  0.7735847531994  0.7707514536304 1.0
C      1  0.1393094792152  0.5911213492785  0.7628417266563 1.0
C      1  0.1529969645587  0.3655770742546  0.8737273740114 1.0
C      1  0.7970408684814  0.2433384605081  0.9228262031851 1.0
C      1  0.5495526415451  0.8438775568972  0.8119406115885 1.0
C      1  0.5502085458770  0.3341127562908  0.8638486810502 1.0
C      1  0.6128570568294  0.6458276054481  0.8841673762152 1.0
C      1  0.3449954069120  0.4905686044824  0.8393708858227 1.0
C      1  0.4908387900302  0.3575816221193  0.4692903197459 1.0
C      1  0.6595810295410  0.5696018090693  0.4158679895887 1.0
C      1  0.3327262618479  0.6326683197663  0.4317224031537 1.0
C      1  0.4201007787340  0.7331435541608  0.7955861308601 1.0
C      1  0.3049759622401  0.3451512047817  0.8107666366267 1.0
C      1  0.7261398671570  0.4385603852768  0.8136656372955 1.0
C      1  0.7145321486065  0.6596054349402  0.8974725725318 1.0
C      1  0.2266721654391  0.6766835632456  0.8890425261594 1.0
C      1  0.5061844448468  0.2536770980308  0.9013034594348 1.0
C      1  0.2954632193462  0.5900481465124  0.7536168555376 1.0
C      1  0.5425309597368  0.2795605632839  0.7639574686250 1.0
C      1  0.6241768899598  0.6562987107888  0.7798021339877 1.0
C      1  0.5250576016819  0.6207257899703  0.2394794064303 1.0
C      1  0.3677468946315  0.4871348335252  0.2601976726917 1.0
C      1  0.6000800458006  0.4058376367885  0.2826306281258 1.0
C      1  0.6598422179415  0.3430017103362  0.1089574700592 1.0
C      1  0.5766327984483  0.7155465887546  0.0881984630817 1.0
C      1  0.2931915872812  0.4034312841493  0.0818666150886 1.0
C      1  0.4512837440089  0.2526566784979  0.3294235503468 1.0
C      1  0.7038611178463  0.5983054814553  0.3285463751779 1.0
C      1  0.3073467332864  0.6793793919296  0.2660148879866 1.0
C      1  0.7320676753690  0.3670462602079  0.3843587509608 1.0
C      1  0.5373437120857  0.7694485572153  0.4615301977660 1.0
C      1  0.2981936508365  0.3926678467410  0.4187031783198 1.0
C      1  0.7686437922052  0.1601605417150  0.6284371167026 1.0
C      1  0.5516996212508  0.8471740686772  0.5101449463818 1.0
C      1  0.0768398133267  0.4386111839486  0.5741118714493 1.0
C      1  0.3779256478769  0.5399022315283  0.4393460353593 1.0
C      1  0.5835782449807  0.3894754196385  0.4728823765045 1.0
C      1  0.5634195701678  0.6138259803655  0.4215682540520 1.0
C      1  0.1993507842846  0.7389058793570  0.4949428002021 1.0
C      1  0.4318536502901  0.1785475388354  0.5552450772310 1.0
C      1  0.8468490897713  0.6037682715040  0.5508997995437 1.0
C      1  0.7831876703811  0.7320856156422  0.2754502022962 1.0
C      1  0.1951018225795  0.6593362093450  0.1702785993782 1.0
C      1  0.5468420563461  0.1262978591082  0.2719612835282 1.0
C      1  0.4563226352235  0.9168392971155  0.3728995853023 1.0
C      1  0.2034809628228  0.2374151096394  0.4056816697298 1.0
C      1  0.9387052413808  0.2742059330385  0.3574936106713 1.0
C      1  0.6814725847669  0.7550904488602  0.2733139650565 1.0
C      1  0.2147552064587  0.5654075591286  0.3059104024179 1.0
C      1  0.6304947842795  0.2067840933631  0.3556691496668 1.0
C      1  0.2178755478416  0.1563597758065  0.5901623512755 1.0
C      1  0.9124224209248  0.4275532207561  0.5797663504060 1.0
C      1  0.3323112643080  0.8912042311271  0.5947420038058 1.0
C      1  0.1753397651360  0.2905965285337  0.6503925118105 1.0
C      1  0.8306385508659  0.3408532321003  0.6631481612569 1.0
C      1  0.4491405557634  0.8090224045462  0.6546703801587 1.0
C      1  0.2681880766513  0.4924339795177  0.7722188116411 1.0
C      1  0.6292339984982  0.2973076923760  0.8122105418574 1.0
C      1  0.5924905402625  0.7301738431737  0.7211911752019 1.0
C      1  0.6041299291370  0.6918647800173  0.6256011828856 1.0
C      1  0.1756250188128  0.4415000598550  0.5774271548289 1.0
C      1  0.7072219373174  0.2384634472385  0.6528716721023 1.0
C      1  0.7964513803232  0.6605764332978  0.4900202453573 1.0
C      1  0.1749965601922  0.6538717099967  0.4397077196491 1.0
C      1  0.5055957461230  0.1920670730000  0.4849535289831 1.0
C      1  0.7531059697732  0.1275700213852  0.3659553569553 1.0
C      1  0.7023964644159  0.8882858818074  0.3591189763645 1.0
C      1  0.1059462341236  0.4357916118659  0.2781793432767 1.0
C      1  0.1715938339520  0.3146622770275  0.3591046064781 1.0
C      1  0.8579791052065  0.2430052258769  0.3658951840912 1.0
C      1  0.5476733070279  0.9184121342633  0.3451362760865 1.0
C      1  0.4508970571752  0.3170522281836  0.2494619345248 1.0
C      1  0.6865493026442  0.5491548488944  0.2389853346207 1.0
C      1  0.3581583117873  0.6456686459383  0.1868496023824 1.0
C      1  0.6384343784856  0.6706101000862  0.2916077047307 1.0
C      1  0.3088274936126  0.6089862936909  0.3356810854711 1.0
C      1  0.5908963578275  0.2806514961177  0.3787519024864 1.0
C      1  0.1486186753129  0.5602436103408  0.4673748084280 1.0
C      1  0.5953563101942  0.1728018336089  0.5454577170670 1.0
C      1  0.7584391093691  0.7347483294981  0.5424973842425 1.0
C      1  0.7662179932216  0.8321843298542  0.4074315358031 1.0
C      1  0.0155839125264  0.6019059119241  0.3854255309233 1.0
C      1  0.6739764804669  0.0897680532009  0.4099372012353 1.0
C      1  0.7288478395613  0.6807290983785  0.8010176936345 1.0
C      1  0.2149663985985  0.6470953335066  0.7907781737924 1.0
C      1  0.4989308149025  0.1980887493606  0.8148441305641 1.0
C      1  0.8204908844178  0.4157773838792  0.2155267323309 1.0
C      1  0.4388980172027  0.8330543128187  0.1590630018057 1.0
C      1  0.2928524538976  0.2541041837344  0.2158063602367 1.0
C      1  0.6622953082034  0.6840879585824  0.5441114658914 1.0
C      1  0.2144748740884  0.4969253267847  0.5137122570567 1.0
C      1  0.6437702356921  0.2593921819275  0.5797851221772 1.0
C      1  0.1022024552834  0.3875555285234  0.8114078695582 1.0
C      1  0.8070214317219  0.1916382872795  0.8528310565869 1.0
C      1  0.5452890180931  0.9063046198312  0.7320357070087 1.0
C      1  0.4547485046432  0.6472391779833  0.9417713533759 1.0
C      1  0.3881214661060  0.3567906969035  0.9463658399965 1.0
C      1  0.6577607400659  0.4265176906036  0.9708944946109 1.0
C      1  0.6348164831115  0.8861152688529  0.7074815367410 1.0
C      1  0.1185236931617  0.4386013424265  0.7273107492746 1.0
C      1  0.7364414947490  0.1693676805126  0.8006351078394 1.0
C      1  0.4113346221940  0.6514958065403  0.8531114132092 1.0
C      1  0.3870900705214  0.4011971978502  0.8524581725100 1.0
C      1  0.6675951486350  0.4672386011136  0.8886530856922 1.0
C      1  0.4805587145933  0.9056325837749  0.6530781973143 1.0
C      1  0.1073666950062  0.2654245315419  0.5910353440369 1.0
C      1  0.8808810094624  0.2809438828565  0.6015045357554 1.0
C      1  0.7047637284191  0.3540458451622  0.7743968822112 1.0
C      1  0.4898028565353  0.7311442377945  0.7011081078228 1.0
C      1  0.2804464883303  0.4056035164743  0.7199859580070 1.0
C      1  0.8462862997720  0.6766507323787  0.4027678388046 1.0
C      1  0.1609318366105  0.6533213395221  0.3356574981619 1.0
C      1  0.4948801364569  0.1201982688751  0.4118949144532 1.0
C      1  0.4702187917372  0.1065996950280  0.6163820529030 1.0
C      1  0.9045161865790  0.7495447728914  0.6252344591202 1.0
C      1  0.0798615806884  0.7528120702970  0.6133153316597 1.0
C      1  0.5926867840271  0.6988763130933  0.4703320479466 1.0
C      1  0.3106456605996  0.4726739503325  0.4851958292041 1.0
C      1  0.6403324244944  0.3404588386871  0.5381773298853 1.0
C      1  0.4570522070008  0.6417479623409  0.1803682037215 1.0
C      1  0.3768638703334  0.3921416612273  0.2294227012782 1.0
C      1  0.6444246991679  0.4625649395062  0.2245547937106 1.0
C      1  0.7806859268181  0.6002620121625  0.8274722222161 1.0
C      1  0.2437029524529  0.7408200988647  0.8021821947618 1.0
C      1  0.3978320778433  0.2140589100892  0.8371380021511 1.0
C      1  0.5518681106454  0.6435614232053  0.3266301149069 1.0
C      1  0.3713857171674  0.5329200064156  0.3374790770761 1.0
C      1  0.6292315513387  0.3715382618405  0.3777671380728 1.0
C      1  0.7818526731513  0.3326384471926  0.2325791503980 1.0
C      1  0.5295590237862  0.8464398061034  0.1844427351344 1.0
C      1  0.2802172683392  0.3489469185863  0.2411426616046 1.0
C      1  0.0676642154767  0.5332446529547  0.4378794723876 1.0
C      1  0.6689566483620  0.1124779568489  0.5020627853562 1.0
C      1  0.7562826079497  0.8253936546628  0.5007248591707 1.0
C      1  0.1279570913282  0.8333362048311  0.5910622027929 1.0
C      1  0.4000561978086  0.0461069345796  0.6023690905989 1.0
C      1  0.9860278823312  0.7551731576201  0.6249847025897 1.0
END
