TITL C-17091-7747-10 -3.933 3375.00 -653.79857041 0 0 80 (C1) n - 1
REM
REM Run started: at 2021.01.04 06:53:12 in /gpfs/home/chem/mssmkc/CARBON/AIRSS/Generating-Clusters/Str-Search/Higher-Symm/C4-100
REM VASP from code version vasp.5.4.4.18Apr17-6-g9f103f2a35 (build Oct 11 2019 16:45:47) gamma-only
REM
REM
REM
REM
REM ./C.cell (6bd13a13d554368a30d355f37ece5b26)
REM AIRSS Version 0.9.1 bugfix July 2018 build 013d7b7c2542+ Fri, 06 Jul 2018 19:26:36 +0100
REM compiler GCC version 6.3.0
REM options -cpp -iprefix /gpfs/warwick/csc/orac/software/Core/GCCcore/6.3.0/bin/../lib/gcc/x86_64-pc-linux-gnu/6.3.0/ -mtune=generic -march=x86-64 -g -O0
REM seed -1824074963 705931448 -972620859 -803131828 1715552311 303462481 -1387365097 -114643633 -1608658507 -590288355 1111108011 -531607009
REM
REM C.POTCAR (d86ddea03c3ceb6dc662c8ad6801f873)
REM 
CELL 1.54180   15.00000   15.00000   15.00000   90.00000   90.00000   90.00000
LATT -1
SFAC C  
C      1  0.5469033033970  0.4344932596006  0.7744471873818 1.0
C      1  0.4725954268129  0.6716517369224  0.7661837217541 1.0
C      1  0.5187154870378  0.7632202182196  0.5260869597783 1.0
C      1  0.4279578895104  0.6697542880853  0.3130138606601 1.0
C      1  0.5305407924451  0.4646141331740  0.2041988163015 1.0
C      1  0.5562598036548  0.2372818071887  0.3783806689680 1.0
C      1  0.4500563536963  0.3153588618272  0.5830420898784 1.0
C      1  0.5973211524555  0.6090095265318  0.2609633338382 1.0
C      1  0.5879861047673  0.3162128496902  0.2330915611537 1.0
C      1  0.5979453763300  0.2551373305524  0.5288713033510 1.0
C      1  0.6150180355325  0.3156853913886  0.6815901062513 1.0
C      1  0.6094164477783  0.5765440394698  0.7611643128345 1.0
C      1  0.5721452753531  0.6603916158191  0.6287242201586 1.0
C      1  0.5659143942061  0.6987402257294  0.3912312420188 1.0
C      1  0.1832472023618  0.5841580765239  0.4168137774996 1.0
C      1  0.2233231462071  0.5325936010465  0.3500914309144 1.0
C      1  0.2193586598582  0.4335084776190  0.3451332382496 1.0
C      1  0.1933775799014  0.3998887544582  0.4267269461335 1.0
C      1  0.1805002934941  0.4214775249576  0.5069468093753 1.0
C      1  0.2120759079915  0.4990728033739  0.5554134336022 1.0
C      1  0.1835622765304  0.5696059237315  0.4987530823512 1.0
C      1  0.4245819045692  0.5572097679820  0.5990319593641 1.0
C      1  0.5094727018329  0.5976142743970  0.5817833433092 1.0
C      1  0.4968253177752  0.5718958395103  0.4868068061220 1.0
C      1  0.5415201204479  0.5387913352456  0.4102586817226 1.0
C      1  0.5138345142169  0.4517148065752  0.4222980730597 1.0
C      1  0.4171780110941  0.4357662413110  0.4630348655909 1.0
C      1  0.3898340791495  0.3782317493497  0.5439491807440 1.0
C      1  0.5030217546687  0.2645843182073  0.5235804195772 1.0
C      1  0.5386742579866  0.3531340183617  0.7217331088328 1.0
C      1  0.5160678410134  0.5898632171863  0.7808731065764 1.0
C      1  0.5276590080737  0.7448721137697  0.6215127656956 1.0
C      1  0.4711124586653  0.7158097549752  0.3836132349649 1.0
C      1  0.5322168595229  0.5572372762534  0.2210479841613 1.0
C      1  0.5658352286271  0.2603678524702  0.2899482851880 1.0
C      1  0.3313305859773  0.6575154728028  0.6693519560905 1.0
C      1  0.3300307090640  0.7001298521175  0.5852195441456 1.0
C      1  0.3094485781233  0.5338434518930  0.3125966180087 1.0
C      1  0.3180432226043  0.4310884364298  0.3072475789134 1.0
C      1  0.3754893469994  0.3853409367346  0.3797469456412 1.0
C      1  0.3353851382641  0.4134624837390  0.6125978591351 1.0
C      1  0.3467710333140  0.5547583594601  0.6663664418766 1.0
C      1  0.4763230291379  0.2585751117032  0.4281228948218 1.0
C      1  0.4561892242424  0.3409256769180  0.6777138578244 1.0
C      1  0.4758352529117  0.5016587506617  0.7799916555898 1.0
C      1  0.4776629144853  0.7461317006268  0.7037777403673 1.0
C      1  0.4401912398443  0.7488785979739  0.4709422524440 1.0
C      1  0.4544621661534  0.6088039244526  0.2468734006038 1.0
C      1  0.4433809511175  0.4270949763114  0.1994897268316 1.0
C      1  0.7488087301542  0.3578308939897  0.4788433686508 1.0
C      1  0.7418550221317  0.4261866184147  0.6335173576589 1.0
C      1  0.7541162897006  0.5154181201960  0.6607949029981 1.0
C      1  0.7312734309198  0.6421996585976  0.5538623609852 1.0
C      1  0.7251135512353  0.6252812247834  0.4614465576675 1.0
C      1  0.7218849095730  0.4917333272996  0.3566036704394 1.0
C      1  0.7261190485504  0.3574610820104  0.3435501572202 1.0
C      1  0.7062096762718  0.4568206438601  0.7170310810430 1.0
C      1  0.7235207343597  0.6024004683278  0.6396996473211 1.0
C      1  0.6778768275563  0.6972908959922  0.5015095409356 1.0
C      1  0.6961951300286  0.5763730449141  0.3879362521220 1.0
C      1  0.6821115413540  0.4270428264452  0.2908521842818 1.0
C      1  0.7085588874939  0.2944335792964  0.4162074609703 1.0
C      1  0.7241660159384  0.3603178296872  0.5700967028020 1.0
C      1  0.6313848732782  0.2464940696219  0.4386779056432 1.0
C      1  0.6479032206664  0.3014678673052  0.5978696877067 1.0
C      1  0.6301383666300  0.4818982343418  0.7660808483599 1.0
C      1  0.6436390516576  0.6254311073159  0.6879092892887 1.0
C      1  0.5964486657908  0.7344296206022  0.4728434070103 1.0
C      1  0.6029152782421  0.6067113687750  0.3586787286388 1.0
C      1  0.6056615809443  0.4087585261425  0.2338046501176 1.0
C      1  0.3842438153133  0.4021416141627  0.6949107235097 1.0
C      1  0.3926300749863  0.4863638150950  0.7362392816597 1.0
C      1  0.3950065126116  0.7012819748159  0.7237532774783 1.0
C      1  0.3571977280553  0.7360186984381  0.5147486520287 1.0
C      1  0.3713336182961  0.5969023189596  0.2917997780481 1.0
C      1  0.3658078888073  0.4092912454833  0.2226626561009 1.0
C      1  0.4065881836738  0.3017065905064  0.3839493793304 1.0
C      1  0.2835436229959  0.4936675453328  0.6142377173494 1.0
C      1  0.4163167452156  0.5263019528852  0.5062501351826 1.0
C      1  0.7683452183641  0.4193042930730  0.4039233477945 1.0
END
