TITL C-171472-1288-3 -6.945 3375.00 -1141.00324421 0 0 139 (C1) n - 1
REM
REM Run started: at 2020.12.21 22:16:23 in /rds/project/t2_vol4/rds-t2-cs072/BORA/CARBON/AIRSS/Generating-Clusters/Str-Search/Higher-Symm/C100-200
REM VASP from code version vasp.5.4.4.18Apr17-6-g9f103f2a35 (build Oct 11 2019 16:45:47) gamma-only
REM
REM
REM
REM
REM ./C.cell (533062f00bc710175b3da973d35f2034)
REM AIRSS Version 0.9.1 bugfix July 2018 build 013d7b7c2542+ Fri, 06 Jul 2018 19:26:36 +0100
REM compiler GCC version 4.8.5 20150623 (Red Hat 4.8.5-39)
REM options -cpp -mtune=generic -march=x86-64 -g -O0
REM seed 982179278 -911793746 1041148076 1181944772 -1975024380 -124976309 -109404770 -1071093644 -716319535 2109287419 1479362796 -1525607653
REM
REM C.POTCAR (d86ddea03c3ceb6dc662c8ad6801f873)
REM 
CELL 1.54180   15.00000   15.00000   15.00000   90.00000   90.00000   90.00000
LATT -1
SFAC C  
C      1  0.3958602907680  0.5389921111349  0.3264998995826 1.0
C      1  0.3148869648461  0.3831960991343  0.5491412272640 1.0
C      1  0.5444195638290  0.3156371968234  0.3834623344196 1.0
C      1  0.5999981366446  0.5326548224213  0.6620333604042 1.0
C      1  0.3833039623573  0.4552466010157  0.6818203232443 1.0
C      1  0.6173248884623  0.4470655740254  0.3151279404828 1.0
C      1  0.6634537401724  0.3991573128341  0.4669760002517 1.0
C      1  0.3213579218153  0.6132263993559  0.4538370179246 1.0
C      1  0.6769845959733  0.6088832353961  0.5357366586539 1.0
C      1  0.4652141926733  0.3349923519403  0.5987960993695 1.0
C      1  0.5529334278294  0.6867209032875  0.6146907384605 1.0
C      1  0.4737936722491  0.6636771332122  0.4073681799053 1.0
C      1  0.3323970413265  0.5347202671947  0.3974054869799 1.0
C      1  0.5461309825894  0.3829565117113  0.3170038965272 1.0
C      1  0.3802470715913  0.3146393093496  0.5494038331480 1.0
C      1  0.6800831414151  0.5462549741610  0.6042525031228 1.0
C      1  0.6846480367227  0.4467436386476  0.3812571406644 1.0
C      1  0.3163410374736  0.4531647090831  0.6146017379571 1.0
C      1  0.4500327748651  0.3894327797545  0.6809597444556 1.0
C      1  0.4650899062178  0.6030067742256  0.3281944765723 1.0
C      1  0.5545156642162  0.6201912578999  0.6830112102100 1.0
C      1  0.6086607192704  0.3172881461158  0.4515228535946 1.0
C      1  0.5962580987875  0.6652913310008  0.5248689502464 1.0
C      1  0.3859290038204  0.6831230301300  0.4521143734783 1.0
C      1  0.2880131026527  0.5489138082923  0.1428658979532 1.0
C      1  0.1324576362411  0.2835220185609  0.5458018150428 1.0
C      1  0.5455566934395  0.1359814414945  0.2818585069629 1.0
C      1  0.7049402071389  0.5490769384031  0.8565646577698 1.0
C      1  0.2835155557646  0.4557272207984  0.8619997586581 1.0
C      1  0.7174094811418  0.4512004986812  0.1307333149674 1.0
C      1  0.8567443922706  0.2939972192742  0.4508747420815 1.0
C      1  0.1339389243479  0.7157985520800  0.4550733174197 1.0
C      1  0.8540717042389  0.7195381350876  0.5387325717936 1.0
C      1  0.4487273480670  0.1418201739105  0.7031557959859 1.0
C      1  0.5461760163228  0.8656860831039  0.7189755600511 1.0
C      1  0.4530145700831  0.8510416261482  0.2949851422200 1.0
C      1  0.1424870725527  0.5462409783459  0.2902067300607 1.0
C      1  0.5467556577726  0.2823298097676  0.1343026447842 1.0
C      1  0.2760635247935  0.1342587721726  0.5431060499488 1.0
C      1  0.8547522445234  0.5571674154487  0.7149446320812 1.0
C      1  0.8670935600424  0.4522138604782  0.2772715260999 1.0
C      1  0.1358316449852  0.4539996970683  0.7161954013518 1.0
C      1  0.4471090394411  0.2802565043398  0.8561597428322 1.0
C      1  0.4584789288250  0.7151693894416  0.1467301832011 1.0
C      1  0.5441478716178  0.7203423389275  0.8675430365347 1.0
C      1  0.7180103531833  0.1426903361815  0.4476803777621 1.0
C      1  0.7050966672581  0.8546264337920  0.5438508029971 1.0
C      1  0.2794453255310  0.8631781063226  0.4552487859310 1.0
C      1  0.2214395148663  0.4945381058693  0.2894942535512 1.0
C      1  0.2771686092410  0.2134153314319  0.4915899825788 1.0
C      1  0.4926384261601  0.2809158694321  0.2121941118601 1.0
C      1  0.7806493383038  0.4994886358844  0.7132758360892 1.0
C      1  0.2134953740992  0.5083064559151  0.7173259286166 1.0
C      1  0.7875046565118  0.5031150883272  0.2771751454313 1.0
C      1  0.7150974497305  0.2189732630213  0.5027947657569 1.0
C      1  0.2796652365495  0.7845018275434  0.5071256659587 1.0
C      1  0.7066895754923  0.7819326527771  0.4847018420519 1.0
C      1  0.5015524760884  0.2826001314708  0.7793020175600 1.0
C      1  0.4942855637794  0.7196919284324  0.7868534625256 1.0
C      1  0.5119776453552  0.7127805565952  0.2249920671541 1.0
C      1  0.2884608698075  0.4944575120202  0.2197126976984 1.0
C      1  0.4904942812421  0.2122437040435  0.2800341015559 1.0
C      1  0.2101580500019  0.2815662028847  0.4908956418134 1.0
C      1  0.7090633849680  0.4967269291740  0.7784013592496 1.0
C      1  0.7198967197450  0.5040079684465  0.2099510976406 1.0
C      1  0.2816586281697  0.5106041567552  0.7855783142105 1.0
C      1  0.5035023403123  0.2180257814266  0.7076863403828 1.0
C      1  0.5122481509095  0.7788753366471  0.2936981762814 1.0
C      1  0.4932870964429  0.7872528443397  0.7200143496273 1.0
C      1  0.7801400832172  0.2903926552481  0.5052984186808 1.0
C      1  0.7769982134803  0.7173524489932  0.4840330641097 1.0
C      1  0.2134003903923  0.7156862334563  0.5066992798992 1.0
C      1  0.5073177177320  0.3786474396240  0.7538487385499 1.0
C      1  0.7590795833380  0.5010696574139  0.3727195341748 1.0
C      1  0.3749034109936  0.7574800674758  0.5063220770058 1.0
C      1  0.4915202194761  0.3751519816002  0.2411742956178 1.0
C      1  0.5164978889597  0.6175366408937  0.2514185175654 1.0
C      1  0.4986545421978  0.6252052618645  0.7568144179224 1.0
C      1  0.2419283451859  0.5093413312002  0.6227922144852 1.0
C      1  0.7555880487894  0.4908503007868  0.6174585337277 1.0
C      1  0.2506843283294  0.4861565515973  0.3818717562620 1.0
C      1  0.6114371541429  0.7496276805525  0.4675077240629 1.0
C      1  0.3732711794860  0.2408449893949  0.4943120954120 1.0
C      1  0.6188448827912  0.2439614883447  0.5094236970273 1.0
C      1  0.7500121380751  0.3824408352196  0.5172139364700 1.0
C      1  0.3760171320396  0.5135963800597  0.7561252877240 1.0
C      1  0.5303602542339  0.7482803165074  0.3888498107373 1.0
C      1  0.2400526780429  0.3757842197031  0.4925363521727 1.0
C      1  0.2443410771833  0.6221145989621  0.5059185073699 1.0
C      1  0.7520712180239  0.6212851406397  0.4801928400957 1.0
C      1  0.6261349996860  0.5028261715633  0.2397735759053 1.0
C      1  0.6181662221248  0.4834941584425  0.7479285789505 1.0
C      1  0.3819932649432  0.4891524673059  0.2473196759946 1.0
C      1  0.4958780254360  0.7594736117697  0.6247602043961 1.0
C      1  0.4865725516970  0.2407513649981  0.3745142859590 1.0
C      1  0.5157227423343  0.2491564064163  0.6159979950101 1.0
C      1  0.3239229615807  0.3903337413639  0.8959936915074 1.0
C      1  0.8995477682816  0.3297622136730  0.3885512601348 1.0
C      1  0.3889592442143  0.8902835537783  0.3317929486894 1.0
C      1  0.6733963432189  0.3885867169923  0.0965223545806 1.0
C      1  0.3291943207250  0.6122380761661  0.1065069075617 1.0
C      1  0.6683222768214  0.6106524547391  0.8996223138200 1.0
C      1  0.0990690703112  0.3268450835698  0.6093500023410 1.0
C      1  0.8873381297400  0.6793858605046  0.6045181390837 1.0
C      1  0.0993646270193  0.6721267516573  0.3925916370965 1.0
C      1  0.6082242028574  0.9002575028176  0.6745964843763 1.0
C      1  0.3860732338421  0.1002473915827  0.6663827870241 1.0
C      1  0.6102580782644  0.1014820353552  0.3230280409550 1.0
C      1  0.9011482840156  0.3912992776473  0.3238011146202 1.0
C      1  0.3858541006820  0.3261664032612  0.8910364068517 1.0
C      1  0.3236204839217  0.8965275542284  0.3922275667667 1.0
C      1  0.1023210800257  0.3911461585580  0.6717787097824 1.0
C      1  0.1029520658960  0.6085849478070  0.3295454455897 1.0
C      1  0.8900449407923  0.6188791949167  0.6701744238528 1.0
C      1  0.6090741083367  0.3261049462509  0.0991904456105 1.0
C      1  0.6054147422677  0.6742941949358  0.9013116458592 1.0
C      1  0.3939203778513  0.6738391563349  0.1128671607871 1.0
C      1  0.6680243227376  0.8924478733344  0.6084819463375 1.0
C      1  0.6734441397402  0.1072925737954  0.3857918846459 1.0
C      1  0.3216000202201  0.0998253266665  0.6045986045772 1.0
C      1  0.5272725216880  0.8005303587291  0.4718480582910 1.0
C      1  0.4667699487143  0.5361580691947  0.7906980363265 1.0
C      1  0.7960267892435  0.4699705155947  0.5300010315622 1.0
C      1  0.4631594503144  0.7942228786377  0.5369924358238 1.0
C      1  0.5303794660552  0.2042244151975  0.5286404978343 1.0
C      1  0.4626091310967  0.2051741366837  0.4643369402821 1.0
C      1  0.4689232579467  0.4657188237656  0.2057650345576 1.0
C      1  0.2065052625084  0.4657302819627  0.4683845197573 1.0
C      1  0.7941411476891  0.5328047648104  0.4611961758235 1.0
C      1  0.2067663398165  0.5334937358146  0.5329763583370 1.0
C      1  0.5301602944545  0.4671625540834  0.7916773209101 1.0
C      1  0.5367134128978  0.5304760271639  0.2069913359888 1.0
C      1  0.5026410983283  0.4111726121384  0.5461665611912 1.0
C      1  0.5265424270682  0.6096025267079  0.4743273003289 1.0
C      1  0.5333702531806  0.5120499440287  0.4469034180393 1.0
C      1  0.4464296026690  0.4731442632908  0.4840002483809 1.0
C      1  0.5420257215507  0.4938046860284  0.5900796328789 1.0
C      1  0.5860451683477  0.4506765191213  0.5049951748549 1.0
C      1  0.4789149448079  0.5500656866625  0.5364180420879 1.0
END
