TITL C-171472-1288-9 -5.26 3375.00 -925.94062768 0 0 113 (C1) n - 1
REM
REM Run started: at 2020.12.22 03:29:14 in /rds/project/t2_vol4/rds-t2-cs072/BORA/CARBON/AIRSS/Generating-Clusters/Str-Search/Higher-Symm/C100-200
REM VASP from code version vasp.5.4.4.18Apr17-6-g9f103f2a35 (build Oct 11 2019 16:45:47) gamma-only
REM
REM
REM
REM
REM ./C.cell (533062f00bc710175b3da973d35f2034)
REM AIRSS Version 0.9.1 bugfix July 2018 build 013d7b7c2542+ Fri, 06 Jul 2018 19:26:36 +0100
REM compiler GCC version 4.8.5 20150623 (Red Hat 4.8.5-39)
REM options -cpp -mtune=generic -march=x86-64 -g -O0
REM seed -354078484 1647771701 251258324 -2137482839 -70093197 -254014417 1552060859 541605125 1518688334 -1338203817 -1909599011 -1125187526
REM
REM C.POTCAR (d86ddea03c3ceb6dc662c8ad6801f873)
REM 
CELL 1.54180   15.00000   15.00000   15.00000   90.00000   90.00000   90.00000
LATT -1
SFAC C  
C      1  0.7269940058839  0.3180404044462  0.4212042520450 1.0
C      1  0.7166721772248  0.6927312015293  0.4087219028346 1.0
C      1  0.2296030479797  0.6453379349883  0.3217584663879 1.0
C      1  0.2627850933652  0.4003108427574  0.3481995195491 1.0
C      1  0.8119440297978  0.5546206568918  0.4498597551443 1.0
C      1  0.8167969844659  0.4552780495597  0.4465345607997 1.0
C      1  0.7750531265203  0.3992050074443  0.3845835999757 1.0
C      1  0.7713040904003  0.6088352926247  0.3854792429144 1.0
C      1  0.4590506705926  0.2093283317023  0.5101159458095 1.0
C      1  0.4438634078817  0.7781036796604  0.4959181612725 1.0
C      1  0.7523363292843  0.5178370509731  0.6856174132631 1.0
C      1  0.7514085787998  0.4180531327516  0.6787058923771 1.0
C      1  0.2856157396931  0.7163902110947  0.4984913357686 1.0
C      1  0.2989583486034  0.2756065812636  0.5162459303748 1.0
C      1  0.6356564077590  0.5905517500163  0.5880345607336 1.0
C      1  0.6281932565162  0.4118044835450  0.5737933182013 1.0
C      1  0.5035187975899  0.7691785315762  0.6523357017858 1.0
C      1  0.5181160041846  0.2345742749193  0.6651630481342 1.0
C      1  0.4116168531274  0.7085373420716  0.2969431376584 1.0
C      1  0.4575279137711  0.3140751163463  0.3419845299261 1.0
C      1  0.4967421255618  0.5901834457661  0.3592670373161 1.0
C      1  0.4733018594228  0.4139214456616  0.3551619739748 1.0
C      1  0.3645207978999  0.4261050352592  0.2287469191443 1.0
C      1  0.3834944199247  0.6263558583760  0.2588764858868 1.0
C      1  0.4235470102325  0.4499214160665  0.6999383022700 1.0
C      1  0.4258683348574  0.5474466468947  0.7002842395228 1.0
C      1  0.6150499231054  0.3158734106644  0.2870533851720 1.0
C      1  0.5999123694932  0.6797704124649  0.2742631289056 1.0
C      1  0.6456318020892  0.2359563693287  0.7351707886036 1.0
C      1  0.6272659996123  0.7656696759816  0.7245808483301 1.0
C      1  0.6959175726557  0.4523269176716  0.2366328570488 1.0
C      1  0.6973489208118  0.5496090864742  0.2347890973624 1.0
C      1  0.1742012009989  0.6271477961912  0.4076549642684 1.0
C      1  0.1964741283543  0.3931710870559  0.4320664501279 1.0
C      1  0.2907831903856  0.3074420384578  0.3681929100350 1.0
C      1  0.2566930730381  0.7332043158710  0.3475140324109 1.0
C      1  0.6621438341550  0.2776315775031  0.3621013096840 1.0
C      1  0.6431866347750  0.7172245892176  0.3502190068897 1.0
C      1  0.3569364844873  0.7131821654087  0.6388151655242 1.0
C      1  0.3681111507046  0.2730937752140  0.6575587675049 1.0
C      1  0.6191168222615  0.3984170404641  0.2348736897188 1.0
C      1  0.6197812882193  0.6021777018110  0.2236782995765 1.0
C      1  0.3642311900338  0.7620520281866  0.4502221700185 1.0
C      1  0.3793926653915  0.2353944452495  0.4672622662769 1.0
C      1  0.5638456940498  0.7428110128390  0.7798290917003 1.0
C      1  0.5781667603802  0.2517684438934  0.7901631352912 1.0
C      1  0.3243764310233  0.4599784210851  0.4007496669152 1.0
C      1  0.3333608767442  0.5475649087782  0.3830557171894 1.0
C      1  0.5724542086825  0.4475582706605  0.6497328783700 1.0
C      1  0.5766119539477  0.5487067709704  0.6577042388976 1.0
C      1  0.4612368395400  0.5600330626838  0.2648609401885 1.0
C      1  0.4518566505527  0.4566382558896  0.2611828335243 1.0
C      1  0.5021702396725  0.3185805227582  0.6096350704841 1.0
C      1  0.5028707689977  0.6787016608247  0.6048467926150 1.0
C      1  0.4745558151369  0.4490779467640  0.5265687298940 1.0
C      1  0.4815867761097  0.5488228787832  0.5297937859966 1.0
C      1  0.3746310187682  0.3951227780611  0.7648325491308 1.0
C      1  0.3664809455476  0.6022673954219  0.7517999871415 1.0
C      1  0.2679639038538  0.5714192111054  0.6104216446098 1.0
C      1  0.2736123438822  0.4089549130661  0.6211910375513 1.0
C      1  0.5635420502935  0.4489216236828  0.4009618421450 1.0
C      1  0.5730374231021  0.5409604545242  0.4049207337792 1.0
C      1  0.5082429699744  0.6930220869036  0.3248069671609 1.0
C      1  0.5347306208699  0.2694558099116  0.3194502285108 1.0
C      1  0.5605563163504  0.7518117130562  0.3859775447392 1.0
C      1  0.5832328315863  0.2220962905257  0.3909747491179 1.0
C      1  0.2854530461107  0.4268080828515  0.2544348456802 1.0
C      1  0.3039774994607  0.5938772025554  0.3023666156633 1.0
C      1  0.7611565989015  0.4520129479530  0.3086272668901 1.0
C      1  0.7604573795539  0.5522202212644  0.3081767755453 1.0
C      1  0.7983461066231  0.4476779960109  0.5374562911627 1.0
C      1  0.7924322535239  0.5437131277583  0.5435769925643 1.0
C      1  0.3761532542277  0.2737974524054  0.3782481868035 1.0
C      1  0.3487302662500  0.7561793256022  0.3537904904687 1.0
C      1  0.7069040526141  0.5242130578744  0.7686677088793 1.0
C      1  0.6947659976039  0.4218977646604  0.7545954669988 1.0
C      1  0.6307387188643  0.2458083708265  0.5464118118046 1.0
C      1  0.6214636589991  0.7607813128252  0.5346743290882 1.0
C      1  0.1834635749824  0.4729250339465  0.4874779697700 1.0
C      1  0.1574994327333  0.5518006327298  0.4486266117109 1.0
C      1  0.5762932739859  0.5802224525616  0.4990053482200 1.0
C      1  0.5659411008275  0.4104774584209  0.4925921512797 1.0
C      1  0.2408236051537  0.3096126696470  0.4498235533787 1.0
C      1  0.2161610719161  0.7130899198098  0.4353993387099 1.0
C      1  0.4441832793852  0.2335055544638  0.6039504557680 1.0
C      1  0.4328584457184  0.7532121236731  0.5881465847027 1.0
C      1  0.6136963509460  0.5324021703964  0.7516700225827 1.0
C      1  0.6005090585804  0.4338743960607  0.7469967976911 1.0
C      1  0.3887408980781  0.6939205439894  0.7272854840706 1.0
C      1  0.4011582861064  0.3021914902964  0.7420077245427 1.0
C      1  0.7305990898590  0.5712651900649  0.6057488709929 1.0
C      1  0.7298330074820  0.3873055921485  0.5790387348622 1.0
C      1  0.4780773921511  0.4129071568587  0.6250635112551 1.0
C      1  0.4841024020956  0.5850550803267  0.6294446615430 1.0
C      1  0.3132761400851  0.4440899863487  0.7021511126603 1.0
C      1  0.3068918076572  0.5468170662470  0.6960986171351 1.0
C      1  0.4772760774579  0.7370246846017  0.7421187257865 1.0
C      1  0.4922187348824  0.2641278435930  0.7559167605092 1.0
C      1  0.5412928460312  0.4534594844317  0.2126623957003 1.0
C      1  0.5437003491652  0.5469444701385  0.2077142736909 1.0
C      1  0.6147364006549  0.2191408838464  0.6482956095804 1.0
C      1  0.6008597358629  0.7894159872234  0.6369657095213 1.0
C      1  0.3025744423830  0.3163840316872  0.6017390524917 1.0
C      1  0.2941129417337  0.6649902829360  0.5824843450915 1.0
C      1  0.5838186472926  0.6675643244948  0.5483314263238 1.0
C      1  0.5767939438742  0.3291992633893  0.5481503574023 1.0
C      1  0.7107128317897  0.7323250182865  0.4938875020368 1.0
C      1  0.7177084156588  0.2988927424766  0.5147778238124 1.0
C      1  0.5387385948873  0.7838568458195  0.4685163072548 1.0
C      1  0.5565671513101  0.2051670310716  0.4784109884664 1.0
C      1  0.4251336338751  0.5571662531282  0.4273349820221 1.0
C      1  0.4182276867874  0.4524091675629  0.4338362459096 1.0
C      1  0.2370822148987  0.4845174151441  0.5700765264944 1.0
END
