TITL C-17091-7747-32 -4.048 3375.00 -725.33525517 0 0 89 (C1) n - 1
REM
REM Run started: at 2021.01.04 10:59:50 in /gpfs/home/chem/mssmkc/CARBON/AIRSS/Generating-Clusters/Str-Search/Higher-Symm/C4-100
REM VASP from code version vasp.5.4.4.18Apr17-6-g9f103f2a35 (build Oct 11 2019 16:45:47) gamma-only
REM
REM
REM
REM
REM ./C.cell (6bd13a13d554368a30d355f37ece5b26)
REM AIRSS Version 0.9.1 bugfix July 2018 build 013d7b7c2542+ Fri, 06 Jul 2018 19:26:36 +0100
REM compiler GCC version 6.3.0
REM options -cpp -iprefix /gpfs/warwick/csc/orac/software/Core/GCCcore/6.3.0/bin/../lib/gcc/x86_64-pc-linux-gnu/6.3.0/ -mtune=generic -march=x86-64 -g -O0
REM seed 2142246081 -953329853 953282272 -1167892152 -468786327 -1666415319 -1189786011 513035708 -304758731 581383272 1581070667 1375410340
REM
REM C.POTCAR (d86ddea03c3ceb6dc662c8ad6801f873)
REM 
CELL 1.54180   15.00000   15.00000   15.00000   90.00000   90.00000   90.00000
LATT -1
SFAC C  
C      1  0.2726017018263  0.6099232298508  0.4067814059384 1.0
C      1  0.7054991554708  0.6336722054864  0.4158020388396 1.0
C      1  0.5176194209587  0.2661437717390  0.4091266269916 1.0
C      1  0.6077916205693  0.2974100442262  0.5534536406446 1.0
C      1  0.2912219259619  0.5279505947717  0.5495648520821 1.0
C      1  0.6172518882722  0.6864321606096  0.5517473007232 1.0
C      1  0.5462622686556  0.5295470563325  0.8015960761705 1.0
C      1  0.4954975475360  0.4504967573431  0.8010312456895 1.0
C      1  0.4504879114224  0.5343245892145  0.7999994617547 1.0
C      1  0.6005683353080  0.2759939622313  0.4639282555344 1.0
C      1  0.2423189929293  0.5382156004539  0.4622066983203 1.0
C      1  0.6415141019728  0.6891732409048  0.4636967180823 1.0
C      1  0.4437196389647  0.6467398752163  0.5857352957136 1.0
C      1  0.6624370685797  0.4679749358495  0.5766134648913 1.0
C      1  0.4046864865869  0.3846544749180  0.5792491797832 1.0
C      1  0.2922306402726  0.3415816611184  0.5291971213486 1.0
C      1  0.4608308774656  0.7619180768472  0.5182637464466 1.0
C      1  0.7578882786685  0.3943203643756  0.5292495938549 1.0
C      1  0.6444949948431  0.6133802623287  0.6120147493752 1.0
C      1  0.5317067750016  0.3181924994471  0.6136227766661 1.0
C      1  0.2962211336740  0.5885278830780  0.6293662535108 1.0
C      1  0.3003619590247  0.4415122901291  0.6939425610084 1.0
C      1  0.5448274302364  0.7101772450281  0.6932949276475 1.0
C      1  0.6607684192820  0.3592956527604  0.6961036003776 1.0
C      1  0.5085237504414  0.6073151640260  0.4315741650496 1.0
C      1  0.6085305035266  0.4120364772609  0.4120457983916 1.0
C      1  0.3722677163945  0.4599815267053  0.4393158212480 1.0
C      1  0.2733788119518  0.4812588331204  0.3154655179522 1.0
C      1  0.5891564284599  0.6756751533079  0.3128244301284 1.0
C      1  0.6222854955417  0.3491206667298  0.3221439453845 1.0
C      1  0.4800303861616  0.7558487651144  0.4251488771849 1.0
C      1  0.7551251654017  0.3753994669269  0.4374220548404 1.0
C      1  0.2773442549352  0.3566804569957  0.4368114161269 1.0
C      1  0.4724336323003  0.7114852327370  0.7495239329182 1.0
C      1  0.6960461834244  0.4230259052224  0.7520834552832 1.0
C      1  0.3365489742344  0.3794513834096  0.7495359083333 1.0
C      1  0.3481452443103  0.6739005613016  0.4354188078330 1.0
C      1  0.7348839220659  0.5347767382721  0.4425281879478 1.0
C      1  0.4246776637493  0.2970928588022  0.4402502062078 1.0
C      1  0.5824325447558  0.4924031214284  0.2436539710221 1.0
C      1  0.4057773774120  0.4997398635154  0.2414274720154 1.0
C      1  0.5437378952284  0.5731331171609  0.1927567974527 1.0
C      1  0.3821469536541  0.2949842308863  0.5371398357597 1.0
C      1  0.3751288410393  0.7111525598048  0.5352926666855 1.0
C      1  0.7503234059306  0.4972678511953  0.5384874348188 1.0
C      1  0.4445178102209  0.5514865040487  0.5793370656030 1.0
C      1  0.5917773383944  0.5330478943979  0.5664848591924 1.0
C      1  0.4988456273207  0.4110136548093  0.5678282960340 1.0
C      1  0.3918257828391  0.6738352591782  0.7279957738956 1.0
C      1  0.6969223959551  0.5114296837531  0.7252732000867 1.0
C      1  0.4117318221946  0.3301617608894  0.7221581221646 1.0
C      1  0.4684245234854  0.3594486627331  0.2790813589619 1.0
C      1  0.3728035130669  0.5902591991316  0.2695883043173 1.0
C      1  0.6560705637032  0.5333144375173  0.3081490478861 1.0
C      1  0.6239890917682  0.5674096106452  0.7603591791349 1.0
C      1  0.4953269823141  0.3639986095859  0.7589391031324 1.0
C      1  0.3765624745014  0.5830740406101  0.7632095480445 1.0
C      1  0.7259322202740  0.4645150178795  0.2960241403728 1.0
C      1  0.3719606889973  0.3525554760936  0.2945020581386 1.0
C      1  0.4299710866738  0.6648787116076  0.2868092623151 1.0
C      1  0.4086120308071  0.7217129819913  0.3661906721513 1.0
C      1  0.7702283844309  0.4555370127879  0.3806256288010 1.0
C      1  0.3440330683175  0.3116109244638  0.3774956431534 1.0
C      1  0.3102642543653  0.5380204096208  0.7071795767175 1.0
C      1  0.6088865754531  0.6415379604138  0.7005051328294 1.0
C      1  0.5699338671059  0.3365761496313  0.7032495900546 1.0
C      1  0.6561413515446  0.4121265378510  0.2549071762981 1.0
C      1  0.3350974934233  0.4349201352677  0.2623273973570 1.0
C      1  0.5215855320598  0.6447758514231  0.2530923737710 1.0
C      1  0.5335774483366  0.3069611909460  0.3240347086629 1.0
C      1  0.2907556438603  0.5748686794508  0.3172115206009 1.0
C      1  0.6680887766031  0.6285850281685  0.3267797494856 1.0
C      1  0.6397873398692  0.5039854889022  0.4086060383869 1.0
C      1  0.4395519459181  0.4024157725441  0.4302954552593 1.0
C      1  0.4184768019280  0.6024370504445  0.4458808404841 1.0
C      1  0.7195706058964  0.5395828880550  0.6287286847921 1.0
C      1  0.4304224897508  0.2954542298436  0.6278005888186 1.0
C      1  0.3520529352646  0.6715622803343  0.6292143422260 1.0
C      1  0.3842545895700  0.5320612189679  0.5052029445318 1.0
C      1  0.5614589478120  0.5325643202731  0.4649492090970 1.0
C      1  0.5257912566867  0.4338196501938  0.4639186646394 1.0
C      1  0.5594192186940  0.6993181733821  0.4045545841588 1.0
C      1  0.6680339842794  0.3299006714549  0.4093709708984 1.0
C      1  0.2690643436828  0.4539776404588  0.4103656317552 1.0
C      1  0.3094976879334  0.4253900084490  0.5911386005483 1.0
C      1  0.5239718744541  0.7127406690871  0.5853337929385 1.0
C      1  0.6767666321361  0.3664353927101  0.5883360283035 1.0
C      1  0.4885985839680  0.4524351808688  0.2560286942350 1.0
C      1  0.5111970897375  0.4979492109505  0.6077785457850 1.0
END
