TITL C-17444-8642-6 -5.886 3375.00 -1031.59333988 0 0 127 (C1) n - 1
REM
REM Run started: at 2020.11.22 07:04:35 in /rds/project/t2_vol4/rds-t2-cs072/BORA/CARBON/AIRSS/Generating-Clusters/Str-Search/Higher-Symm
REM VASP from code version vasp.5.4.4.18Apr17-6-g9f103f2a35 (build Oct 11 2019 16:45:47) gamma-only
REM
REM
REM
REM
REM ./C.cell (e5ae0387ce4d49c7c0135a1433873289)
REM AIRSS Version 0.9.1 bugfix July 2018 build 013d7b7c2542+ Fri, 06 Jul 2018 19:26:36 +0100
REM compiler GCC version 4.8.5 20150623 (Red Hat 4.8.5-39)
REM options -cpp -mtune=generic -march=x86-64 -g -O0
REM seed 1503447154 -1245912396 -1847179443 -247247142 -2012952762 455336437 643264047 1692598276 -124181479 -1305897252 -1591143982 1278708177
REM
REM C.POTCAR (d86ddea03c3ceb6dc662c8ad6801f873)
REM 
CELL 1.54180   15.00000   15.00000   15.00000   90.00000   90.00000   90.00000
LATT -1
SFAC C  
C      1  0.7772977315412  0.6718500348637  0.5810061163800 1.0
C      1  0.4329534602512  0.7905028626910  0.5506069507659 1.0
C      1  0.2166021061570  0.5370628733577  0.5712245333988 1.0
C      1  0.3979328642551  0.2279866164297  0.5421164962173 1.0
C      1  0.7566466847930  0.2645933632084  0.5685748054359 1.0
C      1  0.7288624238796  0.2760000611910  0.6630827560939 1.0
C      1  0.7359870704757  0.6744728483402  0.6721690706687 1.0
C      1  0.4334260779950  0.7880095403671  0.6583691568057 1.0
C      1  0.2383615971755  0.5324972213053  0.6735394635123 1.0
C      1  0.4010112187018  0.2479913813159  0.6530044583531 1.0
C      1  0.4711029581671  0.5742991251686  0.4095424599724 1.0
C      1  0.4057627519766  0.5074150659714  0.3943017318905 1.0
C      1  0.4526972974036  0.4241059159483  0.3758444699299 1.0
C      1  0.5420705596042  0.4406637351731  0.3890924279820 1.0
C      1  0.5552159607372  0.5340262354306  0.4043588972703 1.0
C      1  0.3723367459842  0.7405105900870  0.3163087418309 1.0
C      1  0.1866668063359  0.4856063232786  0.3397273563911 1.0
C      1  0.4436913320261  0.2586113368903  0.3258896601328 1.0
C      1  0.7494298970287  0.3684449461648  0.3423437027643 1.0
C      1  0.7243756706064  0.6643182474249  0.3466466290148 1.0
C      1  0.3763997884528  0.4729107320172  0.5690399179758 1.0
C      1  0.5014432918725  0.3395162504515  0.5490217150085 1.0
C      1  0.6497997239996  0.4073083883301  0.6042706588996 1.0
C      1  0.6145823125869  0.6141238683807  0.5795639500352 1.0
C      1  0.4451749778937  0.6223981421838  0.5936088495514 1.0
C      1  0.5029778396872  0.5799594390821  0.1871949815370 1.0
C      1  0.4168772362446  0.5442761072061  0.1754919771780 1.0
C      1  0.4240413439638  0.4474088049428  0.1711472961374 1.0
C      1  0.5165876328558  0.4223837258475  0.1681829174448 1.0
C      1  0.5641606377203  0.5061711916085  0.1753078636897 1.0
C      1  0.3605891027754  0.7857247629541  0.4765063425915 1.0
C      1  0.1877610233260  0.4750494950885  0.4979288339805 1.0
C      1  0.4606618508128  0.1744496833609  0.4673724301193 1.0
C      1  0.7884773705606  0.3355697931753  0.5056767209067 1.0
C      1  0.7468500986972  0.7091263220772  0.4952750553116 1.0
C      1  0.3479316296757  0.6342335842162  0.7411283184370 1.0
C      1  0.3362350829711  0.3855391913234  0.7148269762990 1.0
C      1  0.5779469494439  0.2797135449403  0.7412384134069 1.0
C      1  0.7009856335021  0.5441001012182  0.7870561667904 1.0
C      1  0.5738257995303  0.7455803881563  0.7348982061267 1.0
C      1  0.6215189386314  0.2031359062456  0.6068007805911 1.0
C      1  0.7763250395227  0.5262611386975  0.6359324181933 1.0
C      1  0.5764715295736  0.8082858630495  0.5901050031737 1.0
C      1  0.2650174282314  0.6744662256282  0.6129045694406 1.0
C      1  0.2780456739864  0.3109345839055  0.5814024805161 1.0
C      1  0.6560756202882  0.5525134368343  0.5233016752638 1.0
C      1  0.4861674921733  0.6916854774961  0.5255378807326 1.0
C      1  0.3180110572168  0.5453778144380  0.5359976872788 1.0
C      1  0.4157752366879  0.3237972939368  0.4973374783537 1.0
C      1  0.5984056134731  0.3552578754360  0.5185578625059 1.0
C      1  0.3194805550962  0.6863428109252  0.2749930005877 1.0
C      1  0.2445223290705  0.4122467825776  0.3519247600901 1.0
C      1  0.5139115156250  0.2750836172466  0.2636363146940 1.0
C      1  0.7513901025301  0.4323797851089  0.2824482208611 1.0
C      1  0.6388096068464  0.7028267882714  0.3734698079999 1.0
C      1  0.2365416977645  0.6590134240337  0.4563945760329 1.0
C      1  0.2608662051570  0.2079219089039  0.4445621093185 1.0
C      1  0.6546864356533  0.1896074330059  0.4540888016988 1.0
C      1  0.8273760353998  0.5264443758721  0.4908799977442 1.0
C      1  0.5305637072597  0.8638414205546  0.4375188356382 1.0
C      1  0.2922959863774  0.2328349476414  0.5240951267716 1.0
C      1  0.6954079488797  0.1966099548383  0.5399863715140 1.0
C      1  0.8186624144613  0.5835777801628  0.5711876272842 1.0
C      1  0.5173079558502  0.8467889662695  0.5249124859966 1.0
C      1  0.2076050440728  0.6377963733726  0.5474582887403 1.0
C      1  0.5866799648846  0.7081149233159  0.5415813167931 1.0
C      1  0.3476983002218  0.6405482442610  0.5612938990533 1.0
C      1  0.3333779785756  0.3822341480070  0.5278428548861 1.0
C      1  0.5637643443797  0.2590543408597  0.5474387316688 1.0
C      1  0.7100871451979  0.4794053471021  0.5723466370535 1.0
C      1  0.3011075853315  0.4746748413296  0.7216578562862 1.0
C      1  0.4782116916635  0.2918457583619  0.7101624266097 1.0
C      1  0.7005339763168  0.3611495431296  0.6835018762523 1.0
C      1  0.6582837602150  0.7032898731878  0.7261027146931 1.0
C      1  0.4044616597627  0.7172242997433  0.7273533741361 1.0
C      1  0.4988144675391  0.6361281863251  0.6811855027183 1.0
C      1  0.4543123140880  0.5184962573420  0.5949295103816 1.0
C      1  0.4935060913813  0.3639448096583  0.6447198975987 1.0
C      1  0.5726415039026  0.4190969510221  0.6685308171189 1.0
C      1  0.5791143958865  0.5856322195315  0.6691859297059 1.0
C      1  0.7855419743847  0.4363749781370  0.5181907443942 1.0
C      1  0.6532105213117  0.7233375878602  0.4679930534378 1.0
C      1  0.3395406679489  0.6877349544149  0.4708698323487 1.0
C      1  0.2686871570181  0.4246694420592  0.4536710817363 1.0
C      1  0.5519908112380  0.1950168770356  0.4733019059744 1.0
C      1  0.6549231302928  0.3205186787428  0.3505669250117 1.0
C      1  0.7237071264926  0.5632297139859  0.3575224796205 1.0
C      1  0.4736991720354  0.7283318016204  0.3519267204006 1.0
C      1  0.2068258034181  0.5748126202353  0.3081353376099 1.0
C      1  0.3510279758271  0.2961084027147  0.3272934617939 1.0
C      1  0.8076764835117  0.5739651178430  0.4146177171420 1.0
C      1  0.4701763454747  0.8260768579539  0.3835377647580 1.0
C      1  0.1861745093913  0.6105525992965  0.3953070749756 1.0
C      1  0.3253807547931  0.2081282647498  0.3769933719100 1.0
C      1  0.7016002042117  0.2449216787562  0.3954306261026 1.0
C      1  0.6432984458921  0.6061025645535  0.7454406000230 1.0
C      1  0.4942309562548  0.6874502702673  0.7572700928679 1.0
C      1  0.3743392879181  0.5369370149895  0.7565127240360 1.0
C      1  0.4319396376484  0.3887742827871  0.7280282121752 1.0
C      1  0.6196675358675  0.3642882924517  0.7383006173167 1.0
C      1  0.3059303769133  0.3772763374039  0.2870377950167 1.0
C      1  0.5997231240514  0.3049168894591  0.2720126360883 1.0
C      1  0.7046657745354  0.5106032033128  0.2744373220796 1.0
C      1  0.5617662250697  0.6915876100558  0.3136521148294 1.0
C      1  0.2789247179074  0.6043412108851  0.2538512533897 1.0
C      1  0.3381477932446  0.4360078880829  0.2181440072833 1.0
C      1  0.5451408694723  0.3428739314795  0.2062873703972 1.0
C      1  0.6346328490575  0.5487779777752  0.2239956378829 1.0
C      1  0.5689025748116  0.6278252845109  0.2440534600295 1.0
C      1  0.3280984490589  0.5378059837646  0.2099299348079 1.0
C      1  0.3288174479639  0.5065898093580  0.4454469141970 1.0
C      1  0.4215595879563  0.3335378412335  0.3941844313171 1.0
C      1  0.6070300373533  0.3745056579948  0.4204684043979 1.0
C      1  0.6470994454980  0.5567216980681  0.4275685666030 1.0
C      1  0.4468826155903  0.6663864179529  0.4340392583119 1.0
C      1  0.2674998750660  0.6221087804081  0.6917117199884 1.0
C      1  0.3248837826643  0.3039599952395  0.6638319087323 1.0
C      1  0.6435732017841  0.2256021314432  0.6933159680328 1.0
C      1  0.7493242559095  0.5807500084092  0.7121712386597 1.0
C      1  0.5297433335423  0.8021462099605  0.6720188431834 1.0
C      1  0.7872573803396  0.6696722738984  0.4171715713027 1.0
C      1  0.3733428066362  0.8174171415003  0.3872018203188 1.0
C      1  0.1530188989337  0.5196848671223  0.4251288475537 1.0
C      1  0.4146805074504  0.1776161823723  0.3807409202663 1.0
C      1  0.7756022999830  0.3061411224401  0.4145301996319 1.0
C      1  0.5228018734429  0.5029071481366  0.6727290827210 1.0
C      1  0.4547493039910  0.4857458284806  0.7482818471281 1.0
END
