TITL C-179990-9797-4 -2.448 3375.00 -416.10738541 0 0 52 (S4) n - 1
REM
REM Run started: at 2020.11.28 19:02:31 in /rds/project/t2_vol4/rds-t2-cs072/BORA/CARBON/AIRSS/Generating-Clusters/Str-Search/Higher-Symm/C10-100
REM VASP from code version vasp.5.4.4.18Apr17-6-g9f103f2a35 (build Oct 11 2019 16:45:47) gamma-only
REM
REM
REM
REM
REM ./C.cell (f39ce9773e2efe3fa5bbdf770a4156b8)
REM AIRSS Version 0.9.1 bugfix July 2018 build 013d7b7c2542+ Fri, 06 Jul 2018 19:26:36 +0100
REM compiler GCC version 4.8.5 20150623 (Red Hat 4.8.5-39)
REM options -cpp -mtune=generic -march=x86-64 -g -O0
REM seed 1978978954 -423068208 -1330236207 -834829917 604561639 -1796274643 -1382000751 -1879773162 -331672090 1290091234 2055769141 -571505081
REM
REM C.POTCAR (d86ddea03c3ceb6dc662c8ad6801f873)
REM 
CELL 1.54180   15.00000   15.00000   15.00000   90.00000   90.00000   90.00000
LATT -1
SFAC C  
C      1  0.5625921099445  0.4847455913878  0.7014020637362 1.0
C      1  0.2985979417364  0.5152544443112  0.5625921004624 1.0
C      1  0.4374078909644  0.4847455384325  0.2985979400913 1.0
C      1  0.7014020425395  0.5152544310650  0.4374078882294 1.0
C      1  0.6145392835452  0.3032919667888  0.4811164809634 1.0
C      1  0.5188835619349  0.6967080234853  0.6145392604358 1.0
C      1  0.3854607245824  0.3032919731214  0.5188836040995 1.0
C      1  0.4811164381954  0.6967080145490  0.3854606750464 1.0
C      1  0.3132520088710  0.6075218656374  0.5422171258550 1.0
C      1  0.4577828399468  0.3924781173829  0.3132520358685 1.0
C      1  0.6867479851470  0.6075218635323  0.4577827995325 1.0
C      1  0.5422171670349  0.3924781585285  0.6867480403470 1.0
C      1  0.5015998106527  0.5616791331198  0.7036411644783 1.0
C      1  0.2963588387960  0.4383209043821  0.5015998003294 1.0
C      1  0.4984001940969  0.5616790753623  0.2963588055250 1.0
C      1  0.7036411612510  0.4383209055275  0.4984002215317 1.0
C      1  0.4085541430137  0.5643235125507  0.6697073801118 1.0
C      1  0.3302926193314  0.4356765040417  0.4085541488618 1.0
C      1  0.5914458463194  0.5643234621839  0.3302926046184 1.0
C      1  0.6697073727482  0.4356765245537  0.5914458542297 1.0
C      1  0.3532631149031  0.5054125855874  0.3458287882644 1.0
C      1  0.6541711844830  0.4945873679204  0.3532631252089 1.0
C      1  0.6467368738299  0.5054126282757  0.6541711766486 1.0
C      1  0.3458287990965  0.4945874186156  0.6467368937939 1.0
C      1  0.3912742254729  0.2899042871198  0.4329363518058 1.0
C      1  0.5670636980099  0.7100957024026  0.3912741381600 1.0
C      1  0.6087257974354  0.2899042949459  0.5670637461668 1.0
C      1  0.4329363221670  0.7100957033444  0.6087257375381 1.0
C      1  0.3486143909234  0.6000507540944  0.3655988114939 1.0
C      1  0.6344011282722  0.3999492100659  0.3486144353621 1.0
C      1  0.6513855957947  0.6000507903307  0.6344011082536 1.0
C      1  0.3655988566193  0.3999492495631  0.6513856292918 1.0
C      1  0.4536483540955  0.3609658473435  0.6648638439684 1.0
C      1  0.3351362047158  0.6390341576057  0.4536483077284 1.0
C      1  0.5463516411451  0.3609657947734  0.3351362478743 1.0
C      1  0.6648637982673  0.6390342078304  0.5463516100479 1.0
C      1  0.5356984370638  0.5338298301925  0.5351946445144 1.0
C      1  0.4648053544051  0.4661701790359  0.5356984416178 1.0
C      1  0.4643015665323  0.5338298253787  0.4648053520102 1.0
C      1  0.5351946481699  0.4661701654242  0.4643015703144 1.0
C      1  0.6249906133221  0.6389127623058  0.3894079661679 1.0
C      1  0.6105919954728  0.3610872284985  0.6249906630993 1.0
C      1  0.3750093861442  0.6389127840342  0.6105919504696 1.0
C      1  0.3894080113878  0.3610872138839  0.3750094162532 1.0
C      1  0.4304068831397  0.6233687940017  0.4370499712994 1.0
C      1  0.5629499897707  0.3766311690647  0.4304069281733 1.0
C      1  0.5695931345669  0.6233688041307  0.5629499618056 1.0
C      1  0.4370500003095  0.3766312215581  0.5695931680761 1.0
C      1  0.4367540253480  0.6360235005050  0.3255163563691 1.0
C      1  0.6744836071376  0.3639764704055  0.4367540588740 1.0
C      1  0.5632459857925  0.6360235513414  0.6744836169458 1.0
C      1  0.3255163955543  0.3639764904764  0.5632459880494 1.0
END
