TITL C-17091-7747-65 -4.667 3375.00 -821.41870085 0 0 99 (C1) n - 1
REM
REM Run started: at 2021.01.04 17:08:14 in /gpfs/home/chem/mssmkc/CARBON/AIRSS/Generating-Clusters/Str-Search/Higher-Symm/C4-100
REM VASP from code version vasp.5.4.4.18Apr17-6-g9f103f2a35 (build Oct 11 2019 16:45:47) gamma-only
REM
REM
REM
REM
REM ./C.cell (6bd13a13d554368a30d355f37ece5b26)
REM AIRSS Version 0.9.1 bugfix July 2018 build 013d7b7c2542+ Fri, 06 Jul 2018 19:26:36 +0100
REM compiler GCC version 6.3.0
REM options -cpp -iprefix /gpfs/warwick/csc/orac/software/Core/GCCcore/6.3.0/bin/../lib/gcc/x86_64-pc-linux-gnu/6.3.0/ -mtune=generic -march=x86-64 -g -O0
REM seed -1620471535 842735008 -507273319 -747818057 -1342597489 -1793701338 -1761830313 -761560547 331498961 784992421 203600451 1574054601
REM
REM C.POTCAR (d86ddea03c3ceb6dc662c8ad6801f873)
REM 
CELL 1.54180   15.00000   15.00000   15.00000   90.00000   90.00000   90.00000
LATT -1
SFAC C  
C      1  0.2356091741481  0.5972511220601  0.4161512766084 1.0
C      1  0.7580847120198  0.5844491597209  0.5820109433649 1.0
C      1  0.7645676219423  0.3944512968498  0.4124516308749 1.0
C      1  0.2360128925783  0.4092019117751  0.5839593952327 1.0
C      1  0.2724093082326  0.6711770535292  0.4662783351586 1.0
C      1  0.7249330631357  0.6595697297232  0.5286863530710 1.0
C      1  0.7289439372999  0.3190326815477  0.4603657645620 1.0
C      1  0.2737859615647  0.3355756624129  0.5326323032107 1.0
C      1  0.4561082561515  0.3174529493772  0.3208584476473 1.0
C      1  0.5530765949728  0.2922815797074  0.6878403996158 1.0
C      1  0.5520169269274  0.6954021336405  0.3180362792479 1.0
C      1  0.4394063401209  0.7110097169605  0.6923069283074 1.0
C      1  0.2929443273500  0.3855653368326  0.3630052148951 1.0
C      1  0.7136033870985  0.3652065455978  0.6376717190540 1.0
C      1  0.7070492786795  0.6083843758775  0.3590334243255 1.0
C      1  0.2852918516781  0.6243834199697  0.6417117056827 1.0
C      1  0.5530810743503  0.4452456983571  0.5911227883170 1.0
C      1  0.4849902760744  0.4002196461539  0.3755850516858 1.0
C      1  0.4544207981491  0.5723930264945  0.5940106531293 1.0
C      1  0.5839131575080  0.5107886944380  0.4371087017440 1.0
C      1  0.4914399453910  0.6487050036478  0.2580955197467 1.0
C      1  0.4973806017790  0.6281800145620  0.7392519863643 1.0
C      1  0.5177645890764  0.3425538550899  0.2407062029381 1.0
C      1  0.4913591439179  0.3479512260255  0.7437862771250 1.0
C      1  0.3532828659614  0.3102481268591  0.3405048818678 1.0
C      1  0.6473568087156  0.2917871941138  0.6586675688189 1.0
C      1  0.6460504247565  0.6862039945803  0.3439444224690 1.0
C      1  0.3451048143489  0.7038203782361  0.6612699466642 1.0
C      1  0.2123909211654  0.4570618564759  0.5046330951350 1.0
C      1  0.7834615772069  0.4435462824792  0.4929299830777 1.0
C      1  0.7831280346055  0.5352995526873  0.5024695943649 1.0
C      1  0.2131071009450  0.5486756196603  0.4954463128423 1.0
C      1  0.5267225986931  0.6199592622136  0.5575504341800 1.0
C      1  0.5320403184821  0.5856586534142  0.4681768217888 1.0
C      1  0.4649943503943  0.4278044241188  0.5446914094920 1.0
C      1  0.5066942136035  0.3862870728263  0.4688681501600 1.0
C      1  0.6189613030821  0.4844522229361  0.2726812549797 1.0
C      1  0.3769023752076  0.5080819322939  0.7344156941247 1.0
C      1  0.3839682337632  0.5036143023833  0.2799820591034 1.0
C      1  0.6294542226314  0.4967675736918  0.7512009688831 1.0
C      1  0.2501993064143  0.6246132950937  0.5520944425824 1.0
C      1  0.7498551287267  0.6116440688020  0.4464796966938 1.0
C      1  0.7477779047792  0.3672131503652  0.5489690865746 1.0
C      1  0.2505457786632  0.3813104632188  0.4493128667128 1.0
C      1  0.6754916017974  0.7549026949213  0.4001453318660 1.0
C      1  0.3206585604400  0.7695392226372  0.6001559103672 1.0
C      1  0.3244239231517  0.2396521706107  0.3929728164427 1.0
C      1  0.6731818068783  0.2248896883099  0.5979446728003 1.0
C      1  0.5601786327016  0.5011377701167  0.1973733133233 1.0
C      1  0.4366835610692  0.4956270205257  0.8121774028057 1.0
C      1  0.4427362783520  0.4942633082203  0.2014870333799 1.0
C      1  0.5616754611549  0.4891475789000  0.8170679676050 1.0
C      1  0.7011822650506  0.5248801953652  0.3162266674794 1.0
C      1  0.2880418753040  0.5410877278425  0.6901677456949 1.0
C      1  0.2970888921787  0.4675188135056  0.3174973601463 1.0
C      1  0.6975911452839  0.4552414318034  0.6775976123901 1.0
C      1  0.6597292334279  0.2552026376667  0.4368608083106 1.0
C      1  0.3452294401713  0.2722343303103  0.5511961464284 1.0
C      1  0.3422656394851  0.7354037750369  0.4435884390935 1.0
C      1  0.6544453138672  0.7213864847239  0.5493371148132 1.0
C      1  0.6225069332549  0.7719055621898  0.4755499007908 1.0
C      1  0.3732635343237  0.7796127376079  0.5234575491599 1.0
C      1  0.3785605207803  0.2315262123051  0.4712880468464 1.0
C      1  0.6233492806577  0.2192935484997  0.5190847925659 1.0
C      1  0.4456962762740  0.5618149315356  0.6836877420094 1.0
C      1  0.5500647000439  0.4777276227220  0.3494564731954 1.0
C      1  0.6004039374920  0.4674975548307  0.6614593513407 1.0
C      1  0.4512378145300  0.4930814858014  0.3582400138863 1.0
C      1  0.4960316669060  0.4169438522336  0.8115981226656 1.0
C      1  0.5035740573699  0.4201218628429  0.1851824478455 1.0
C      1  0.5017246779529  0.5673235603936  0.8277234555288 1.0
C      1  0.4999861470726  0.5753850189466  0.1937860285658 1.0
C      1  0.4014871379204  0.6669318915854  0.2942812598922 1.0
C      1  0.5901511859179  0.6452935141828  0.7001835967645 1.0
C      1  0.6063651114937  0.3204161847261  0.2783887493963 1.0
C      1  0.4038865502919  0.3419001916828  0.7000477371820 1.0
C      1  0.2714532809940  0.4494954869344  0.6605092355683 1.0
C      1  0.7318981892173  0.4328256315718  0.3325402661720 1.0
C      1  0.7275476479936  0.5508330770182  0.6601803614470 1.0
C      1  0.2700204824000  0.5589569767252  0.3372201895335 1.0
C      1  0.4675203472120  0.7838883688769  0.5394573804895 1.0
C      1  0.5273380300586  0.7821962571130  0.4638907338842 1.0
C      1  0.5289157175123  0.2188282083404  0.5355418731989 1.0
C      1  0.4726492999738  0.2232636005055  0.4587790261153 1.0
C      1  0.5091307532439  0.2454596133311  0.3729021588853 1.0
C      1  0.4953581164506  0.2467928592760  0.6209434327148 1.0
C      1  0.4956112385535  0.7509291437861  0.3799569592615 1.0
C      1  0.4964220320181  0.7504877261314  0.6249705732913 1.0
C      1  0.3488814244101  0.4162131178525  0.7029439741951 1.0
C      1  0.6638874721052  0.3939635791985  0.2785082421398 1.0
C      1  0.6573763341557  0.5872898470919  0.7175724090048 1.0
C      1  0.3437864590386  0.5951011107580  0.2904731507536 1.0
C      1  0.4051680441013  0.2777328124868  0.6265707559557 1.0
C      1  0.6005183554276  0.2615647306798  0.3584446496053 1.0
C      1  0.5786315232054  0.6911668736122  0.6117482912319 1.0
C      1  0.4031699862628  0.7288345984355  0.3686938006752 1.0
C      1  0.5828772218127  0.4363829090111  0.4994843422039 1.0
C      1  0.4198760567002  0.5104496993833  0.5265347293962 1.0
C      1  0.4452708222645  0.5454430224975  0.4411817612715 1.0
END
