TITL C-17091-7747-91 -4.391 3375.00 -693.44728097 0 0 87 (C1) n - 1
REM
REM Run started: at 2021.01.04 22:50:27 in /gpfs/home/chem/mssmkc/CARBON/AIRSS/Generating-Clusters/Str-Search/Higher-Symm/C4-100
REM VASP from code version vasp.5.4.4.18Apr17-6-g9f103f2a35 (build Oct 11 2019 16:45:47) gamma-only
REM
REM
REM
REM
REM ./C.cell (6bd13a13d554368a30d355f37ece5b26)
REM AIRSS Version 0.9.1 bugfix July 2018 build 013d7b7c2542+ Fri, 06 Jul 2018 19:26:36 +0100
REM compiler GCC version 6.3.0
REM options -cpp -iprefix /gpfs/warwick/csc/orac/software/Core/GCCcore/6.3.0/bin/../lib/gcc/x86_64-pc-linux-gnu/6.3.0/ -mtune=generic -march=x86-64 -g -O0
REM seed 1325290799 -493948616 2114629307 365525356 -887773913 716746346 181198953 -164410901 -262585949 1260262581 1818781205 -166735823
REM
REM C.POTCAR (d86ddea03c3ceb6dc662c8ad6801f873)
REM 
CELL 1.54180   15.00000   15.00000   15.00000   90.00000   90.00000   90.00000
LATT -1
SFAC C  
C      1  0.7799567114020  0.5366799140746  0.5854402460804 1.0
C      1  0.5121531494152  0.2988183168320  0.5563938017869 1.0
C      1  0.2632626806752  0.4446377168543  0.5852465103812 1.0
C      1  0.4673850148091  0.7330377099856  0.5743850416847 1.0
C      1  0.7703157337169  0.4795921744633  0.4181496098454 1.0
C      1  0.5453526001032  0.7262226721016  0.4323443510351 1.0
C      1  0.2674583352499  0.5091706984695  0.4292288358984 1.0
C      1  0.4336215258166  0.2709735892441  0.4166132808899 1.0
C      1  0.3757292299465  0.5141204613312  0.7457019553954 1.0
C      1  0.5178771030745  0.6258373470838  0.7368733397146 1.0
C      1  0.6328095772702  0.4882840464110  0.7412566018708 1.0
C      1  0.4885096985187  0.3807468473105  0.7444154181549 1.0
C      1  0.3838786096266  0.4896803198783  0.2571112668751 1.0
C      1  0.5103220186977  0.3691541914776  0.2588621927041 1.0
C      1  0.6230992362593  0.5125722958812  0.2577780469229 1.0
C      1  0.4867849119565  0.6281379194916  0.2654960131619 1.0
C      1  0.6052212442771  0.5798196884958  0.7340491574101 1.0
C      1  0.5802467716896  0.4073068014947  0.7356232290928 1.0
C      1  0.4012505120619  0.4221642389750  0.7558243951612 1.0
C      1  0.4245675060251  0.5982815822957  0.7407745426119 1.0
C      1  0.5932716489072  0.4212929688766  0.2743415859739 1.0
C      1  0.5774614604314  0.5986301908345  0.2578551086377 1.0
C      1  0.4026138956728  0.5791739820263  0.2694654475677 1.0
C      1  0.4238907736237  0.4015889581252  0.2416965409898 1.0
C      1  0.3580132875372  0.2570460954168  0.3725649396833 1.0
C      1  0.2874900514537  0.5955551165320  0.3972716616431 1.0
C      1  0.6240129164008  0.7085016181482  0.3812859654921 1.0
C      1  0.7210993140702  0.4004624873153  0.3956370081801 1.0
C      1  0.3856980179640  0.7153040730025  0.6202328681455 1.0
C      1  0.2786776137897  0.3722869812477  0.6460486369100 1.0
C      1  0.5996524253607  0.3155023089093  0.5896139758965 1.0
C      1  0.7388710008233  0.6143030857916  0.6232749498327 1.0
C      1  0.2067695732599  0.2970021313539  0.3330799250494 1.0
C      1  0.3126787264658  0.7780207509313  0.4073022951434 1.0
C      1  0.8034265123359  0.7009596078336  0.3426004319920 1.0
C      1  0.6735329962456  0.2249822990171  0.4177865484705 1.0
C      1  0.2063159595568  0.6887901921550  0.6241227075030 1.0
C      1  0.3077386892081  0.1967957765538  0.6539396579761 1.0
C      1  0.7835673218368  0.3042221415110  0.6107205905283 1.0
C      1  0.6990322448595  0.7923124957348  0.6218052891377 1.0
C      1  0.5321920372200  0.7140249062687  0.7105265901618 1.0
C      1  0.7243323679361  0.4674253227505  0.7251626050723 1.0
C      1  0.4707444417359  0.2974417030551  0.7076240727487 1.0
C      1  0.2888102824499  0.5318497165702  0.7134819662352 1.0
C      1  0.5269724464707  0.2792479831326  0.2844844984487 1.0
C      1  0.7154369570375  0.5285201378653  0.2698191710415 1.0
C      1  0.4719838819450  0.7155760374596  0.2943023605529 1.0
C      1  0.2984133901141  0.4461805413872  0.2814834549785 1.0
C      1  0.3879844076396  0.1978162727110  0.6269619859007 1.0
C      1  0.1940621233325  0.6047233740364  0.6203740193162 1.0
C      1  0.6162523450892  0.8098296617515  0.6228471740281 1.0
C      1  0.8127102092016  0.3794463652436  0.6382264016087 1.0
C      1  0.3935996227995  0.7997267376051  0.3941971552565 1.0
C      1  0.1857008672343  0.3746255066506  0.3567897858445 1.0
C      1  0.5933942207443  0.2032526556398  0.4009604934053 1.0
C      1  0.8200158744112  0.6179541692311  0.3344597999482 1.0
C      1  0.5331571183511  0.7700527532622  0.6396029033715 1.0
C      1  0.7870944921947  0.4672771270700  0.6606764114628 1.0
C      1  0.4656712129643  0.2510395320343  0.6302141329739 1.0
C      1  0.2337769105633  0.5222477605232  0.6424338143978 1.0
C      1  0.5143192008595  0.2372262952728  0.3640919516224 1.0
C      1  0.7813086435212  0.5323035871568  0.3318540406987 1.0
C      1  0.4777174979821  0.7655039357462  0.3693403881375 1.0
C      1  0.2388293919498  0.4529882401693  0.3554989939322 1.0
C      1  0.3346893937722  0.6251354588203  0.3208035301062 1.0
C      1  0.6359013973625  0.6628469721914  0.2993101066994 1.0
C      1  0.6561060737519  0.3787618360047  0.3306459356696 1.0
C      1  0.3353983784735  0.3605683210184  0.2607347318106 1.0
C      1  0.3345550154776  0.3614353052951  0.7210225535874 1.0
C      1  0.6253676575924  0.3489800455640  0.6747725471892 1.0
C      1  0.6738046010806  0.6297621952791  0.6896616992623 1.0
C      1  0.3672986120480  0.6619043698716  0.6958524648487 1.0
C      1  0.6922084640129  0.3135987799574  0.3919317397731 1.0
C      1  0.3001460867851  0.2832960901656  0.3105748970608 1.0
C      1  0.3004916734582  0.6869805267425  0.3826376728618 1.0
C      1  0.7081923325451  0.7052495239704  0.3431685267586 1.0
C      1  0.7146710122457  0.7012182670566  0.6399005844778 1.0
C      1  0.2979976670449  0.7026170787026  0.6425460687182 1.0
C      1  0.2908665409985  0.2874443222847  0.6769113403993 1.0
C      1  0.6885860015527  0.3110431021160  0.6168223421257 1.0
C      1  0.5025546741031  0.6758129889103  0.5045253790045 1.0
C      1  0.7834038068501  0.5135551141358  0.4995800487117 1.0
C      1  0.3061989359936  0.4544362846552  0.5030600004546 1.0
C      1  0.4511055560780  0.3370890613315  0.4871029051312 1.0
C      1  0.4829224694142  0.5836157475990  0.5045072952199 1.0
C      1  0.4568862235885  0.5036493649965  0.5096110130192 1.0
C      1  0.4077875816280  0.4241966272700  0.4974110745349 1.0
END
