TITL C-17091-7747-45 -1.713 3375.00 -258.47462032 0 0 32 (Oh) n - 1
REM
REM Run started: at 2021.01.04 13:08:57 in /gpfs/home/chem/mssmkc/CARBON/AIRSS/Generating-Clusters/Str-Search/Higher-Symm/C4-100
REM VASP from code version vasp.5.4.4.18Apr17-6-g9f103f2a35 (build Oct 11 2019 16:45:47) gamma-only
REM
REM
REM
REM
REM ./C.cell (6bd13a13d554368a30d355f37ece5b26)
REM AIRSS Version 0.9.1 bugfix July 2018 build 013d7b7c2542+ Fri, 06 Jul 2018 19:26:36 +0100
REM compiler GCC version 6.3.0
REM options -cpp -iprefix /gpfs/warwick/csc/orac/software/Core/GCCcore/6.3.0/bin/../lib/gcc/x86_64-pc-linux-gnu/6.3.0/ -mtune=generic -march=x86-64 -g -O0
REM seed -1734857002 -1487710419 1503095970 2145319579 -1219636082 -848524032 1739225385 -479262668 -793847531 1109266670 -725963451 -843204243
REM
REM C.POTCAR (d86ddea03c3ceb6dc662c8ad6801f873)
REM 
CELL 1.54180   15.00000   15.00000   15.00000   90.00000   90.00000   90.00000
LATT -1
SFAC C  
C      1  0.3437858210948  0.6529286353276  0.5412919707357 1.0
C      1  0.5400235436687  0.3437754542610  0.6540407750702 1.0
C      1  0.6527395243807  0.5399855354066  0.3449665540431 1.0
C      1  0.6539343507167  0.6528940120309  0.4587310158742 1.0
C      1  0.3437473204034  0.3445813982990  0.4587247068282 1.0
C      1  0.6540002260686  0.3444981338997  0.5413169159015 1.0
C      1  0.4574874826296  0.3438317320979  0.3458572615797 1.0
C      1  0.5400223035720  0.6539836585491  0.3459507651074 1.0
C      1  0.4574297233248  0.6539351958953  0.6542350640991 1.0
C      1  0.3446322540303  0.5401038270807  0.6550939230657 1.0
C      1  0.6528721733141  0.4574206336625  0.6550355208421 1.0
C      1  0.3445033960466  0.4575338088780  0.3449960959543 1.0
C      1  0.3437429281702  0.3445822119413  0.5413115346232 1.0
C      1  0.5400225593815  0.6539852141131  0.6541012675384 1.0
C      1  0.6528863144525  0.4574312213963  0.3450260474316 1.0
C      1  0.6540039980761  0.3445005628501  0.4587477338179 1.0
C      1  0.3437865564234  0.6529270304265  0.4587542911676 1.0
C      1  0.6539367583439  0.6528969966398  0.5413136397026 1.0
C      1  0.4574297118585  0.6539329657004  0.3458131355284 1.0
C      1  0.5400443244168  0.3437793321512  0.3460143464941 1.0
C      1  0.4574720365721  0.3438316425336  0.6541806101303 1.0
C      1  0.3444959082715  0.4575292106095  0.6550327009754 1.0
C      1  0.6527299973178  0.5399880585027  0.6550901248974 1.0
C      1  0.3446372213663  0.5401076502086  0.3449455925464 1.0
C      1  0.6241953538132  0.6242389980487  0.3745822715789 1.0
C      1  0.3732901308447  0.6242768873705  0.6254698084902 1.0
C      1  0.6242543445850  0.3732340686515  0.6254045786054 1.0
C      1  0.6242688511163  0.3732504600262  0.3746497958491 1.0
C      1  0.3733077697699  0.3733826064726  0.6255028892739 1.0
C      1  0.3732941157555  0.6242766790078  0.3745752320533 1.0
C      1  0.3733171915088  0.3733821201216  0.3745348156320 1.0
C      1  0.6241906087058  0.6242404578396  0.6254710145625 1.0
END
