TITL C-17091-7747-70 -3.683 3375.00 -624.31451767 0 0 78 (C1) n - 1
REM
REM Run started: at 2021.01.04 18:50:18 in /gpfs/home/chem/mssmkc/CARBON/AIRSS/Generating-Clusters/Str-Search/Higher-Symm/C4-100
REM VASP from code version vasp.5.4.4.18Apr17-6-g9f103f2a35 (build Oct 11 2019 16:45:47) gamma-only
REM
REM
REM
REM
REM ./C.cell (6bd13a13d554368a30d355f37ece5b26)
REM AIRSS Version 0.9.1 bugfix July 2018 build 013d7b7c2542+ Fri, 06 Jul 2018 19:26:36 +0100
REM compiler GCC version 6.3.0
REM options -cpp -iprefix /gpfs/warwick/csc/orac/software/Core/GCCcore/6.3.0/bin/../lib/gcc/x86_64-pc-linux-gnu/6.3.0/ -mtune=generic -march=x86-64 -g -O0
REM seed 631933150 1808787557 -1876941131 -1760980940 1391604294 1006301957 -157973847 -902694787 590618614 266125258 242612918 -969103111
REM
REM C.POTCAR (d86ddea03c3ceb6dc662c8ad6801f873)
REM 
CELL 1.54180   15.00000   15.00000   15.00000   90.00000   90.00000   90.00000
LATT -1
SFAC C  
C      1  0.4355623448549  0.2955827813676  0.6510873638807 1.0
C      1  0.5690648500502  0.2471321209867  0.4021712567084 1.0
C      1  0.4693358357248  0.4327181353295  0.2766070314084 1.0
C      1  0.5639529810241  0.7066200215686  0.3503774751285 1.0
C      1  0.4322896378579  0.7491456640720  0.6023603115332 1.0
C      1  0.5352033383889  0.5682052464205  0.7205742160762 1.0
C      1  0.5997050091348  0.7061356531607  0.6423657986345 1.0
C      1  0.3982086258569  0.4776517376115  0.7291207150908 1.0
C      1  0.5964251747165  0.2860822238112  0.5835507352411 1.0
C      1  0.4045636718669  0.2975599114613  0.3602612073058 1.0
C      1  0.6037952910493  0.5246242859078  0.2714281737422 1.0
C      1  0.4039262549017  0.7080550665946  0.4239985439991 1.0
C      1  0.6882404267880  0.4230903490560  0.6640357198519 1.0
C      1  0.3322650835706  0.3265083948611  0.5198424846114 1.0
C      1  0.6667405816608  0.3769386972040  0.3447006473888 1.0
C      1  0.3117153735995  0.5785401463512  0.3316728992957 1.0
C      1  0.6711021230766  0.6792705431283  0.4807831373842 1.0
C      1  0.3320040029876  0.6207440949051  0.6542718073545 1.0
C      1  0.4494626974454  0.3896928876374  0.6937529211760 1.0
C      1  0.5729303229325  0.2294936554487  0.4976707934990 1.0
C      1  0.4410879625372  0.3427185243031  0.2773441991445 1.0
C      1  0.5505764066570  0.6135598020950  0.3036800563993 1.0
C      1  0.4278700131319  0.7651299684432  0.5079871102726 1.0
C      1  0.5639186856397  0.6578307575534  0.7237198024912 1.0
C      1  0.6686202776526  0.3998334275181  0.7490627626454 1.0
C      1  0.3739983975933  0.2633667578865  0.5741900234435 1.0
C      1  0.6283155775762  0.2937282232292  0.3238539998678 1.0
C      1  0.3342410825043  0.6037258049247  0.2475615240031 1.0
C      1  0.6275957567946  0.7418415916752  0.4265718822275 1.0
C      1  0.3742184008251  0.7019959021498  0.6760580829846 1.0
C      1  0.5050149155066  0.2722716787177  0.2610714405841 1.0
C      1  0.4909399313911  0.5883229560193  0.2240949639887 1.0
C      1  0.5010621951449  0.8030864507658  0.4583365566090 1.0
C      1  0.4971945622555  0.7246890311430  0.7427028772862 1.0
C      1  0.5122832405932  0.4134741107276  0.7711602200097 1.0
C      1  0.4979244407114  0.1942632655978  0.5463605284103 1.0
C      1  0.3384779705255  0.4861564753352  0.3593321760886 1.0
C      1  0.6595811041214  0.5875379919511  0.4440416905960 1.0
C      1  0.3359246714656  0.6082167532139  0.5587507753464 1.0
C      1  0.6625713613251  0.5151734430704  0.6354030708265 1.0
C      1  0.3382915136490  0.4176657022342  0.5565408986225 1.0
C      1  0.6566724578104  0.3849469325867  0.4402696371838 1.0
C      1  0.6675429027961  0.3592201820426  0.5912002581291 1.0
C      1  0.3386006199700  0.3317994800836  0.4203838599524 1.0
C      1  0.6685755713793  0.4740127637113  0.3206933460130 1.0
C      1  0.3272644973588  0.6400790773247  0.4073362437242 1.0
C      1  0.6655814443902  0.6725626376617  0.5808697450104 1.0
C      1  0.3299434416175  0.5256369106491  0.6825880940481 1.0
C      1  0.3018359422059  0.4118604788295  0.3886522639589 1.0
C      1  0.6968365658192  0.5322884146013  0.3865198878100 1.0
C      1  0.2817979601693  0.6317178398885  0.4920742457643 1.0
C      1  0.6997962718697  0.5908998105287  0.6099832887518 1.0
C      1  0.2989869319615  0.4652870335784  0.6193083878458 1.0
C      1  0.7143713347379  0.3647712659267  0.5063298818162 1.0
C      1  0.4777289099331  0.4273418468356  0.4472669293943 1.0
C      1  0.4974530866884  0.5676776853913  0.3846161024467 1.0
C      1  0.4235902878616  0.6101843327289  0.4354777258745 1.0
C      1  0.5230740683470  0.5770904989726  0.5483807219334 1.0
C      1  0.5006111464604  0.4374971919410  0.6113145226633 1.0
C      1  0.5684372886455  0.3829660041971  0.5640454568566 1.0
C      1  0.5907068565228  0.8158024305296  0.4787554132094 1.0
C      1  0.4094723923735  0.7142445665923  0.7649834715371 1.0
C      1  0.5957218389840  0.3862863548165  0.7898243882570 1.0
C      1  0.4084425704951  0.1862578669601  0.5246969654901 1.0
C      1  0.5927047913636  0.2784377068773  0.2357025284372 1.0
C      1  0.4066400530412  0.6142358006337  0.2057376930932 1.0
C      1  0.5543480545895  0.5254716518367  0.6304842709527 1.0
C      1  0.4300039792887  0.4598104204700  0.5313679931659 1.0
C      1  0.5642983160635  0.4022684313601  0.4705860537077 1.0
C      1  0.4497444741878  0.4768177328123  0.3646828898902 1.0
C      1  0.5638470979310  0.5693975547635  0.4657121005874 1.0
C      1  0.4242918376264  0.5657434257113  0.5252903460946 1.0
C      1  0.4780220250120  0.5052531781635  0.7716469746905 1.0
C      1  0.5139289360795  0.2498508403231  0.6275770758364 1.0
C      1  0.4847695128526  0.2419410655019  0.3558948628071 1.0
C      1  0.5258842520180  0.4969487959567  0.2254633633516 1.0
C      1  0.4849594849048  0.7475040950427  0.3779619681606 1.0
C      1  0.5173107015558  0.7575074587310  0.6478631603966 1.0
END
