TITL C-175456-1997-25 -2.784 3375.00 -473.24032655 0 0 61 (C1) n - 1
REM
REM Run started: at 2020.12.01 04:52:27 in /rds/project/t2_vol4/rds-t2-cs072/BORA/CARBON/AIRSS/Generating-Clusters/Str-Search/Higher-Symm/C10-100
REM VASP from code version vasp.5.4.4.18Apr17-6-g9f103f2a35 (build Oct 11 2019 16:45:47) gamma-only
REM
REM
REM
REM
REM ./C.cell (f39ce9773e2efe3fa5bbdf770a4156b8)
REM AIRSS Version 0.9.1 bugfix July 2018 build 013d7b7c2542+ Fri, 06 Jul 2018 19:26:36 +0100
REM compiler GCC version 4.8.5 20150623 (Red Hat 4.8.5-39)
REM options -cpp -mtune=generic -march=x86-64 -g -O0
REM seed -401662005 -558335469 -598654183 1199004025 -1759673090 971761195 801377150 622820754 67753709 2084121449 839300632 -710110292
REM
REM C.POTCAR (d86ddea03c3ceb6dc662c8ad6801f873)
REM 
CELL 1.54180   15.00000   15.00000   15.00000   90.00000   90.00000   90.00000
LATT -1
SFAC C  
C      1  0.3469478994676  0.2984249028721  0.4594399847037 1.0
C      1  0.2471024833358  0.4130034871230  0.5134273591955 1.0
C      1  0.2599276999489  0.5919694046335  0.4505819537176 1.0
C      1  0.3382469092108  0.7057533395173  0.5359240328531 1.0
C      1  0.5128323764225  0.7573680268052  0.4744960926459 1.0
C      1  0.6608623111875  0.7172465292929  0.5216352062080 1.0
C      1  0.7528991954717  0.5684941672739  0.4449622768831 1.0
C      1  0.7494790602124  0.4065855569282  0.5292396123699 1.0
C      1  0.6485702943691  0.2927690260908  0.4819584487593 1.0
C      1  0.4750419026135  0.2479848509906  0.5421693150249 1.0
C      1  0.6108976866480  0.6250475178775  0.5333317005015 1.0
C      1  0.6551729509323  0.5440646101447  0.4777772187838 1.0
C      1  0.6550222850084  0.4524700640901  0.5362360816888 1.0
C      1  0.5853326456741  0.3754902557158  0.4871713411752 1.0
C      1  0.4872378086689  0.3500513754887  0.5303367159704 1.0
C      1  0.4048531623957  0.3832953409323  0.4695112499423 1.0
C      1  0.3429727342451  0.4575833012932  0.5190606567311 1.0
C      1  0.3546277920877  0.5540883126407  0.4674094597685 1.0
C      1  0.4075662768964  0.6275850368797  0.5272311408525 1.0
C      1  0.5063571520313  0.6540618025572  0.4827820300829 1.0
C      1  0.4344978588174  0.7977910494371  0.4519059445992 1.0
C      1  0.6378381582900  0.7852273306710  0.5899417529174 1.0
C      1  0.7562466360830  0.6548338102628  0.4173107670078 1.0
C      1  0.8225583916555  0.4613041502028  0.5486584963949 1.0
C      1  0.7175675623990  0.2899892073400  0.4060934968177 1.0
C      1  0.5491761770863  0.2067533931943  0.5773188939095 1.0
C      1  0.3767340470162  0.2212491356185  0.4023713503520 1.0
C      1  0.2240613043472  0.3421422688141  0.5805464390034 1.0
C      1  0.2003010553054  0.5310135331230  0.4177965349340 1.0
C      1  0.2585003975510  0.6885125929594  0.5926958257062 1.0
C      1  0.8181125773274  0.5198456355805  0.4865789002826 1.0
C      1  0.7464938861550  0.3270610906055  0.4823996783885 1.0
C      1  0.6240452629031  0.2277254194885  0.5450001168670 1.0
C      1  0.4088901797505  0.2156417804298  0.4855893389762 1.0
C      1  0.2704133167345  0.3085206771571  0.5148616972430 1.0
C      1  0.1983577042396  0.4505520351955  0.4426435994112 1.0
C      1  0.2403592346969  0.6588073906492  0.5121267371141 1.0
C      1  0.3572874201963  0.7756010714897  0.4770285011444 1.0
C      1  0.5807645644078  0.7945751254775  0.5246660530039 1.0
C      1  0.7127253304477  0.7221599192892  0.4437550221140 1.0
C      1  0.4777621422938  0.4148468611525  0.6061460006160 1.0
C      1  0.4521766861036  0.4342107119451  0.3932837611157 1.0
C      1  0.3901488324426  0.4725808872364  0.6108085226058 1.0
C      1  0.4224971191582  0.5339036898314  0.3931553458379 1.0
C      1  0.4346926935319  0.5685949698023  0.6040991885051 1.0
C      1  0.5083956888450  0.5904190392342  0.4012943835941 1.0
C      1  0.6098483015335  0.5835978370394  0.6253565773428 1.0
C      1  0.5898111645141  0.5249629534384  0.4024521261945 1.0
C      1  0.6336869670486  0.4924027530167  0.6270231425929 1.0
C      1  0.5557592135882  0.4279880965097  0.4034276416146 1.0
C      1  0.4645471024517  0.4399507034254  0.2924026297751 1.0
C      1  0.4237392036802  0.4841747374715  0.7165000702413 1.0
C      1  0.4336194016074  0.5344587982254  0.2889082497127 1.0
C      1  0.4637761445171  0.5738039874233  0.6991845368545 1.0
C      1  0.5138246602981  0.5852595152911  0.2962793093907 1.0
C      1  0.5578128865837  0.5749145799020  0.7089892636146 1.0
C      1  0.5925820752625  0.5230049275148  0.2996626880689 1.0
C      1  0.5842551103121  0.4758198762859  0.7099628844943 1.0
C      1  0.5616183829061  0.4318388742028  0.2975490971863 1.0
C      1  0.5036501406207  0.4266604818748  0.7017304475660 1.0
C      1  0.4909489904629  0.5011356930442  0.5600374090315 1.0
END
