TITL C-174638-6268-6 -1.391 3375.00 -216.35461490 0 0 28 (C1) n - 1
REM
REM Run started: at 2020.11.26 07:48:25 in /rds/project/t2_vol4/rds-t2-cs072/BORA/CARBON/AIRSS/Generating-Clusters/Str-Search/Higher-Symm
REM VASP from code version vasp.5.4.4.18Apr17-6-g9f103f2a35 (build Oct 11 2019 16:45:47) gamma-only
REM
REM
REM
REM
REM ./C.cell (e5ae0387ce4d49c7c0135a1433873289)
REM AIRSS Version 0.9.1 bugfix July 2018 build 013d7b7c2542+ Fri, 06 Jul 2018 19:26:36 +0100
REM compiler GCC version 4.8.5 20150623 (Red Hat 4.8.5-39)
REM options -cpp -mtune=generic -march=x86-64 -g -O0
REM seed -1594637625 -540209758 1331787120 -1290210612 -1291203009 -1315789278 -1474066315 -236768439 1816286676 -640413757 1749629446 -994488594
REM
REM C.POTCAR (d86ddea03c3ceb6dc662c8ad6801f873)
REM 
CELL 1.54180   15.00000   15.00000   15.00000   90.00000   90.00000   90.00000
LATT -1
SFAC C  
C      1  0.3172671682941  0.5292283071380  0.5909990772936 1.0
C      1  0.6378107213420  0.5894971627710  0.5990710765898 1.0
C      1  0.4876063703535  0.5468752603534  0.6755147099334 1.0
C      1  0.4682605761510  0.2855592837394  0.5577868136603 1.0
C      1  0.5142183678852  0.4354756976739  0.5300699238979 1.0
C      1  0.6055129413667  0.4003530344448  0.4997599642977 1.0
C      1  0.5628447143298  0.2506807748324  0.5218887607634 1.0
C      1  0.5601319411329  0.5046341726476  0.3252259501012 1.0
C      1  0.6221711663874  0.3100640627780  0.4973920166293 1.0
C      1  0.4779065062964  0.5285542605149  0.5292615417870 1.0
C      1  0.6399751675883  0.5010429063614  0.3789660262296 1.0
C      1  0.6342418925993  0.6271104657591  0.5103184783072 1.0
C      1  0.4938893047434  0.1966627088751  0.5499814826557 1.0
C      1  0.3207203604447  0.6479905253636  0.5151905473266 1.0
C      1  0.2982553386543  0.5523144705874  0.4896575742194 1.0
C      1  0.3929852660688  0.4945799249133  0.3508085639186 1.0
C      1  0.6791832943340  0.5454074401835  0.5221773308768 1.0
C      1  0.5951112167865  0.5831792558717  0.3669877171643 1.0
C      1  0.5677766561624  0.6350298342212  0.4418903780595 1.0
C      1  0.5663217174703  0.5684131938709  0.6528750846505 1.0
C      1  0.3859831512028  0.6296378785554  0.4498362998247 1.0
C      1  0.4151920202173  0.5428252035866  0.6093587825540 1.0
C      1  0.3416151177649  0.5465430170292  0.4062644274146 1.0
C      1  0.4540277088641  0.3710602658888  0.5594223139105 1.0
C      1  0.4710845786154  0.4820463085858  0.3244964350072 1.0
C      1  0.4807309207218  0.6054995126416  0.4744294281950 1.0
C      1  0.3446497282554  0.6182009799911  0.6042671311315 1.0
C      1  0.6645260859673  0.4715338908207  0.4661020636008 1.0
END
