TITL C-179990-9797-36 -2.131 3375.00 -359.28151635 0 0 44 (C1) n - 1
REM
REM Run started: at 2020.11.29 06:11:54 in /rds/project/t2_vol4/rds-t2-cs072/BORA/CARBON/AIRSS/Generating-Clusters/Str-Search/Higher-Symm/C10-100
REM VASP from code version vasp.5.4.4.18Apr17-6-g9f103f2a35 (build Oct 11 2019 16:45:47) gamma-only
REM
REM
REM
REM
REM ./C.cell (f39ce9773e2efe3fa5bbdf770a4156b8)
REM AIRSS Version 0.9.1 bugfix July 2018 build 013d7b7c2542+ Fri, 06 Jul 2018 19:26:36 +0100
REM compiler GCC version 4.8.5 20150623 (Red Hat 4.8.5-39)
REM options -cpp -mtune=generic -march=x86-64 -g -O0
REM seed -1942795234 1620137846 -189638026 892326390 1970091231 1652375834 -1951459464 1130252534 -420365364 -667671059 -768025191 1299921353
REM
REM C.POTCAR (d86ddea03c3ceb6dc662c8ad6801f873)
REM 
CELL 1.54180   15.00000   15.00000   15.00000   90.00000   90.00000   90.00000
LATT -1
SFAC C  
C      1  0.4837161598318  0.6162764690519  0.6800583051318 1.0
C      1  0.3917953409503  0.6245309464397  0.6392809758770 1.0
C      1  0.3415040923984  0.6483191396352  0.5653619111536 1.0
C      1  0.3477511712684  0.6396530033622  0.4692574960608 1.0
C      1  0.3944259737714  0.5829696972117  0.4072897676053 1.0
C      1  0.4574223829847  0.5963937747792  0.3422952836689 1.0
C      1  0.5583895034178  0.6089554930543  0.3396262649489 1.0
C      1  0.6320648129185  0.6108891863145  0.3956797412604 1.0
C      1  0.6658511022835  0.6107050136423  0.4939180930317 1.0
C      1  0.6458740033400  0.6111590859699  0.5845172667498 1.0
C      1  0.5744057966206  0.6129958747445  0.6598749452135 1.0
C      1  0.4642861978657  0.3771905373413  0.3163728010494 1.0
C      1  0.5553623329314  0.3835147417097  0.3282593767062 1.0
C      1  0.6334018455480  0.3860420536970  0.3964038193923 1.0
C      1  0.6627710589350  0.3862434082938  0.4853427936909 1.0
C      1  0.6414976015654  0.3860266283118  0.5893509383673 1.0
C      1  0.5796449398629  0.3849569032499  0.6589520191784 1.0
C      1  0.4791824910405  0.3890357464062  0.6785383201002 1.0
C      1  0.4032209825324  0.3894859664979  0.6228184492678 1.0
C      1  0.4100802963979  0.3419325540030  0.5407653188039 1.0
C      1  0.3643103568742  0.3724867966620  0.4657043833962 1.0
C      1  0.3816576211816  0.3696292870994  0.3721091592104 1.0
C      1  0.3667804142755  0.5411198297258  0.6861782857593 1.0
C      1  0.2727965771609  0.5835384463259  0.5359205359813 1.0
C      1  0.2598999197380  0.6023271380910  0.4406164227317 1.0
C      1  0.3141196454011  0.5134167718260  0.3974274058823 1.0
C      1  0.4617343203913  0.5361249787567  0.2647778787940 1.0
C      1  0.5565917145579  0.5394894433346  0.2676479733041 1.0
C      1  0.7001295551263  0.5417234398817  0.3758530932058 1.0
C      1  0.7297623520498  0.5394276409991  0.4639692328745 1.0
C      1  0.6921231991303  0.5390271834388  0.6373500447348 1.0
C      1  0.6262814800025  0.5397614649229  0.7034319285240 1.0
C      1  0.4482726646917  0.5395723203928  0.7346684381186 1.0
C      1  0.7110090234173  0.4563275817968  0.5973541842469 1.0
C      1  0.5884403706601  0.4578098093489  0.7278992764870 1.0
C      1  0.4946173734602  0.4592218118660  0.7430007883827 1.0
C      1  0.3402230198386  0.4661362061896  0.6347872638372 1.0
C      1  0.2917938977412  0.4912413336984  0.5568235932437 1.0
C      1  0.3117816361846  0.4517587703998  0.4762768866186 1.0
C      1  0.3404336721146  0.4452457614069  0.3273823442897 1.0
C      1  0.4174566895851  0.4550232283828  0.2719425768518 1.0
C      1  0.6019504520221  0.4581981052724  0.2797258561427 1.0
C      1  0.6735963582604  0.4585059760850  0.3387758069086 1.0
C      1  0.7315893996705  0.4556104503807  0.5064130532158 1.0
END
