TITL C-17292-3314-8 -11.781 3375.00 -2335.88536970 0 0 282 (C2h) n - 1
REM
REM Run started: at 2020.11.22 07:23:58 in /rds/project/t2_vol4/rds-t2-cs072/BORA/CARBON/AIRSS/Generating-Clusters/Str-Search/Higher-Symm
REM VASP from code version vasp.5.4.4.18Apr17-6-g9f103f2a35 (build Oct 11 2019 16:45:47) gamma-only
REM
REM
REM
REM
REM ./C.cell (e5ae0387ce4d49c7c0135a1433873289)
REM AIRSS Version 0.9.1 bugfix July 2018 build 013d7b7c2542+ Fri, 06 Jul 2018 19:26:36 +0100
REM compiler GCC version 4.8.5 20150623 (Red Hat 4.8.5-39)
REM options -cpp -mtune=generic -march=x86-64 -g -O0
REM seed -338355671 534441156 584278105 -596556335 -283723249 -1641780797 1819217143 359956737 -1213016934 -2062629368 -856646250 -1735361447
REM
REM C.POTCAR (d86ddea03c3ceb6dc662c8ad6801f873)
REM 
CELL 1.54180   15.00000   15.00000   15.00000   90.00000   90.00000   90.00000
LATT -1
SFAC C  
C      1  0.7371469315782  0.5917081860016  0.9212447259252 1.0
C      1  0.7022880409364  0.4968665216088  0.0856083717484 1.0
C      1  0.0816641273192  0.5406033637497  0.4959830386726 1.0
C      1  0.7373382407620  0.4082837035719  0.0788949499833 1.0
C      1  0.7020778028270  0.5031102955540  0.9143799216330 1.0
C      1  0.0815978105817  0.4592948657043  0.5037268843981 1.0
C      1  0.2628559972604  0.4082893785030  0.0787587473367 1.0
C      1  0.2977580597502  0.5031379970525  0.9144134848294 1.0
C      1  0.9183301418519  0.4593902743754  0.5040113990862 1.0
C      1  0.2626672196359  0.5917204186581  0.9211482876291 1.0
C      1  0.2979035427713  0.4968915670819  0.0856234842146 1.0
C      1  0.9184006743845  0.5406984142660  0.4962832245727 1.0
C      1  0.0471896314570  0.2782737260173  0.5441779498644 1.0
C      1  0.7359309907999  0.4190263363500  0.9024809855277 1.0
C      1  0.7215905687226  0.3294407371441  0.1010996355396 1.0
C      1  0.0472016878613  0.7216716529101  0.4556083945035 1.0
C      1  0.7361547901239  0.5809288081682  0.0976789338599 1.0
C      1  0.7216708806745  0.6706231831091  0.8991432865634 1.0
C      1  0.9528152632266  0.7217242335732  0.4558241821514 1.0
C      1  0.2640417573191  0.5809763022482  0.0975365599386 1.0
C      1  0.2784453944838  0.6705534771248  0.8989150548654 1.0
C      1  0.9528039023018  0.2783247178287  0.5443815622467 1.0
C      1  0.2638525130255  0.4190932295189  0.9023675242293 1.0
C      1  0.2783098580319  0.3293652261064  0.1008520477623 1.0
C      1  0.7170071655111  0.1722028886244  0.2999126458561 1.0
C      1  0.1774425032052  0.1846080639510  0.4671665962484 1.0
C      1  0.5985243781457  0.2078118862172  0.8383735651368 1.0
C      1  0.7169680172534  0.8277856815820  0.7003573168835 1.0
C      1  0.1775004577290  0.8153650995017  0.5324758966257 1.0
C      1  0.5988560040096  0.7922468903926  0.1617021242985 1.0
C      1  0.2829870656702  0.8277881324802  0.7000811480533 1.0
C      1  0.8225584754607  0.8153992604277  0.5328316860478 1.0
C      1  0.4014720508205  0.7921830011053  0.1616357213203 1.0
C      1  0.2830414977486  0.1722203293939  0.2996339554290 1.0
C      1  0.8225008040186  0.1846374878002  0.4675184469611 1.0
C      1  0.4011407455317  0.2077457188877  0.8383069973998 1.0
C      1  0.4072860545092  0.4197406183339  0.5069487728502 1.0
C      1  0.5457428870657  0.4237629353483  0.5848793562670 1.0
C      1  0.5455182432719  0.4184029957555  0.4293605889086 1.0
C      1  0.4073034094363  0.5800826514762  0.4929410516648 1.0
C      1  0.5458660859329  0.5763186767336  0.4151510415556 1.0
C      1  0.5454312137769  0.5816343743571  0.5706964405618 1.0
C      1  0.5927163145781  0.5802602128825  0.4930417717559 1.0
C      1  0.4542658867753  0.5762492629857  0.4151120457304 1.0
C      1  0.4544872637411  0.5815740749681  0.5706497532702 1.0
C      1  0.5926832281311  0.4199182711343  0.5070582456895 1.0
C      1  0.4541215288515  0.4236851764644  0.5848398736400 1.0
C      1  0.4545582830470  0.4183519604584  0.4293025006542 1.0
C      1  0.1803413853164  0.6213408195496  0.4106705562822 1.0
C      1  0.6049102906558  0.6457978381196  0.7952709190085 1.0
C      1  0.7218726071377  0.6113663572339  0.2525172232718 1.0
C      1  0.1802515350739  0.3785990796395  0.5890938853672 1.0
C      1  0.6051031913125  0.3542048189302  0.2048390115691 1.0
C      1  0.7216597740751  0.3886597157923  0.7476527554863 1.0
C      1  0.8196629418558  0.3786729743615  0.5893255711029 1.0
C      1  0.3950772482032  0.3542061897420  0.2047218694208 1.0
C      1  0.2781168715707  0.3886398240856  0.7475014846905 1.0
C      1  0.8197457116104  0.6214020285666  0.4109004914788 1.0
C      1  0.3949226317257  0.6457785429878  0.7951633064917 1.0
C      1  0.2783259114908  0.6113473358977  0.2523516210927 1.0
C      1  0.4500735532218  0.5011595642989  0.7241420707652 1.0
C      1  0.7164320802728  0.4809887679036  0.4328068647600 1.0
C      1  0.3346857844770  0.4753318250472  0.3494162204994 1.0
C      1  0.4502405310296  0.4987992820378  0.2757952015223 1.0
C      1  0.7164040937027  0.5191693079679  0.5674288667579 1.0
C      1  0.3345557110119  0.5245830829886  0.6504073196851 1.0
C      1  0.5499152945435  0.4988504401269  0.2758322788198 1.0
C      1  0.2835821320398  0.5190045898283  0.5672003836946 1.0
C      1  0.6653199576229  0.5246546528884  0.6505779134806 1.0
C      1  0.5497541959712  0.5012039572806  0.7241988923440 1.0
C      1  0.2836022062613  0.4808310434927  0.4325661653009 1.0
C      1  0.6654476460403  0.4754059602881  0.3495976579433 1.0
C      1  0.1265272936920  0.5075029086675  0.6654512795678 1.0
C      1  0.8211806599208  0.5168810958614  0.7506486087885 1.0
C      1  0.6016876901457  0.4830417595515  0.1078043781081 1.0
C      1  0.1266009694054  0.4924646675757  0.3343033267152 1.0
C      1  0.8212900338527  0.4830803112839  0.2495882692182 1.0
C      1  0.6015269914363  0.5169344781620  0.8922009714108 1.0
C      1  0.8734803420666  0.4924921840513  0.3345512973543 1.0
C      1  0.1788189634728  0.4831172452632  0.2493545565258 1.0
C      1  0.3983021450384  0.5169532176604  0.8921794615590 1.0
C      1  0.8733971913437  0.5075361699774  0.6657031650209 1.0
C      1  0.1787149135280  0.5169240638139  0.7504202565447 1.0
C      1  0.3984759026549  0.4830522281271  0.1077945760258 1.0
C      1  0.1285722910633  0.2054325634777  0.5528925446899 1.0
C      1  0.6886432198985  0.2447415199721  0.8206671635959 1.0
C      1  0.6596081308043  0.1982774576522  0.2236900605909 1.0
C      1  0.1286264911054  0.7945428779407  0.4467391304829 1.0
C      1  0.6889864964730  0.7553530463231  0.1793513826096 1.0
C      1  0.6595087091481  0.8017076446143  0.7765191006942 1.0
C      1  0.8714241126784  0.7945723720666  0.4471060746454 1.0
C      1  0.3113430584739  0.7552544166192  0.1793284503327 1.0
C      1  0.3403770908968  0.8017166146596  0.7763068893626 1.0
C      1  0.8713840576142  0.2054646129292  0.5532531685155 1.0
C      1  0.3110111833713  0.2446465155564  0.8206582342325 1.0
C      1  0.3405035632917  0.1982965307380  0.2234760810277 1.0
C      1  0.5814755610640  0.4236979980431  0.3394745828830 1.0
C      1  0.3105492933160  0.4321596124856  0.5167242811775 1.0
C      1  0.6026716512765  0.4409058140429  0.6611280683283 1.0
C      1  0.5813323514438  0.5763683430934  0.6606320219503 1.0
C      1  0.3105836365474  0.5676420256180  0.4830715874216 1.0
C      1  0.6028242504895  0.5591624406329  0.3389401084047 1.0
C      1  0.4185110401077  0.5763045875961  0.6605328828684 1.0
C      1  0.6894424589169  0.5678446630275  0.4832835175555 1.0
C      1  0.3973462771494  0.5590908417276  0.3388532418360 1.0
C      1  0.4186784462377  0.4236317456821  0.3393635292949 1.0
C      1  0.6894054188610  0.4323518948182  0.5169332604215 1.0
C      1  0.3971736898642  0.4408332455317  0.6610617973353 1.0
C      1  0.3090863384921  0.8786965407869  0.6233284345209 1.0
C      1  0.7419132330465  0.8721103225108  0.5404429187091 1.0
C      1  0.4507610256423  0.8557649658954  0.2146524392960 1.0
C      1  0.3090563219914  0.1212882560726  0.3764157766840 1.0
C      1  0.7418277785327  0.1279401070994  0.4598189594168 1.0
C      1  0.4504150991191  0.1441163391296  0.7853362323385 1.0
C      1  0.6909074196242  0.1213130275196  0.3766765529488 1.0
C      1  0.2580888389168  0.1278987372829  0.4595500793815 1.0
C      1  0.5492348285053  0.1442251639369  0.7853615740298 1.0
C      1  0.6909521357869  0.8787247811146  0.6235806799702 1.0
C      1  0.2581733733689  0.8720763525292  0.5401722852900 1.0
C      1  0.5495785273246  0.8558635492772  0.2146819819960 1.0
C      1  0.3109201562832  0.8674927413669  0.2986377895482 1.0
C      1  0.4526921868370  0.8931915569774  0.6995970843354 1.0
C      1  0.7384606612490  0.8744003407281  0.3794589609970 1.0
C      1  0.3105975285440  0.1323288893595  0.7012864211669 1.0
C      1  0.4527373712048  0.1068050280141  0.3003067196065 1.0
C      1  0.7382748257004  0.1256554100937  0.6207020042848 1.0
C      1  0.6890874481876  0.1325218063935  0.7013563757772 1.0
C      1  0.5473114979931  0.1068023628380  0.3004201236968 1.0
C      1  0.2615312915673  0.1255941626729  0.6205281152719 1.0
C      1  0.6893984492966  0.8676689631216  0.2987027931929 1.0
C      1  0.5472693923298  0.8931922472491  0.6997137693416 1.0
C      1  0.2617414024477  0.8743459442394  0.3792908126904 1.0
C      1  0.5957564509370  0.7500109063153  0.4817567891334 1.0
C      1  0.4512205031995  0.7461750510735  0.4022631284346 1.0
C      1  0.4538682504177  0.7523585812210  0.5649717117354 1.0
C      1  0.5958474998319  0.2500064196152  0.5183421360672 1.0
C      1  0.4511632910195  0.2537517270233  0.5977284949334 1.0
C      1  0.4541133020694  0.2476872912179  0.4350178174524 1.0
C      1  0.4042476447047  0.2499802677818  0.5182475421841 1.0
C      1  0.5487843313076  0.2538303076480  0.5977364562682 1.0
C      1  0.5461322800297  0.2476396362367  0.4350230980874 1.0
C      1  0.4041507756934  0.7499898221822  0.4816556450033 1.0
C      1  0.5488425034315  0.7462449138738  0.4022729235729 1.0
C      1  0.5458896538996  0.7523113075873  0.5649829049415 1.0
C      1  0.7343371634539  0.1967227940125  0.7552764923443 1.0
C      1  0.5742153435103  0.1599456195201  0.2263981476862 1.0
C      1  0.1812728754537  0.1785857925581  0.6265053800489 1.0
C      1  0.7345600806896  0.8033493676228  0.2448155057972 1.0
C      1  0.5740908690908  0.8400543119318  0.7737937776933 1.0
C      1  0.1813926142095  0.8214710140564  0.3731793848959 1.0
C      1  0.2656584424832  0.8032911475652  0.2447161845438 1.0
C      1  0.4257710080653  0.8400381553564  0.7736053641657 1.0
C      1  0.8187293538729  0.8214220698979  0.3734915624755 1.0
C      1  0.2654475643985  0.1966485959993  0.7551769973941 1.0
C      1  0.4259222651917  0.1599358663585  0.2262165526514 1.0
C      1  0.8186218878845  0.1785409380802  0.6268141465701 1.0
C      1  0.5963432479798  0.8901890140260  0.2912626103588 1.0
C      1  0.3041166536361  0.9006310565490  0.4597951258046 1.0
C      1  0.5985074545101  0.9061815293677  0.6211462428346 1.0
C      1  0.5959959898464  0.1100543975380  0.7087556197769 1.0
C      1  0.3039028216726  0.0993152047635  0.5400033487267 1.0
C      1  0.5984559414654  0.0938232617582  0.3790452204270 1.0
C      1  0.4036535170362  0.1098115124610  0.7087391983806 1.0
C      1  0.6958971921118  0.0993785792272  0.5401951063659 1.0
C      1  0.4014988464418  0.0938203190643  0.3788686448609 1.0
C      1  0.4040051927134  0.8899588188301  0.2912552408897 1.0
C      1  0.6960931343163  0.9006793614803  0.4599867616903 1.0
C      1  0.4015477876889  0.9061798919540  0.6209602478489 1.0
C      1  0.8335122644738  0.3814645969911  0.2566573986015 1.0
C      1  0.1161597611585  0.3917436815764  0.3403640265903 1.0
C      1  0.5469146494548  0.4355242899270  0.9021984283815 1.0
C      1  0.8334085065408  0.6184846449418  0.7435810234080 1.0
C      1  0.1160922203874  0.6082337656020  0.6593990773001 1.0
C      1  0.5471499897393  0.5644961461268  0.0978922997138 1.0
C      1  0.1664884691957  0.6185293413894  0.7433432876658 1.0
C      1  0.8838508793788  0.6082518518231  0.6596349870066 1.0
C      1  0.4530700575924  0.5644843152295  0.0977883052236 1.0
C      1  0.1665989213411  0.3815201470970  0.2564200325485 1.0
C      1  0.8839021871625  0.3917611421640  0.3405979759157 1.0
C      1  0.4528450393503  0.4355073854064  0.9020883996076 1.0
C      1  0.2147665181133  0.7611207280235  0.6861014407309 1.0
C      1  0.8376500419464  0.7538350456057  0.6057734429746 1.0
C      1  0.4530431494894  0.7251779531772  0.1181424694959 1.0
C      1  0.2149303052698  0.2389921726753  0.3136894667186 1.0
C      1  0.8376327655525  0.2461774095756  0.3945299019458 1.0
C      1  0.4527066532588  0.2748118719665  0.8817357450362 1.0
C      1  0.7852366538385  0.2388659715593  0.3138768028657 1.0
C      1  0.1623579983952  0.2461658294020  0.3942174517913 1.0
C      1  0.5469399832097  0.2748117567793  0.8818742758749 1.0
C      1  0.7850672233928  0.7610028421022  0.6862987300900 1.0
C      1  0.1623664133598  0.7538167361636  0.6054589174848 1.0
C      1  0.5472819686508  0.7251879769586  0.1182706584656 1.0
C      1  0.6623642386460  0.6450453409001  0.3311918643403 1.0
C      1  0.2795427795633  0.6513611743624  0.4278579242506 1.0
C      1  0.5558267785426  0.6645617370669  0.7062476272043 1.0
C      1  0.6621861455474  0.3550145565043  0.6689627927044 1.0
C      1  0.2794459113952  0.3485037603341  0.5719270832266 1.0
C      1  0.5560589275310  0.3354847552881  0.2938379945710 1.0
C      1  0.3376435873694  0.3549564031798  0.6688379333177 1.0
C      1  0.7204582190780  0.3486463965800  0.5721342525557 1.0
C      1  0.4441392695233  0.3354615246061  0.2937568744535 1.0
C      1  0.3378117282898  0.6449873295761  0.3310412939643 1.0
C      1  0.7205475055031  0.6514904333824  0.4280739624000 1.0
C      1  0.4439552515309  0.6644962081777  0.7061454595365 1.0
C      1  0.8754318898901  0.3333089121193  0.4129395991518 1.0
C      1  0.2247727015981  0.3095768389282  0.2494636808120 1.0
C      1  0.4072545293318  0.3575609958345  0.8795705765180 1.0
C      1  0.8754511821331  0.6667334802209  0.5873099164857 1.0
C      1  0.2246008336357  0.6905327541061  0.7503492333449 1.0
C      1  0.4075570885419  0.6424424044329  0.1203128893163 1.0
C      1  0.1245651503264  0.6666869452731  0.5870531167382 1.0
C      1  0.7752186647929  0.6904191421326  0.7505316775525 1.0
C      1  0.5927422258783  0.6424351537394  0.1204275407615 1.0
C      1  0.1245536220339  0.3332608765331  0.4126850187244 1.0
C      1  0.7753909356829  0.3094672628094  0.2496417297863 1.0
C      1  0.5924200634194  0.3575533920827  0.8796839267699 1.0
C      1  0.6919395147667  0.7063540495052  0.8105927239538 1.0
C      1  0.6867644301583  0.6480090403648  0.1573065844356 1.0
C      1  0.1044936926970  0.6367912561248  0.4888874461956 1.0
C      1  0.6920664683924  0.2936473292721  0.1895853258032 1.0
C      1  0.6864228115337  0.3519880955591  0.8427942673296 1.0
C      1  0.1044300134870  0.3631226712140  0.5108542990112 1.0
C      1  0.3080401470636  0.2936481922857  0.1894015429205 1.0
C      1  0.3132658846951  0.3519781877285  0.8426725587647 1.0
C      1  0.8955093809885  0.3632086151992  0.5111023563534 1.0
C      1  0.3079429746440  0.7063549169522  0.8103987556925 1.0
C      1  0.3135916152878  0.6480240116471  0.1571897843582 1.0
C      1  0.8955702484369  0.6368684083915  0.4891494305861 1.0
C      1  0.4203656651579  0.2948987440966  0.6765508465742 1.0
C      1  0.6819964191735  0.2843416600523  0.5019147568037 1.0
C      1  0.4003774439709  0.2815430922623  0.3666715428459 1.0
C      1  0.4205437954360  0.7050220175520  0.3234035796815 1.0
C      1  0.6819582575991  0.7158223117849  0.4982894467633 1.0
C      1  0.4001087553946  0.7184106653268  0.6332493487986 1.0
C      1  0.5796448017157  0.7051082828770  0.3234495497970 1.0
C      1  0.3179952282891  0.7156612432741  0.4980843621903 1.0
C      1  0.5996168221656  0.7184580330573  0.6333345805600 1.0
C      1  0.5794496821614  0.2949914727772  0.6765943804044 1.0
C      1  0.3180443295280  0.2841732497407  0.5017137078118 1.0
C      1  0.5998875997180  0.2815885700046  0.3667414565750 1.0
C      1  0.2641618981783  0.4834811245725  0.7089028695694 1.0
C      1  0.7941208427718  0.4752793555331  0.6135262378063 1.0
C      1  0.4034284887594  0.4551349267000  0.2002609730314 1.0
C      1  0.2643093336648  0.5165087704509  0.2909006416967 1.0
C      1  0.7942087054379  0.5247837050212  0.3867441829295 1.0
C      1  0.4032541808070  0.5448580346287  0.7996847768471 1.0
C      1  0.7358308207073  0.5165257212894  0.2910916254957 1.0
C      1  0.2058794203995  0.5247219673662  0.3864750915394 1.0
C      1  0.5965768133146  0.5448577840394  0.7997456342409 1.0
C      1  0.7356935068039  0.4834859615932  0.7090977940657 1.0
C      1  0.2057980338567  0.4752207929303  0.6132569651890 1.0
C      1  0.5967348050610  0.4551177370450  0.2003102978841 1.0
C      1  0.8267642220519  0.4044179739919  0.7583725294693 1.0
C      1  0.5492312224449  0.3957861377327  0.1298703977054 1.0
C      1  0.1235066703875  0.3990846780555  0.6781068523284 1.0
C      1  0.8269095659961  0.5955707752433  0.2418783424000 1.0
C      1  0.5490593486998  0.6042766981266  0.8701741155731 1.0
C      1  0.1236237551436  0.6008731358729  0.3216441890201 1.0
C      1  0.1732457137232  0.5955740148001  0.2416230110386 1.0
C      1  0.4507548711741  0.6042400999794  0.8701458651230 1.0
C      1  0.8764812256507  0.6009160079311  0.3218877015232 1.0
C      1  0.1730871075643  0.4044253175393  0.7581173593153 1.0
C      1  0.4509406296420  0.3957473278164  0.1298242377333 1.0
C      1  0.8763853460177  0.3991380652015  0.6783579739543 1.0
C      1  0.5488156377777  0.0857526431717  0.6274631374562 1.0
C      1  0.5484998899008  0.0808798249053  0.4616722984586 1.0
C      1  0.4011831247941  0.0832738835027  0.5439222111722 1.0
C      1  0.5491502575234  0.9143474710106  0.3726091353039 1.0
C      1  0.5486698857891  0.9191210635719  0.5384299609317 1.0
C      1  0.4014536130499  0.9166517549707  0.4559372300807 1.0
C      1  0.4511842088757  0.9142544341291  0.3725484698994 1.0
C      1  0.4515071995787  0.9191202184165  0.5383263583461 1.0
C      1  0.5988137789917  0.9167251074210  0.4560822536192 1.0
C      1  0.4508411399986  0.0856602546722  0.6273960856224 1.0
C      1  0.4513359548003  0.0808769913570  0.4615798032135 1.0
C      1  0.5985543289348  0.0833504739560  0.5440643932913 1.0
C      1  0.6818637163891  0.3076805329319  0.4083049539807 1.0
C      1  0.6817211047895  0.6926044203573  0.5919160526888 1.0
C      1  0.3181189148942  0.6923182693496  0.5916917939436 1.0
C      1  0.3182882574313  0.3073967919803  0.4080943370276 1.0
C      1  0.4998785300867  0.3236382521489  0.7215312323415 1.0
C      1  0.5001209746020  0.6763695718521  0.2784730646519 1.0
END
