TITL C-170149-1859-8 -14.782 3375.00 -2822.11349836 0 0 340 (C1) n - 1
REM
REM Run started: at 2020.11.25 13:35:21 in /rds/project/t2_vol4/rds-t2-cs072/BORA/CARBON/AIRSS/Generating-Clusters/Str-Search/Higher-Symm
REM VASP from code version vasp.5.4.4.18Apr17-6-g9f103f2a35 (build Oct 11 2019 16:45:47) gamma-only
REM
REM
REM
REM
REM ./C.cell (e5ae0387ce4d49c7c0135a1433873289)
REM AIRSS Version 0.9.1 bugfix July 2018 build 013d7b7c2542+ Fri, 06 Jul 2018 19:26:36 +0100
REM compiler GCC version 4.8.5 20150623 (Red Hat 4.8.5-39)
REM options -cpp -mtune=generic -march=x86-64 -g -O0
REM seed 179813398 89084989 -1316402321 -1905846737 -1799040913 1077723757 -1987446895 -1718845510 495907577 -174970393 -251702498 691101253
REM
REM C.POTCAR (d86ddea03c3ceb6dc662c8ad6801f873)
REM 
CELL 1.54180   15.00000   15.00000   15.00000   90.00000   90.00000   90.00000
LATT -1
SFAC C  
C      1  0.4139811578511  0.0002117738857  0.6456500723426 1.0
C      1  0.4471584631770  0.8353641223007  0.8430063767712 1.0
C      1  0.4523402548762  0.5946771895454  0.9997370294397 1.0
C      1  0.5945038748495  0.0015817205225  0.3385160792405 1.0
C      1  0.5509013130235  0.8361143723264  0.1433278087370 1.0
C      1  0.5609463778058  0.5932808205629  0.9917684093019 1.0
C      1  0.9507441803668  0.3806694153536  0.7198966215625 1.0
C      1  0.9577650749866  0.7260537449661  0.4887541318668 1.0
C      1  0.9600254853845  0.3678251866482  0.2828131431441 1.0
C      1  0.0500953193610  0.3900473005960  0.3077891297099 1.0
C      1  0.0437335379944  0.7495028432180  0.5354680431615 1.0
C      1  0.0434087344541  0.3561630586316  0.7013592300364 1.0
C      1  0.2054946508696  0.7523137685291  0.7295918800951 1.0
C      1  0.1930809543668  0.5750200403213  0.1705212739797 1.0
C      1  0.1787287137230  0.1634727077264  0.5446919098753 1.0
C      1  0.7883328548665  0.7266420583354  0.2891551427244 1.0
C      1  0.7973840694830  0.5685927596897  0.8114097402660 1.0
C      1  0.8127904409034  0.2087150144081  0.4557508771285 1.0
C      1  0.4163078396610  0.0011875124164  0.5110680712442 1.0
C      1  0.4008489237906  0.7457609619540  0.9688723072277 1.0
C      1  0.4072242733545  0.7475347798745  0.0625157651038 1.0
C      1  0.5907521820153  0.0006248045673  0.4737661294572 1.0
C      1  0.6068966350211  0.7468880424210  0.0230159836878 1.0
C      1  0.5966720863798  0.7499652881747  0.9294554800001 1.0
C      1  0.6254890868053  0.2645273942764  0.1027129667953 1.0
C      1  0.5995576805634  0.2183810943492  0.8607202904423 1.0
C      1  0.7138834210061  0.9051005639504  0.5105652132597 1.0
C      1  0.3277049710304  0.2900229394302  0.8737710934944 1.0
C      1  0.3629777797476  0.2345045755407  0.1302357672360 1.0
C      1  0.2879899651338  0.9138176118754  0.4800859072597 1.0
C      1  0.3203155533603  0.9665278216344  0.6334938062700 1.0
C      1  0.3208796956218  0.3890791509508  0.0414479210147 1.0
C      1  0.3247540565153  0.1666463334213  0.7698320759948 1.0
C      1  0.6893401887324  0.9615816106345  0.3554975211636 1.0
C      1  0.7385100350524  0.4597647543204  0.0436930240463 1.0
C      1  0.6784775844632  0.1909224200090  0.2438851937556 1.0
C      1  0.3376243696851  0.2665304251501  0.6642860378188 1.0
C      1  0.3528610225123  0.8156119327282  0.6143044523568 1.0
C      1  0.3423538678698  0.4364830390634  0.1896709102763 1.0
C      1  0.6587440440463  0.2693700781148  0.3017668350123 1.0
C      1  0.6473053165363  0.8155667788560  0.3710308487621 1.0
C      1  0.6412185898740  0.4184420864912  0.8064561056227 1.0
C      1  0.9307092015345  0.4336938194543  0.8004822281863 1.0
C      1  0.9311621859741  0.7735193109656  0.4036359491405 1.0
C      1  0.9238834323213  0.3158492306100  0.3455006812741 1.0
C      1  0.0886667982043  0.4580961322104  0.2474921689029 1.0
C      1  0.0732017794552  0.8072971653297  0.6118116981037 1.0
C      1  0.0596626959047  0.2640015250864  0.6692900024545 1.0
C      1  0.6672257848267  0.7227752610444  0.1722718848221 1.0
C      1  0.6686844157430  0.1501649630103  0.4254024113653 1.0
C      1  0.6623034817301  0.6345927387090  0.8436970490303 1.0
C      1  0.3272551119836  0.7219306443931  0.8297656809536 1.0
C      1  0.3395294274976  0.1429493169388  0.5650876199429 1.0
C      1  0.3389606649719  0.6274046457208  0.1402528553995 1.0
C      1  0.5358432185765  0.9441957612995  0.4062715235381 1.0
C      1  0.4706259884423  0.2464267513606  0.1731338306223 1.0
C      1  0.4810042221553  0.2845831177797  0.9380207754568 1.0
C      1  0.4683464472939  0.9406517279145  0.5773729732645 1.0
C      1  0.4323402744929  0.1940975709054  0.8027269313219 1.0
C      1  0.4649054538257  0.2942883980002  0.0257716302866 1.0
C      1  0.7857056800235  0.6339366322176  0.3058083333878 1.0
C      1  0.7966038179484  0.2827823069874  0.5247098869085 1.0
C      1  0.7754192225748  0.5601101879125  0.7201565545027 1.0
C      1  0.2253821633871  0.6719070174671  0.6913259122671 1.0
C      1  0.2568847899040  0.3441474290616  0.4756684842129 1.0
C      1  0.2018516733555  0.5777690921441  0.2642054156406 1.0
C      1  0.3292553429675  0.4210986385782  0.4751608501292 1.0
C      1  0.2988137735387  0.5591685143498  0.6338584428413 1.0
C      1  0.3222700651047  0.5823532566320  0.3865364665673 1.0
C      1  0.6983416923881  0.3875333167698  0.5357748723111 1.0
C      1  0.7051732680707  0.5234815139103  0.3413442372450 1.0
C      1  0.6613885405311  0.5985850721283  0.5871022840422 1.0
C      1  0.0183163527871  0.7321910194531  0.6804464534801 1.0
C      1  0.9952668864498  0.5146402211901  0.2567230988026 1.0
C      1  0.9665517877629  0.2227604415612  0.6620862827170 1.0
C      1  0.9842354428486  0.7099077912556  0.3494378847277 1.0
C      1  0.9724882133532  0.5143079806069  0.7689667923915 1.0
C      1  0.0619986872809  0.2600739699451  0.4148783845419 1.0
C      1  0.3712756731130  0.2334666503332  0.5123299566809 1.0
C      1  0.3757163072562  0.6807535925237  0.7216159778420 1.0
C      1  0.3568941232536  0.5925578978063  0.2249862363640 1.0
C      1  0.6263551790691  0.2522100352463  0.4657086000390 1.0
C      1  0.6075997932568  0.6989874922700  0.2558761954954 1.0
C      1  0.6398104275187  0.5890588322083  0.7675692784861 1.0
C      1  0.3405272293863  0.5653512885787  0.8035212503509 1.0
C      1  0.3180027157714  0.7156347803705  0.2969938347522 1.0
C      1  0.3487575818311  0.2589087655641  0.3727148731896 1.0
C      1  0.6677790435937  0.5626663397527  0.1873605251604 1.0
C      1  0.6773296057845  0.7154852632434  0.6828661852908 1.0
C      1  0.6731036398179  0.2325262668661  0.6285120220384 1.0
C      1  0.4126394013031  0.5096870907233  0.2231644801986 1.0
C      1  0.3698933886390  0.3102646367091  0.5819926121344 1.0
C      1  0.3562436685822  0.7148094512082  0.6262026982580 1.0
C      1  0.5885648266503  0.5064456705265  0.7816256503899 1.0
C      1  0.5901104097095  0.2742099508480  0.3690853871282 1.0
C      1  0.6201608862930  0.7275170107397  0.3396867462898 1.0
C      1  0.5249070487273  0.3040770559296  0.6008704588284 1.0
C      1  0.5182616645068  0.6630012995285  0.6176761414687 1.0
C      1  0.5500388050111  0.5383098700722  0.2913982270867 1.0
C      1  0.4803815634176  0.3389835904916  0.4420743684716 1.0
C      1  0.4715297952985  0.6624576010312  0.3566413305770 1.0
C      1  0.4579018568027  0.5391691263821  0.6934629990815 1.0
C      1  0.7528805749978  0.1351639876067  0.4806777341330 1.0
C      1  0.7585754870107  0.6559527425922  0.8387729906774 1.0
C      1  0.7658289286168  0.7340404245206  0.1956331159330 1.0
C      1  0.2562850587884  0.1142182746543  0.5145496924774 1.0
C      1  0.2427594742930  0.6522930576916  0.1360907889268 1.0
C      1  0.2254872652561  0.7320172223216  0.8223418377316 1.0
C      1  0.4352143199321  0.3562988383483  0.7259316290574 1.0
C      1  0.4543755700897  0.7791019917723  0.5131837536398 1.0
C      1  0.3973894056558  0.3972537852448  0.1145126548071 1.0
C      1  0.5121253110148  0.3779852057570  0.2767642399275 1.0
C      1  0.5397772784157  0.7786503584155  0.4668053775923 1.0
C      1  0.5916987479197  0.3832195017547  0.8746817225078 1.0
C      1  0.3013979994987  0.6055283257711  0.7244945210704 1.0
C      1  0.2910316414971  0.6179324654829  0.2981063512991 1.0
C      1  0.3003023016853  0.2637272696098  0.4479547077709 1.0
C      1  0.7230290644223  0.5725460501488  0.2590707114587 1.0
C      1  0.6944269836994  0.6156364913311  0.6825082101891 1.0
C      1  0.6979133594092  0.2826251605110  0.5422630808601 1.0
C      1  0.5933816499204  0.0836359756693  0.4091138258528 1.0
C      1  0.5833988096125  0.6528879252561  0.9023508870003 1.0
C      1  0.6245863914318  0.7915523150925  0.1083722505609 1.0
C      1  0.4170367336149  0.0822461040070  0.5755014711294 1.0
C      1  0.4241008458051  0.6501748136157  0.0894505389144 1.0
C      1  0.3770038118816  0.7898347868210  0.8839144761602 1.0
C      1  0.6073427228734  0.5331287191342  0.3768380570382 1.0
C      1  0.6079957787043  0.4100899470820  0.4967498732486 1.0
C      1  0.5679829028930  0.5831566245207  0.5543921422815 1.0
C      1  0.3995180491330  0.5327262037522  0.5995571977191 1.0
C      1  0.4284890692348  0.4199974641463  0.4677072610871 1.0
C      1  0.4236062703173  0.5849747428123  0.4069027727800 1.0
C      1  0.8088797167460  0.4698403547549  0.1168328865365 1.0
C      1  0.7815427595988  0.1908791568202  0.7746740371250 1.0
C      1  0.8739265118070  0.8270414577606  0.6360377088666 1.0
C      1  0.2272244092341  0.4325388306958  0.8503405646954 1.0
C      1  0.2124301688437  0.2035499614504  0.2513591134378 1.0
C      1  0.1540271879691  0.8442061472564  0.3572609810292 1.0
C      1  0.5176656589170  0.1213299626696  0.3501635615465 1.0
C      1  0.4983587247729  0.6263917968781  0.8545703084480 1.0
C      1  0.4862498683815  0.8072091511452  0.2096010604424 1.0
C      1  0.4906379142275  0.1214670548293  0.6309317216633 1.0
C      1  0.5060253978776  0.6239101226438  0.1450515774256 1.0
C      1  0.5111366281553  0.8040953812577  0.7766473989153 1.0
C      1  0.5466635303706  0.3628514806122  0.3677737143164 1.0
C      1  0.5470326915405  0.4896430576150  0.6986470989521 1.0
C      1  0.5572395967540  0.6914750747295  0.4095169298586 1.0
C      1  0.4497439185517  0.3672305786320  0.6208927774225 1.0
C      1  0.4687067040766  0.4735789950651  0.2976433853161 1.0
C      1  0.4344182689519  0.6904826685684  0.5621061472299 1.0
C      1  0.8560686633655  0.4762168856232  0.3656415360111 1.0
C      1  0.8365160989603  0.3279532914498  0.6185243166858 1.0
C      1  0.8371612072435  0.6359396371961  0.5374530120660 1.0
C      1  0.1322749658419  0.4846085837151  0.6737733631533 1.0
C      1  0.1919558795527  0.3930670731547  0.4257413927114 1.0
C      1  0.1528313220793  0.6651565319489  0.4630895403437 1.0
C      1  0.7147632826630  0.8710991158579  0.3227447501673 1.0
C      1  0.7160536356115  0.1893277695411  0.3348886937628 1.0
C      1  0.7660266299666  0.5021132196938  0.9629907637455 1.0
C      1  0.2973858710954  0.8772701715675  0.6704179772542 1.0
C      1  0.2983808060142  0.1750833755904  0.6585189474709 1.0
C      1  0.2803428418995  0.4512784656009  0.1100181985756 1.0
C      1  0.9874075956630  0.6418250071209  0.4327528880824 1.0
C      1  0.9759695994545  0.3036633526541  0.4316454582850 1.0
C      1  0.9627580042402  0.4833649602791  0.6711938316515 1.0
C      1  0.0435384422320  0.6723442379278  0.6022089167111 1.0
C      1  0.0658251687305  0.3421579442211  0.6068508992428 1.0
C      1  0.0183784237215  0.4783062124473  0.3586550569698 1.0
C      1  0.1619569163269  0.8003675409830  0.2817731831955 1.0
C      1  0.2022419017494  0.1325645131885  0.3090846519008 1.0
C      1  0.1927642626845  0.5228685503531  0.8692817397446 1.0
C      1  0.9233350612380  0.7711016006682  0.6876971929438 1.0
C      1  0.7872987539264  0.1351258394312  0.6995333749838 1.0
C      1  0.8402279576149  0.5588971510225  0.1144819923399 1.0
C      1  0.1538504541004  0.8536033573162  0.6090499683990 1.0
C      1  0.1456435706394  0.4234753540488  0.1761654173371 1.0
C      1  0.1483030806313  0.2313827179841  0.6973545102803 1.0
C      1  0.8529627259990  0.8279629667722  0.4008972439987 1.0
C      1  0.8489437223609  0.4171459014056  0.8458942684265 1.0
C      1  0.8261701572591  0.3187118054073  0.3333142304131 1.0
C      1  0.9777851904370  0.6109663840426  0.2210332683418 1.0
C      1  0.9342712183580  0.1496988497525  0.6232923096169 1.0
C      1  0.9870891518243  0.6804292983453  0.7692769104589 1.0
C      1  0.0259379663090  0.5935885732116  0.8015053468384 1.0
C      1  0.1218177283388  0.1892546891987  0.4594523393095 1.0
C      1  0.0292167168485  0.6926446101084  0.2603728906576 1.0
C      1  0.1132322626421  0.4142874556159  0.7355308311760 1.0
C      1  0.1147003725497  0.7470541195157  0.4669273567446 1.0
C      1  0.0954669748979  0.3012375544608  0.3308233974203 1.0
C      1  0.9103798811583  0.4489784775483  0.2548936813200 1.0
C      1  0.8744438221144  0.7186259984089  0.5403368614013 1.0
C      1  0.8975724812722  0.2946820044396  0.6944949773617 1.0
C      1  0.5888313694216  0.4998689023682  0.2051010776741 1.0
C      1  0.5874850605166  0.2643726243047  0.6653483277003 1.0
C      1  0.5896311467425  0.7395014140863  0.6289857400234 1.0
C      1  0.4173966118076  0.5049780426778  0.7838383985048 1.0
C      1  0.4343423344486  0.2502873105322  0.4205107803468 1.0
C      1  0.4033551490580  0.7410744053009  0.3492277236586 1.0
C      1  0.1578138036730  0.8281733172191  0.4436207884212 1.0
C      1  0.1587537064178  0.2799383594121  0.2634437374722 1.0
C      1  0.1757104654740  0.3764293960283  0.7966794508565 1.0
C      1  0.8356563409808  0.8041837636360  0.5598782180159 1.0
C      1  0.8379490855087  0.2654212969994  0.7758034967139 1.0
C      1  0.8341527997050  0.4187871369279  0.1947233628973 1.0
C      1  0.5377487589662  0.1572028325180  0.8167710128230 1.0
C      1  0.5668842738251  0.9720108728524  0.5702418387357 1.0
C      1  0.5302145208152  0.2867714436719  0.0991967498259 1.0
C      1  0.4269145316306  0.1607199167957  0.1578852010216 1.0
C      1  0.4370014665331  0.9754296837248  0.4131448439949 1.0
C      1  0.4125109824342  0.2544866783007  0.8788836105792 1.0
C      1  0.4583655226068  0.2875148298347  0.2642328270976 1.0
C      1  0.5462182857851  0.4615316902720  0.9140605549821 1.0
C      1  0.5462030821549  0.8463545075967  0.3878642064334 1.0
C      1  0.4299698092145  0.2566753834199  0.7196283339797 1.0
C      1  0.4541458612983  0.4665489384356  0.0828140361069 1.0
C      1  0.4526568294067  0.8425597709378  0.5966166122010 1.0
C      1  0.1621337683415  0.5044381240970  0.3152842955176 1.0
C      1  0.2990248666315  0.3780921985985  0.5584898867475 1.0
C      1  0.2687146807858  0.6582178608428  0.6035308261123 1.0
C      1  0.7898010711189  0.4838794570320  0.6597450771663 1.0
C      1  0.7931631304187  0.3803158546808  0.4902495711408 1.0
C      1  0.7914261629983  0.5646263680764  0.3824878764090 1.0
C      1  0.3557604449202  0.4375137038535  0.9637690446330 1.0
C      1  0.3764882865699  0.8774750561021  0.2980833389436 1.0
C      1  0.3652362049275  0.1353829337734  0.2262669338558 1.0
C      1  0.6447690951535  0.4364817158847  0.0479899003622 1.0
C      1  0.6185755297532  0.8729279348994  0.6849599260885 1.0
C      1  0.6148408869866  0.1261890180986  0.7659207187525 1.0
C      1  0.7971676670964  0.2316795456234  0.3684717428199 1.0
C      1  0.8043140675829  0.4984209353491  0.8806919663274 1.0
C      1  0.7943198047272  0.8172158234323  0.3271310543151 1.0
C      1  0.1982778968069  0.1839509304190  0.6371204560405 1.0
C      1  0.1935759282994  0.4868997332675  0.1301180829806 1.0
C      1  0.2128356509059  0.8397431681979  0.6833589614769 1.0
C      1  0.4809288863852  0.0462957803402  0.6996851631117 1.0
C      1  0.5210876872021  0.8909345120363  0.8563824571715 1.0
C      1  0.5888320818676  0.4947067441442  0.9868638565826 1.0
C      1  0.5256543180282  0.0488125945321  0.2814565104514 1.0
C      1  0.4759283813870  0.8899111835241  0.1259083450063 1.0
C      1  0.4198952411125  0.5002551201328  0.0033450947344 1.0
C      1  0.6755865762442  0.6329546198203  0.1171730178808 1.0
C      1  0.6344231057230  0.0830600509834  0.6882004240546 1.0
C      1  0.6628172650621  0.8434299763948  0.7628962282445 1.0
C      1  0.3358046157679  0.6289202010122  0.8775815363783 1.0
C      1  0.3615145715031  0.0813499615406  0.3008219294191 1.0
C      1  0.3331155969768  0.8467523959412  0.2203283278584 1.0
C      1  0.2375824550548  0.6542073005558  0.5098831201106 1.0
C      1  0.2387168713855  0.4372551308736  0.3438147551955 1.0
C      1  0.2602445888607  0.4031568575467  0.6430040534754 1.0
C      1  0.7731188812662  0.6090416307622  0.4715398609858 1.0
C      1  0.7640837407372  0.3897994856742  0.6774365948785 1.0
C      1  0.7930917511437  0.3994868628261  0.3911179340706 1.0
C      1  0.3069749527056  0.2146046751811  0.2156003152329 1.0
C      1  0.3256316513297  0.3953889451623  0.8730304433166 1.0
C      1  0.3631241624547  0.8975996359608  0.3985573157382 1.0
C      1  0.6765575256573  0.2001890097619  0.7945046615558 1.0
C      1  0.6074093022012  0.3636322789278  0.1150903006589 1.0
C      1  0.6353704594751  0.8921232498284  0.5857774204543 1.0
C      1  0.4058020839820  0.8170139081085  0.1485479338029 1.0
C      1  0.4417521212821  0.0450959832616  0.3379578430297 1.0
C      1  0.4203594748365  0.6494933825555  0.9256724876172 1.0
C      1  0.5914740132710  0.8186741782856  0.8384411979401 1.0
C      1  0.5619712035875  0.0418485532613  0.6448470295576 1.0
C      1  0.5916795001371  0.6488414284839  0.0659071754782 1.0
C      1  0.7669170686729  0.1071159599253  0.5662661056568 1.0
C      1  0.8005258606612  0.7245107751973  0.7924105744735 1.0
C      1  0.8274393902544  0.6911672047083  0.1405534790437 1.0
C      1  0.2389615921582  0.0832722404206  0.4288990646918 1.0
C      1  0.2022282085017  0.7247259123295  0.1757568814439 1.0
C      1  0.1807005865164  0.6606927708043  0.8620850708439 1.0
C      1  0.1981384725255  0.3520728091099  0.2116318442504 1.0
C      1  0.2060399729544  0.2863281553076  0.7629684102225 1.0
C      1  0.2089440520123  0.8620145922938  0.5155363419645 1.0
C      1  0.7988671591227  0.3424749991317  0.8185391656950 1.0
C      1  0.7866229620306  0.3534896144490  0.2422488359984 1.0
C      1  0.7872195118580  0.8408993028182  0.4865220477938 1.0
C      1  0.7047786775985  0.1306351477791  0.6417976954614 1.0
C      1  0.7263553540534  0.7720915174571  0.7393268752258 1.0
C      1  0.7774597923894  0.6287512463504  0.0865973395641 1.0
C      1  0.2774564280352  0.0813968653968  0.3419702071440 1.0
C      1  0.2592798103721  0.7804854862741  0.2410468464105 1.0
C      1  0.2417494115028  0.5986898179142  0.9029774846038 1.0
C      1  0.8969386190162  0.7207217762215  0.7638573392443 1.0
C      1  0.9007905277402  0.6212198535814  0.1659248077632 1.0
C      1  0.8453337316573  0.1223883983062  0.6261031444715 1.0
C      1  0.1123159293385  0.7362967829836  0.2292624244541 1.0
C      1  0.1133848059880  0.5887276164240  0.8398740148526 1.0
C      1  0.1597755416117  0.1311265239118  0.3968450402518 1.0
C      1  0.5313705286347  0.8190154398661  0.6766471590293 1.0
C      1  0.4966809744147  0.5217157524824  0.1527857118240 1.0
C      1  0.5005882819558  0.2186620838231  0.6543244966038 1.0
C      1  0.4639124050568  0.8233432374431  0.3072737071530 1.0
C      1  0.5059455831536  0.5241363240260  0.8440314677158 1.0
C      1  0.5027753341361  0.2196670674779  0.3507847762331 1.0
C      1  0.3169220165572  0.4808599796561  0.3932973765422 1.0
C      1  0.2236634119339  0.4906278555726  0.6450436638690 1.0
C      1  0.3090668573453  0.6208779346215  0.4722968020653 1.0
C      1  0.6997443846303  0.4379582166527  0.6203069525813 1.0
C      1  0.7013892329735  0.4224775536621  0.3513021969718 1.0
C      1  0.6864062725796  0.6169527006242  0.4998786789461 1.0
C      1  0.4553620996435  0.4519264868811  0.5614814378090 1.0
C      1  0.4005167207094  0.6078452845701  0.5119674094351 1.0
C      1  0.4232142876137  0.4834823952217  0.3863775294935 1.0
C      1  0.6117689349418  0.4314019559868  0.4012560815696 1.0
C      1  0.5978766581972  0.6077918181308  0.4536790115236 1.0
C      1  0.6029504428231  0.4605577614452  0.6370014597000 1.0
C      1  0.6836745603473  0.9686099886490  0.4477771826491 1.0
C      1  0.6650512254691  0.2088889756678  0.1592197692737 1.0
C      1  0.5714057641583  0.2950353349161  0.9017563666501 1.0
C      1  0.3238954154630  0.9739276403035  0.5410309131346 1.0
C      1  0.2755463408955  0.2345795220594  0.8140336423559 1.0
C      1  0.3748495938493  0.3075931257922  0.0681690128247 1.0
C      1  0.6029200425889  0.3980716595117  0.2125972710149 1.0
C      1  0.6656407652961  0.2751004289493  0.7250479792285 1.0
C      1  0.6135607570380  0.7965028953545  0.5385182270903 1.0
C      1  0.3935308719676  0.4103117048716  0.7890088752698 1.0
C      1  0.3503671741084  0.2907909401450  0.2809062891821 1.0
C      1  0.3793093445737  0.8015522866694  0.4453765822000 1.0
C      1  0.0990395353816  0.5144425537693  0.4043860955714 1.0
C      1  0.0559826569182  0.4151483164523  0.5410461686290 1.0
C      1  0.0585924959208  0.5888471895032  0.5683557200383 1.0
C      1  0.8779607778876  0.4872594621013  0.6059287384960 1.0
C      1  0.9598466221720  0.3906527282774  0.4898561755106 1.0
C      1  0.9384890536945  0.5579561054553  0.4651803444741 1.0
C      1  0.2673075118501  0.3281003378840  0.6948619487916 1.0
C      1  0.3060596936158  0.8205089399989  0.5184539270704 1.0
C      1  0.2880630032842  0.3769376720118  0.2558176888583 1.0
C      1  0.6878247088523  0.3615183204043  0.2685116210912 1.0
C      1  0.6902541641933  0.8093452576044  0.4699871114521 1.0
C      1  0.7130517788017  0.3601985707682  0.7612077345513 1.0
C      1  0.9425597254907  0.4716507057266  0.4201150025349 1.0
C      1  0.8751318846793  0.3999438428236  0.5532845491411 1.0
C      1  0.8934966245400  0.5605412903674  0.5428126649541 1.0
C      1  0.0513326684472  0.4993327351553  0.6131208780492 1.0
C      1  0.1245638816063  0.4392143043298  0.4654742990856 1.0
C      1  0.0793919058976  0.5984937434269  0.4645934501890 1.0
C      1  0.5270255865340  0.6357325698828  0.2577649906158 1.0
C      1  0.5535712811148  0.3163817872921  0.5080409771520 1.0
C      1  0.4709250124954  0.6373137606356  0.7160131584110 1.0
C      1  0.5548157869779  0.4788841712248  0.5544064524917 1.0
END
