TITL C-179990-9797-1 -0.598 3375.00 -85.86278861 0 0 11 (Cs) n - 1
REM
REM Run started: at 2020.11.28 18:32:18 in /rds/project/t2_vol4/rds-t2-cs072/BORA/CARBON/AIRSS/Generating-Clusters/Str-Search/Higher-Symm/C10-100
REM VASP from code version vasp.5.4.4.18Apr17-6-g9f103f2a35 (build Oct 11 2019 16:45:47) gamma-only
REM
REM
REM
REM
REM ./C.cell (f39ce9773e2efe3fa5bbdf770a4156b8)
REM AIRSS Version 0.9.1 bugfix July 2018 build 013d7b7c2542+ Fri, 06 Jul 2018 19:26:36 +0100
REM compiler GCC version 4.8.5 20150623 (Red Hat 4.8.5-39)
REM options -cpp -mtune=generic -march=x86-64 -g -O0
REM seed 1915242596 766801555 318180672 -598475350 -1712097115 -557676179 110428316 1890324909 1499782339 1960133747 -201702542 1750136254
REM
REM C.POTCAR (d86ddea03c3ceb6dc662c8ad6801f873)
REM 
CELL 1.54180   15.00000   15.00000   15.00000   90.00000   90.00000   90.00000
LATT -1
SFAC C  
C      1  0.5000000011093  0.4437603028732  0.6318255963691 1.0
C      1  0.4999999997480  0.3700490170918  0.5902608421471 1.0
C      1  0.5000000011798  0.3493798157910  0.5023962493630 1.0
C      1  0.4999999995248  0.3716708172223  0.4219514421340 1.0
C      1  0.4999999998549  0.4320943989225  0.3550166692839 1.0
C      1  0.4999999989337  0.5168714855978  0.3578841650864 1.0
C      1  0.4999999996236  0.6037929432701  0.3762602839327 1.0
C      1  0.4999999995392  0.6339152287710  0.4572844164540 1.0
C      1  0.5000000007375  0.6555145254359  0.5420789414367 1.0
C      1  0.4999999998812  0.5947230884536  0.6050495940940 1.0
C      1  0.4999999998680  0.5282283765708  0.6599917996993 1.0
END
