TITL C-17444-8642-2 -10.56 3375.00 -1927.63970131 0 0 234 (C1) n - 1
REM
REM Run started: at 2020.11.21 22:24:21 in /rds/project/t2_vol4/rds-t2-cs072/BORA/CARBON/AIRSS/Generating-Clusters/Str-Search/Higher-Symm
REM VASP from code version vasp.5.4.4.18Apr17-6-g9f103f2a35 (build Oct 11 2019 16:45:47) gamma-only
REM
REM
REM
REM
REM ./C.cell (e5ae0387ce4d49c7c0135a1433873289)
REM AIRSS Version 0.9.1 bugfix July 2018 build 013d7b7c2542+ Fri, 06 Jul 2018 19:26:36 +0100
REM compiler GCC version 4.8.5 20150623 (Red Hat 4.8.5-39)
REM options -cpp -mtune=generic -march=x86-64 -g -O0
REM seed -1511053984 -1000373224 -526538657 -1836365073 1891279937 -358776470 1806273542 1704267573 -1995932464 -1365188493 701276145 -496893281
REM
REM C.POTCAR (d86ddea03c3ceb6dc662c8ad6801f873)
REM 
CELL 1.54180   15.00000   15.00000   15.00000   90.00000   90.00000   90.00000
LATT -1
SFAC C  
C      1  0.2912937290040  0.7529776882151  0.1954610900601 1.0
C      1  0.3751786693908  0.2736741063783  0.1312620221496 1.0
C      1  0.3265543967726  0.2023900870274  0.5035710707706 1.0
C      1  0.4230917108734  0.0741104484339  0.5149937971035 1.0
C      1  0.6809439370755  0.4911915881730  0.3255334182255 1.0
C      1  0.6663563568436  0.7611164913447  0.7498885064719 1.0
C      1  0.4999838434611  0.9741425720995  0.6759176449991 1.0
C      1  0.2265872631611  0.1897581925867  0.5025181687169 1.0
C      1  0.7018906854418  0.4415699328558  0.8873012201227 1.0
C      1  0.4441613837273  0.4690348713338  0.6206534609590 1.0
C      1  0.2973978145892  0.7766261800845  0.7606967853512 1.0
C      1  0.1075206230802  0.4529756802926  0.5930697410207 1.0
C      1  0.8379265325349  0.3164180996995  0.6445775409427 1.0
C      1  0.9074335845068  0.4687231902384  0.6493418028191 1.0
C      1  0.1112681175668  0.8078842348178  0.5869838411070 1.0
C      1  0.6192774981009  0.6980689053713  0.1936565642579 1.0
C      1  0.3724982925185  0.5704052399496  0.3987037841335 1.0
C      1  0.8804676814706  0.5542339560052  0.6816072904658 1.0
C      1  0.7909073379863  0.6278307046686  0.2985990713258 1.0
C      1  0.8126058343219  0.5973309476581  0.7470864332076 1.0
C      1  0.2378713154192  0.2660499295264  0.6585021263461 1.0
C      1  0.6172143334660  0.3105161751300  0.8397897591163 1.0
C      1  0.7205289482008  0.5672105350014  0.7771929428485 1.0
C      1  0.5351251009694  0.3923714332715  0.4324665528469 1.0
C      1  0.3277816527881  0.7129746496432  0.8200254135240 1.0
C      1  0.6637413426037  0.3140027673955  0.2661665524453 1.0
C      1  0.5741839738960  0.5261204557544  0.8564696758017 1.0
C      1  0.6805661323922  0.2679857741912  0.4239393818912 1.0
C      1  0.1056293838518  0.5779160091544  0.3924455807718 1.0
C      1  0.1476088000159  0.5105066870855  0.3265608043731 1.0
C      1  0.8639964718424  0.3752871852733  0.3274094501781 1.0
C      1  0.6667104703836  0.5312097060292  0.8613090883361 1.0
C      1  0.6409340159488  0.5659871644455  0.0969640486526 1.0
C      1  0.3449308962708  0.2349648652587  0.3328424536480 1.0
C      1  0.5020178525084  0.6435691874341  0.1222759064730 1.0
C      1  0.3463279580036  0.2681839494827  0.6563970228454 1.0
C      1  0.3325766310075  0.8717234883934  0.4602597975447 1.0
C      1  0.2609649076725  0.8587927685014  0.5208238436729 1.0
C      1  0.2356314876340  0.6741959150461  0.2110814662903 1.0
C      1  0.2021903532698  0.6592751662459  0.6100212306295 1.0
C      1  0.5601808324724  0.5462794032880  0.2559966751769 1.0
C      1  0.5517671258005  0.0834626090453  0.2921864025991 1.0
C      1  0.4326262053888  0.6232469035162  0.8881098247199 1.0
C      1  0.3528294011149  0.3981549705730  0.2953960111800 1.0
C      1  0.1837787571818  0.3414966462490  0.6896709600475 1.0
C      1  0.4214255221747  0.6375804009957  0.2643133380258 1.0
C      1  0.2825208850324  0.6294708094313  0.8490888233536 1.0
C      1  0.3113183921722  0.3850553280549  0.4285940556065 1.0
C      1  0.3630848005302  0.4566652586203  0.3790870456567 1.0
C      1  0.7567906131289  0.7531411415164  0.7085495218180 1.0
C      1  0.4861559720273  0.6142827113585  0.5667449867450 1.0
C      1  0.6013933812609  0.6524191120601  0.1129457983723 1.0
C      1  0.1724361381791  0.2135125425461  0.4268974797655 1.0
C      1  0.8601411580990  0.8104610079136  0.4924209699153 1.0
C      1  0.6675951552707  0.9088228626850  0.5437325853476 1.0
C      1  0.6644588011070  0.1255634527427  0.4861755834333 1.0
C      1  0.6327484849994  0.4289379713100  0.1343214027671 1.0
C      1  0.7522272087671  0.8978447629189  0.5106150968765 1.0
C      1  0.6660693199847  0.8467493011824  0.6234099574843 1.0
C      1  0.9418249034337  0.4543721468888  0.5548535898920 1.0
C      1  0.8720304208618  0.3076210523895  0.4754050086424 1.0
C      1  0.4838302318179  0.5686386235218  0.2995846782733 1.0
C      1  0.2926885607519  0.4464613187085  0.5826889841960 1.0
C      1  0.3552715254355  0.5810298741490  0.2152931261885 1.0
C      1  0.4892349140125  0.1966409688382  0.2324122573182 1.0
C      1  0.6123566923489  0.8301702471050  0.7083129760591 1.0
C      1  0.5772126299618  0.0941766418899  0.4788553450059 1.0
C      1  0.3906385574937  0.5217435558737  0.1533489926400 1.0
C      1  0.6300262376675  0.3840820202499  0.9045894860830 1.0
C      1  0.8187199166571  0.6803285279435  0.7064990976537 1.0
C      1  0.8699089934293  0.6050745192418  0.3495888557273 1.0
C      1  0.5062167064590  0.6786277758957  0.7823707564480 1.0
C      1  0.1371745660291  0.6807207187691  0.6825838251044 1.0
C      1  0.8018532757505  0.2060278688766  0.3627089710432 1.0
C      1  0.1036383651460  0.4403218835644  0.3797170931077 1.0
C      1  0.4119851912460  0.8944792094102  0.5148857234640 1.0
C      1  0.5203911027373  0.0756912354990  0.3981364313124 1.0
C      1  0.3828523661477  0.1877842519464  0.4175445808981 1.0
C      1  0.2985964504641  0.8664904168465  0.6138421555867 1.0
C      1  0.6549250610731  0.2287441192579  0.8011465600857 1.0
C      1  0.2298362961988  0.7136046175100  0.5407651495237 1.0
C      1  0.3187515997554  0.3285018259129  0.3571198666298 1.0
C      1  0.2013662256024  0.7543818731752  0.1739052086147 1.0
C      1  0.5069334059659  0.0574133703082  0.6531725197424 1.0
C      1  0.1970620168980  0.4891877625865  0.6017713004985 1.0
C      1  0.4621098158289  0.1245166007782  0.7113524457115 1.0
C      1  0.2032067045122  0.4808098374203  0.8199908058094 1.0
C      1  0.3901415497472  0.8919263017419  0.6057549433528 1.0
C      1  0.6125358191522  0.5536775404083  0.4906024897672 1.0
C      1  0.0652056415555  0.5029372331791  0.4410921045854 1.0
C      1  0.3964079204392  0.3458984304131  0.7074162814014 1.0
C      1  0.1784536547195  0.7972588079190  0.5145651393460 1.0
C      1  0.7701509709561  0.4204002957532  0.8168333933798 1.0
C      1  0.2158578744497  0.5096916839640  0.2638369426249 1.0
C      1  0.5390142551023  0.4325650092774  0.8704680382694 1.0
C      1  0.5192044431560  0.4082856708890  0.3309052994041 1.0
C      1  0.5415398166870  0.7502702369712  0.2444711866056 1.0
C      1  0.2347645862655  0.5723848234956  0.6038437055051 1.0
C      1  0.8830119677717  0.4406833509442  0.3928083142828 1.0
C      1  0.4653147738897  0.8927357489698  0.6713743844407 1.0
C      1  0.5846615744571  0.5805906072166  0.5865826071564 1.0
C      1  0.4647194654135  0.0991353319902  0.2466795689881 1.0
C      1  0.3098695659060  0.3714997912505  0.5217387429894 1.0
C      1  0.3028402403396  0.1071621787227  0.2514166100785 1.0
C      1  0.4115279242356  0.5563990693259  0.6010515386009 1.0
C      1  0.6572248403595  0.7451524986511  0.3889848547847 1.0
C      1  0.0911711795117  0.7589178635708  0.6505310160262 1.0
C      1  0.7471686876473  0.2430897692992  0.5730670515031 1.0
C      1  0.4621852699639  0.2501791055410  0.4021420708052 1.0
C      1  0.7118796760128  0.4813003036345  0.1304249475762 1.0
C      1  0.7885047706211  0.4503903987044  0.1817575640403 1.0
C      1  0.5739851048336  0.3219344770029  0.6336147732807 1.0
C      1  0.4428954694234  0.2606901747409  0.3041634733948 1.0
C      1  0.6005110706992  0.8848160812894  0.4752249062501 1.0
C      1  0.3838381238751  0.3683084034638  0.1149630498225 1.0
C      1  0.6423074565534  0.6586036645049  0.6160332997300 1.0
C      1  0.1170359295176  0.3612401835103  0.6181503918455 1.0
C      1  0.3465298462783  0.8198545585122  0.3757364747122 1.0
C      1  0.5527603991768  0.3579613894492  0.7989192133933 1.0
C      1  0.7354722938801  0.1717022242128  0.3113311643786 1.0
C      1  0.2066486417825  0.3919604308737  0.7669510958383 1.0
C      1  0.5704924915339  0.5048211092904  0.1085534030120 1.0
C      1  0.6445534228445  0.6104311739028  0.7168432497070 1.0
C      1  0.8546195817742  0.5310301160277  0.4055347135560 1.0
C      1  0.8133609599903  0.8484386262865  0.5690742332597 1.0
C      1  0.5900435144877  0.1610434861387  0.8092355736137 1.0
C      1  0.1352104767843  0.7458985132222  0.4377218268471 1.0
C      1  0.6803791815481  0.2953400388087  0.5155254715833 1.0
C      1  0.7610540638686  0.8197138157053  0.6414082285294 1.0
C      1  0.6078206004074  0.6875700173971  0.7657878491382 1.0
C      1  0.5978344709418  0.5243630391514  0.6711147200416 1.0
C      1  0.4987930207961  0.5821604059752  0.8221685435382 1.0
C      1  0.5166341486118  0.7656046442423  0.4596993909066 1.0
C      1  0.2697985364911  0.1792840004921  0.2930547069228 1.0
C      1  0.0311821487862  0.4784186777338  0.5322870698780 1.0
C      1  0.6268011259853  0.3836721467355  0.2179763386528 1.0
C      1  0.4630427440357  0.4520130500446  0.3995972331759 1.0
C      1  0.8409108120542  0.2730766397797  0.5611207670564 1.0
C      1  0.4691272719503  0.5468855133185  0.3985675233872 1.0
C      1  0.4706739518500  0.1884076516671  0.5783615273114 1.0
C      1  0.1158376601606  0.2887049534295  0.4558898069334 1.0
C      1  0.7078476305299  0.5768351204931  0.2938375385182 1.0
C      1  0.4993355606564  0.8374652135222  0.2802075931897 1.0
C      1  0.2607034378451  0.5890611749259  0.2340674928587 1.0
C      1  0.5948125611940  0.4588989565483  0.2844022478641 1.0
C      1  0.3796315292032  0.0697929885017  0.2447810159490 1.0
C      1  0.4631917966266  0.2465677162936  0.1506927157997 1.0
C      1  0.6801322488749  0.3331322903271  0.3603415091599 1.0
C      1  0.8755393305389  0.3894393839099  0.6962064006853 1.0
C      1  0.2926783901061  0.6833048331864  0.4727779367477 1.0
C      1  0.5140107120642  0.3601543474013  0.7085381477432 1.0
C      1  0.6146757562381  0.7824102337295  0.4677371720605 1.0
C      1  0.7075074613501  0.5950293670553  0.4679163311007 1.0
C      1  0.5203276662090  0.7708479821763  0.5580105314504 1.0
C      1  0.6665773048511  0.3745474816320  0.6331622790482 1.0
C      1  0.6190022494265  0.4444912209367  0.4690248680969 1.0
C      1  0.8976065422637  0.7232855902945  0.4807532179282 1.0
C      1  0.4048190828737  0.8259923758670  0.2896540794317 1.0
C      1  0.4541341617852  0.5070118249696  0.7692903758053 1.0
C      1  0.2805096866774  0.8252048085282  0.6945738182005 1.0
C      1  0.8764027116617  0.4061818933177  0.4847355739577 1.0
C      1  0.7142609038468  0.2263504677357  0.7316141794616 1.0
C      1  0.1884081991450  0.2160718526595  0.3340390999444 1.0
C      1  0.5021832555104  0.6873244257994  0.4022852452264 1.0
C      1  0.4619376586330  0.3437463670132  0.1687129679768 1.0
C      1  0.8544724070066  0.2870635141005  0.3837439364354 1.0
C      1  0.6253530465515  0.6282700556169  0.2665596275012 1.0
C      1  0.6699634091210  0.4563836888087  0.6810124348860 1.0
C      1  0.1146685680945  0.3485598174183  0.3805123711298 1.0
C      1  0.3310449392608  0.7297969760100  0.3947751971491 1.0
C      1  0.8296133166719  0.4064038616964  0.2410340035653 1.0
C      1  0.4487008979548  0.3580593673519  0.2705517932564 1.0
C      1  0.7459611922816  0.7974446575285  0.3685485281284 1.0
C      1  0.6240697110511  0.7557272727609  0.5727786363841 1.0
C      1  0.6840598590883  0.3935589381083  0.5345681523479 1.0
C      1  0.3745950872207  0.3605166571419  0.8040475938850 1.0
C      1  0.2718368569781  0.4465039670001  0.8767526817580 1.0
C      1  0.4600891664177  0.7046714259997  0.1997206118670 1.0
C      1  0.7895175122520  0.8507527270704  0.4323407616760 1.0
C      1  0.8856382582030  0.6438475313852  0.6373384463739 1.0
C      1  0.5172818710410  0.8192081312614  0.7040391689338 1.0
C      1  0.6059903798194  0.9249192081148  0.3845482428089 1.0
C      1  0.5858965235414  0.1703886113494  0.2541447280714 1.0
C      1  0.2687667004150  0.4250740992680  0.2275205478494 1.0
C      1  0.2028157128688  0.5817943746903  0.8082732039350 1.0
C      1  0.3361535577791  0.2908711663330  0.5551333048214 1.0
C      1  0.1148416039179  0.6694831330097  0.4100647196551 1.0
C      1  0.3941309987471  0.6641584248469  0.3565049497031 1.0
C      1  0.6797927515897  0.1685707731546  0.5723970680201 1.0
C      1  0.4282352079587  0.4381092941774  0.8508249635152 1.0
C      1  0.2853601746049  0.3685505466975  0.8226283619442 1.0
C      1  0.5133957408138  0.4654946094504  0.6948452406326 1.0
C      1  0.3840087778871  0.5223961810133  0.6982023365049 1.0
C      1  0.5786773797167  0.7015574009440  0.3296453870306 1.0
C      1  0.4728887658958  0.7044822094656  0.6088523204215 1.0
C      1  0.4005436820785  0.1784633992220  0.6541564014579 1.0
C      1  0.8802564727955  0.6891651821063  0.3922659258621 1.0
C      1  0.1192050800033  0.2916977800401  0.5529110547074 1.0
C      1  0.7813555026489  0.5332976946748  0.4675642249657 1.0
C      1  0.3769329654413  0.1441282694028  0.5640276291096 1.0
C      1  0.3802409788575  0.7712009101793  0.2134888200724 1.0
C      1  0.7126367094847  0.1758860281613  0.4095404327873 1.0
C      1  0.3192031656763  0.5456950598435  0.5582579324902 1.0
C      1  0.5046857452508  0.3035838633807  0.4611661457711 1.0
C      1  0.6974307307494  0.4253939215472  0.3970284908098 1.0
C      1  0.1900951271226  0.2297152392772  0.5809826636741 1.0
C      1  0.5192124971463  0.2703327029140  0.5516000318882 1.0
C      1  0.4820932505907  0.5492288499168  0.1225267195374 1.0
C      1  0.7396979944105  0.2929361767587  0.6630000737838 1.0
C      1  0.3367402626162  0.4421506020926  0.1456201110349 1.0
C      1  0.4261590360513  0.7047316462786  0.8469692236437 1.0
C      1  0.1650211963733  0.3067898997443  0.3041053188127 1.0
C      1  0.7179976690382  0.6718079059763  0.4160929739090 1.0
C      1  0.5115058113230  0.1416932198189  0.7859504176389 1.0
C      1  0.3487505711284  0.5800448433122  0.8972101885950 1.0
C      1  0.6103254329079  0.2468518774374  0.5755887564882 1.0
C      1  0.7925491064231  0.7125173491997  0.3556242067236 1.0
C      1  0.9078346626933  0.6688802778149  0.5553792862297 1.0
C      1  0.5199640560720  0.6038115286476  0.4613026814053 1.0
C      1  0.3513931419769  0.4870377724004  0.9001839744581 1.0
C      1  0.4255128367566  0.0944586933287  0.4253522051941 1.0
C      1  0.5007188608145  0.8559424077764  0.4984649441015 1.0
C      1  0.7647915518114  0.4359887539846  0.4826801011141 1.0
C      1  0.5611193231784  0.0005030243245  0.3437578204654 1.0
C      1  0.4842238945878  0.7246380880832  0.6968918795662 1.0
C      1  0.5132231442256  0.0937537327681  0.5583438504268 1.0
C      1  0.5507239099529  0.9043912497310  0.3168844733954 1.0
C      1  0.6658360457417  0.2139411128107  0.2548549007272 1.0
C      1  0.3621171762313  0.4314086134648  0.6580311572234 1.0
C      1  0.1480200263532  0.6316769798711  0.7561810587069 1.0
C      1  0.2113262276289  0.3442583808285  0.2331679996327 1.0
C      1  0.7252799612058  0.4738367364894  0.7475246639227 1.0
C      1  0.8466617405082  0.3907670951504  0.7835360467196 1.0
C      1  0.3209790410513  0.5950482438391  0.4744855767445 1.0
END
