TITL C-17382-576-6 -9.673 3375.00 -1731.98307495 0 0 209 (C1) n - 1
REM
REM Run started: at 2020.11.22 04:04:36 in /rds/project/t2_vol4/rds-t2-cs072/BORA/CARBON/AIRSS/Generating-Clusters/Str-Search/Higher-Symm
REM VASP from code version vasp.5.4.4.18Apr17-6-g9f103f2a35 (build Oct 11 2019 16:45:47) gamma-only
REM
REM
REM
REM
REM ./C.cell (e5ae0387ce4d49c7c0135a1433873289)
REM AIRSS Version 0.9.1 bugfix July 2018 build 013d7b7c2542+ Fri, 06 Jul 2018 19:26:36 +0100
REM compiler GCC version 4.8.5 20150623 (Red Hat 4.8.5-39)
REM options -cpp -mtune=generic -march=x86-64 -g -O0
REM seed -1518446443 1565785253 788808362 176057950 1390907575 1537832241 -1592368885 -950466639 -1614789686 1562186209 1548394319 -285008036
REM
REM C.POTCAR (d86ddea03c3ceb6dc662c8ad6801f873)
REM 
CELL 1.54180   15.00000   15.00000   15.00000   90.00000   90.00000   90.00000
LATT -1
SFAC C  
C      1  0.3956385100322  0.1912345971027  0.2458469948933 1.0
C      1  0.2386139176561  0.8157187094366  0.5928543752469 1.0
C      1  0.6017564966935  0.2246666489486  0.7453041350050 1.0
C      1  0.7506919601511  0.8074361649580  0.4049464853062 1.0
C      1  0.4553679009710  0.3627829017443  0.8770226472621 1.0
C      1  0.9025671159791  0.6626071306553  0.5457957826577 1.0
C      1  0.5308736589789  0.3531910619640  0.1149074618619 1.0
C      1  0.1385871029662  0.6358330140792  0.4539488252781 1.0
C      1  0.9093631044363  0.5688512072646  0.5614916541584 1.0
C      1  0.5379176672411  0.4421516822490  0.1618586859119 1.0
C      1  0.1886139694895  0.5471348945230  0.4449848648053 1.0
C      1  0.4418370022824  0.4483206455825  0.8239145572180 1.0
C      1  0.6118820230155  0.3731212271496  0.8562763048443 1.0
C      1  0.8660604932522  0.6500973857940  0.3889602037101 1.0
C      1  0.3752734503524  0.3555460677149  0.1376368098438 1.0
C      1  0.1384066225506  0.6392808812027  0.6095804699089 1.0
C      1  0.5341653576384  0.8363246487661  0.6290076264506 1.0
C      1  0.6104612585100  0.1767205359476  0.4616868291435 1.0
C      1  0.4485185295474  0.8081737101397  0.3850598298586 1.0
C      1  0.3701876786188  0.1472700660299  0.5421931366678 1.0
C      1  0.1550717998142  0.3920642427758  0.7756267017275 1.0
C      1  0.7980206378385  0.5958060401580  0.8134704212793 1.0
C      1  0.8238986027707  0.4086057565785  0.2124422298845 1.0
C      1  0.1895139017899  0.5893950618447  0.1436851594488 1.0
C      1  0.5155438895718  0.5192642126155  0.0990083804117 1.0
C      1  0.1365229770743  0.4688652642634  0.4740989241987 1.0
C      1  0.4710369698768  0.5362954891590  0.8621287183695 1.0
C      1  0.9209073303708  0.4882707244314  0.5173461035851 1.0
C      1  0.4195639890921  0.6445478024175  0.4547027282546 1.0
C      1  0.4092370819339  0.3442788798733  0.5764812952554 1.0
C      1  0.6589696862629  0.6135339335045  0.5450700937991 1.0
C      1  0.5492313598452  0.3653412717972  0.3846746649353 1.0
C      1  0.6273479146685  0.4073736600144  0.5473418328496 1.0
C      1  0.5135698017197  0.5451246106136  0.2862860490778 1.0
C      1  0.3465292110178  0.4522238881735  0.4608915273038 1.0
C      1  0.4516004793095  0.5471507748620  0.6797013613740 1.0
C      1  0.7976957388643  0.2822482610690  0.5975165785871 1.0
C      1  0.6134514679542  0.6922455384952  0.2297625722280 1.0
C      1  0.1958159348440  0.2525878546490  0.3870471764621 1.0
C      1  0.3703802394815  0.7356371787417  0.7841230266286 1.0
C      1  0.6723504293796  0.1920513556852  0.6167567501282 1.0
C      1  0.6069466947129  0.7951001013495  0.3470772385814 1.0
C      1  0.3232682573370  0.1614380935926  0.3821114417483 1.0
C      1  0.3734847160372  0.8371750647897  0.6638877203306 1.0
C      1  0.3538699927618  0.2586392933386  0.8036582817032 1.0
C      1  0.8057667359537  0.7487139168061  0.6485196198698 1.0
C      1  0.6369973793972  0.2643789711910  0.1967034231994 1.0
C      1  0.2416954005272  0.7163956056526  0.3688217584896 1.0
C      1  0.3004224176568  0.7245200443288  0.2932256149221 1.0
C      1  0.2769425878023  0.2803230788600  0.7339718088902 1.0
C      1  0.7528472976478  0.7496282151757  0.7286858120696 1.0
C      1  0.7078231735483  0.2959298814922  0.2654413092761 1.0
C      1  0.2766130905513  0.2192902630693  0.6536319322791 1.0
C      1  0.6669639289863  0.7939608686459  0.7277044245432 1.0
C      1  0.7073128997978  0.2405563358288  0.3478792568452 1.0
C      1  0.3786478157486  0.8019629985786  0.3078191731307 1.0
C      1  0.6212429737427  0.7672100346870  0.8049279403055 1.0
C      1  0.7760569568730  0.2599978454860  0.4056124422677 1.0
C      1  0.4350018698738  0.7667431081174  0.2238563789408 1.0
C      1  0.2000603397764  0.2286073951968  0.5951408037618 1.0
C      1  0.3119094586879  0.9048839370745  0.4180235761878 1.0
C      1  0.4317806564654  0.1957807612179  0.6797043182948 1.0
C      1  0.6730893520990  0.7980562944583  0.5653921459355 1.0
C      1  0.5533171249114  0.1960688599034  0.3219988473304 1.0
C      1  0.5643977650293  0.5564702061592  0.8630041176863 1.0
C      1  0.8923334776259  0.4793077059642  0.4250890452531 1.0
C      1  0.4223642174362  0.5328981728615  0.1106299282787 1.0
C      1  0.1197477982657  0.4571835723361  0.5659100116565 1.0
C      1  0.3121024592577  0.2388993611766  0.2494402339123 1.0
C      1  0.2383882943266  0.7610689352256  0.6742907966338 1.0
C      1  0.6908750186899  0.2706576230681  0.7469331285125 1.0
C      1  0.7518611965474  0.7583413874555  0.3231277759359 1.0
C      1  0.7690608581858  0.3861445986355  0.4852039403479 1.0
C      1  0.4732228434638  0.6177429184794  0.2439740692445 1.0
C      1  0.2173556301452  0.3208465684610  0.5401356048800 1.0
C      1  0.5358421983656  0.7319192636928  0.8185158711817 1.0
C      1  0.2924544535596  0.5393747667018  0.4847253294098 1.0
C      1  0.4661766588212  0.4513166371800  0.7216245920773 1.0
C      1  0.7068819329090  0.4472298348843  0.5229497367173 1.0
C      1  0.5006583968828  0.4503929882592  0.2620419430391 1.0
C      1  0.4352142904819  0.2175406768635  0.7744992370303 1.0
C      1  0.7734056233407  0.7911884322687  0.5668033513278 1.0
C      1  0.5591072788266  0.2159728897439  0.2252430436839 1.0
C      1  0.2739304946107  0.7418071235542  0.4579611097019 1.0
C      1  0.5204150579782  0.1384944418980  0.4607840414451 1.0
C      1  0.4492891561505  0.8556744845502  0.4690032124067 1.0
C      1  0.4666228709675  0.1367699766795  0.5365329801285 1.0
C      1  0.5284586686772  0.8493252738268  0.5292010067087 1.0
C      1  0.6625213829881  0.7515849177967  0.2833853063550 1.0
C      1  0.2649806226046  0.2164838392870  0.3313539768891 1.0
C      1  0.3194150477988  0.7797951621380  0.7178099462967 1.0
C      1  0.7341332619124  0.2483524354553  0.6643943326438 1.0
C      1  0.6377520547247  0.4267434689299  0.1754461640253 1.0
C      1  0.2005824714809  0.5707159954097  0.3423514117723 1.0
C      1  0.3419839549579  0.4193261352592  0.8177172289884 1.0
C      1  0.8600161646967  0.5786160692627  0.6472952382176 1.0
C      1  0.3259073865033  0.8630388877598  0.5836609711618 1.0
C      1  0.5950200611892  0.1722207630101  0.6635064943643 1.0
C      1  0.6562363692849  0.8365897609194  0.4138621100214 1.0
C      1  0.4036623650836  0.1431869647396  0.3310251437166 1.0
C      1  0.4615060933354  0.7651317209964  0.7727803802186 1.0
C      1  0.7522751791823  0.2805045220400  0.5020448918214 1.0
C      1  0.5113851567522  0.7078541668281  0.2607278844956 1.0
C      1  0.2258104746762  0.2351957134822  0.4880940579277 1.0
C      1  0.2901628211267  0.7165412144706  0.1928849446716 1.0
C      1  0.1721556845713  0.2960043731922  0.7387757616697 1.0
C      1  0.7579137134411  0.6938580836838  0.8104117550115 1.0
C      1  0.8132299104199  0.3201832957623  0.2632697885926 1.0
C      1  0.3098485725655  0.1741988412279  0.4740418828606 1.0
C      1  0.4636921055785  0.8254354733486  0.6916082046940 1.0
C      1  0.6585136251613  0.2360231839675  0.5289124946226 1.0
C      1  0.5213618929365  0.7449811744379  0.3605892145786 1.0
C      1  0.3493506991301  0.6629914706853  0.8383649360698 1.0
C      1  0.8649750454682  0.3421298469838  0.6133196861815 1.0
C      1  0.6369036640530  0.6060214901954  0.1807352486016 1.0
C      1  0.1479205624661  0.3290743658859  0.3636134147731 1.0
C      1  0.6553591308984  0.6996468638620  0.5325404064786 1.0
C      1  0.5181910725296  0.2848988205395  0.3678671057014 1.0
C      1  0.3572414026867  0.7135971486487  0.4888412060637 1.0
C      1  0.4679027105559  0.2761660502505  0.6229934956061 1.0
C      1  0.6346664921248  0.1912160998828  0.3743891417453 1.0
C      1  0.3293267023144  0.8827547346695  0.3389570500771 1.0
C      1  0.3506175054767  0.1732249932594  0.6315201764090 1.0
C      1  0.6241144498127  0.8148607394988  0.6489062215963 1.0
C      1  0.1446193435100  0.3634129235093  0.5839328818896 1.0
C      1  0.5883674823535  0.6483780287612  0.8609670264232 1.0
C      1  0.8391958508732  0.3966207607818  0.4198709914593 1.0
C      1  0.4193898421616  0.6187175557223  0.1659868324765 1.0
C      1  0.6878009921683  0.5290523703081  0.5864662366792 1.0
C      1  0.5902993767891  0.4319038841318  0.3261653278049 1.0
C      1  0.3527828778600  0.5822980423959  0.4043187454212 1.0
C      1  0.3846748450844  0.4130218972237  0.6527712952464 1.0
C      1  0.1424612789638  0.6902201823787  0.5304866380643 1.0
C      1  0.5339034989462  0.3155063071242  0.8629945463552 1.0
C      1  0.8745464766677  0.7056884704233  0.4653536193266 1.0
C      1  0.4546630963203  0.3017121735401  0.1323522876575 1.0
C      1  0.7906216892662  0.6759389090898  0.3382603915084 1.0
C      1  0.3110462066173  0.3226765513652  0.2051877263564 1.0
C      1  0.2065604891111  0.6732937933429  0.6699335334372 1.0
C      1  0.6909896714317  0.3528365194610  0.8017178488387 1.0
C      1  0.1401090899798  0.2875245306974  0.6472788962489 1.0
C      1  0.6699535561285  0.6988658902729  0.8494041685435 1.0
C      1  0.8314956210317  0.3231427484704  0.3600085040717 1.0
C      1  0.3833047658252  0.7127866066333  0.1674610356864 1.0
C      1  0.6866374624355  0.5630561786045  0.0802933789360 1.0
C      1  0.1524642894308  0.4160516214193  0.3188367330544 1.0
C      1  0.3091961602889  0.5755846480480  0.8432799906524 1.0
C      1  0.8908242401484  0.4160141266485  0.6668024546116 1.0
C      1  0.2768693939727  0.4939215312382  0.8201830452745 1.0
C      1  0.8477064236972  0.4942901455970  0.7005079852334 1.0
C      1  0.6930369494905  0.5172333484488  0.1730792113972 1.0
C      1  0.1782619861627  0.4958693622317  0.2808615166963 1.0
C      1  0.2960221921691  0.4718154902139  0.1872794156001 1.0
C      1  0.2023220407860  0.5204355883118  0.6788629615947 1.0
C      1  0.7087433776331  0.4539215141658  0.7951669417025 1.0
C      1  0.7896630279050  0.5321280737710  0.3149043146629 1.0
C      1  0.2259101494987  0.6636483648514  0.1560194554286 1.0
C      1  0.1199350630428  0.3283430019147  0.8232582887728 1.0
C      1  0.8458068920317  0.6546073946136  0.8544038180550 1.0
C      1  0.8659229422781  0.3406988889666  0.1767727503651 1.0
C      1  0.5830108234023  0.4760512913845  0.6053548344749 1.0
C      1  0.5840338099090  0.5313366587573  0.3442845313934 1.0
C      1  0.3761375169147  0.4871510938461  0.3817797630493 1.0
C      1  0.3940224381159  0.5056371178896  0.6120429751334 1.0
C      1  0.6202057130791  0.3340510845254  0.1337654911171 1.0
C      1  0.1597261215424  0.6615451412628  0.3680761497891 1.0
C      1  0.3685446214258  0.3325111010273  0.8612784768538 1.0
C      1  0.8693574734475  0.6805194316426  0.6330407565338 1.0
C      1  0.5556264874672  0.4170406765704  0.6865346061033 1.0
C      1  0.6461423957192  0.5961091808316  0.3801108626718 1.0
C      1  0.4106613973458  0.4197903451320  0.3154924630284 1.0
C      1  0.3278483368428  0.5741383876031  0.5784997821069 1.0
C      1  0.9182240781630  0.4149237696909  0.5786846609913 1.0
C      1  0.5947446076267  0.5743112453481  0.0991504839866 1.0
C      1  0.1268846039058  0.4060473087424  0.4093088826158 1.0
C      1  0.3989508464010  0.5928682141393  0.8736852274883 1.0
C      1  0.3956703112159  0.6484367527292  0.5557116910617 1.0
C      1  0.5497158981791  0.3243145755483  0.6420008026037 1.0
C      1  0.6089165078857  0.6445756527140  0.4592412422711 1.0
C      1  0.4480453137206  0.3518100227878  0.3936825283379 1.0
C      1  0.4796993815511  0.6267633388011  0.6158434920221 1.0
C      1  0.6071531469617  0.3189902767017  0.5661003650378 1.0
C      1  0.5158851857051  0.6717091514401  0.4326090286812 1.0
C      1  0.3976930609370  0.3716154489203  0.4866819737605 1.0
C      1  0.5257143718872  0.2403982874563  0.8052103961146 1.0
C      1  0.8090548674249  0.7799344210297  0.4783525520618 1.0
C      1  0.4688193826087  0.2258545757481  0.1910918833223 1.0
C      1  0.2048194010885  0.7653126466857  0.5224044566362 1.0
C      1  0.1313365688508  0.5367900768618  0.6215175608106 1.0
C      1  0.6240983624030  0.4742531837588  0.8504303502772 1.0
C      1  0.8688189540450  0.5503423188033  0.3711964685349 1.0
C      1  0.3663310270126  0.4572335676513  0.1237258235983 1.0
C      1  0.2613740840441  0.5942390237474  0.6582793707436 1.0
C      1  0.6198090715388  0.4243697216920  0.7604239694024 1.0
C      1  0.7313154684102  0.6007183425998  0.3403425011215 1.0
C      1  0.3294619086377  0.4040726841290  0.2518012086581 1.0
C      1  0.3613145784971  0.8930243419924  0.4990594180491 1.0
C      1  0.5056226885892  0.1693865258219  0.6211014067298 1.0
C      1  0.6172168575670  0.8459622337966  0.4983505655206 1.0
C      1  0.4874438624164  0.1388856834636  0.3695645737499 1.0
C      1  0.2232910324144  0.4538015375717  0.7437458338714 1.0
C      1  0.7714249460214  0.5208261109455  0.7571771300472 1.0
C      1  0.7584279644542  0.4714211494874  0.2462721951412 1.0
C      1  0.2154424287370  0.5113309463111  0.1919877285533 1.0
C      1  0.6718256229812  0.4030285238241  0.2688123015037 1.0
C      1  0.2930473961450  0.6266165007818  0.3385029167585 1.0
C      1  0.3092894668282  0.3890134459283  0.7224106944003 1.0
C      1  0.7645200448301  0.5415655372453  0.6558449660806 1.0
C      1  0.4953706872699  0.5310081404462  0.5900224348245 1.0
END
