TITL C-179990-9797-7 -4.367 3375.00 -750.87921624 0 0 92 (C1) n - 1
REM
REM Run started: at 2020.11.28 20:32:43 in /rds/project/t2_vol4/rds-t2-cs072/BORA/CARBON/AIRSS/Generating-Clusters/Str-Search/Higher-Symm/C10-100
REM VASP from code version vasp.5.4.4.18Apr17-6-g9f103f2a35 (build Oct 11 2019 16:45:47) gamma-only
REM
REM
REM
REM
REM ./C.cell (f39ce9773e2efe3fa5bbdf770a4156b8)
REM AIRSS Version 0.9.1 bugfix July 2018 build 013d7b7c2542+ Fri, 06 Jul 2018 19:26:36 +0100
REM compiler GCC version 4.8.5 20150623 (Red Hat 4.8.5-39)
REM options -cpp -mtune=generic -march=x86-64 -g -O0
REM seed -1525641958 -733684485 -735683371 1849909079 2088174263 1616546837 1002855072 -1245336354 1284489095 959735146 -1770702627 473412269
REM
REM C.POTCAR (d86ddea03c3ceb6dc662c8ad6801f873)
REM 
CELL 1.54180   15.00000   15.00000   15.00000   90.00000   90.00000   90.00000
LATT -1
SFAC C  
C      1  0.2937060067585  0.3566833760419  0.5039224576689 1.0
C      1  0.4280831439153  0.5350014295665  0.5328813737351 1.0
C      1  0.7310016130828  0.5824018400174  0.4316774282989 1.0
C      1  0.4318006404556  0.7225390708982  0.3410320318365 1.0
C      1  0.5430906723184  0.5331315955005  0.2074031146968 1.0
C      1  0.7510603470450  0.5004432082832  0.3849530169403 1.0
C      1  0.5492098187442  0.7653248645979  0.5485573019222 1.0
C      1  0.2380602449514  0.4047557045966  0.6562655345659 1.0
C      1  0.2420092322760  0.5631681893856  0.5812364673612 1.0
C      1  0.3870425174724  0.5887069598097  0.2284965300823 1.0
C      1  0.3480113849886  0.4537575082771  0.7451789656224 1.0
C      1  0.5724224027157  0.4755732518131  0.5208015468608 1.0
C      1  0.4920706649631  0.6172355719409  0.4372630475527 1.0
C      1  0.8216540135738  0.3966230565211  0.4871138940155 1.0
C      1  0.3907475325882  0.3321410715533  0.4645853400225 1.0
C      1  0.7942550291275  0.4206794534928  0.4002250806626 1.0
C      1  0.4101144691250  0.6642894772471  0.7218744020778 1.0
C      1  0.3280524544799  0.6176555142307  0.7000751798600 1.0
C      1  0.5309426351695  0.5589433036017  0.7976407919289 1.0
C      1  0.6021624522616  0.2445038729154  0.3479226842720 1.0
C      1  0.5167179230337  0.4217451532156  0.5825155208433 1.0
C      1  0.5572161078857  0.6756171333498  0.6839450076904 1.0
C      1  0.5945848030281  0.3030991240786  0.7103357812804 1.0
C      1  0.6216050621073  0.7084485285690  0.4141510419958 1.0
C      1  0.5454268001831  0.2125538127478  0.5809211432528 1.0
C      1  0.4517559252311  0.5180134055106  0.2025748080239 1.0
C      1  0.5842247956267  0.3965802442390  0.8526950165755 1.0
C      1  0.5129984326278  0.7467863922196  0.6340148124584 1.0
C      1  0.6005959462016  0.3270729069747  0.2908431912579 1.0
C      1  0.5581114700198  0.6006634075289  0.6160623569799 1.0
C      1  0.3559973588524  0.7432021670843  0.3992145515601 1.0
C      1  0.4464388217987  0.2652427683604  0.4009100815868 1.0
C      1  0.5319330651294  0.2243415853726  0.4143661984628 1.0
C      1  0.2761606427272  0.6675955844014  0.3989022384188 1.0
C      1  0.3873445251495  0.7546011835347  0.4937824122021 1.0
C      1  0.4748550019706  0.4480727763631  0.3735296575939 1.0
C      1  0.4260612528360  0.4584593081566  0.6882807119836 1.0
C      1  0.3027729109124  0.4371462491313  0.3699237334265 1.0
C      1  0.3916355568209  0.3911879260554  0.3792774681729 1.0
C      1  0.6077009947732  0.6054217341132  0.2200456479884 1.0
C      1  0.2932528304957  0.5314034426967  0.7232997266261 1.0
C      1  0.2819239322970  0.4863383440811  0.2961349880747 1.0
C      1  0.3978988691596  0.5806671100177  0.4591396814017 1.0
C      1  0.3054354699995  0.5497151503251  0.2464948621757 1.0
C      1  0.4935715019002  0.4529055115561  0.2639848795973 1.0
C      1  0.4371459577271  0.6626533157650  0.2673872747142 1.0
C      1  0.3401936827408  0.3056494476677  0.6612842875001 1.0
C      1  0.5533241522250  0.4504327742316  0.4258469953299 1.0
C      1  0.4819815871842  0.7688739515120  0.4848182340934 1.0
C      1  0.6590565110143  0.3463357731602  0.6616545973665 1.0
C      1  0.5296668054776  0.6275889794228  0.2734141082266 1.0
C      1  0.5134578226786  0.7207769126336  0.4051182041596 1.0
C      1  0.3047805174255  0.5893049228612  0.4372880488387 1.0
C      1  0.5892463564112  0.3297241103066  0.8026420271102 1.0
C      1  0.4949999986280  0.6375923414947  0.7558948900250 1.0
C      1  0.6771468533349  0.5922648039625  0.2816560826218 1.0
C      1  0.5387057594809  0.5817600531332  0.3576200139510 1.0
C      1  0.5151300532335  0.4471475738485  0.6793915486986 1.0
C      1  0.6675081585373  0.4954312307137  0.5746686757310 1.0
C      1  0.5765290569258  0.4876295075622  0.8270567919463 1.0
C      1  0.6798193161259  0.3872692207820  0.2928458949626 1.0
C      1  0.2322634737804  0.5014507685508  0.6557452593819 1.0
C      1  0.5963575070940  0.5087470107928  0.3639438428423 1.0
C      1  0.7133124602383  0.5792650486595  0.5242421387350 1.0
C      1  0.5501128603827  0.1926791952475  0.4996937054717 1.0
C      1  0.4216361561025  0.7290685264015  0.6489506411925 1.0
C      1  0.6468071356320  0.6428057180418  0.6528890373161 1.0
C      1  0.6847275414869  0.6442291957339  0.3705470427856 1.0
C      1  0.6302849659194  0.5440727833429  0.6569280073302 1.0
C      1  0.7577074273956  0.3542520212519  0.3387359665411 1.0
C      1  0.5825628492799  0.4966233386364  0.7289023394772 1.0
C      1  0.3556224888473  0.7187521070021  0.5788667306592 1.0
C      1  0.3021276036468  0.3725476133945  0.7236790630035 1.0
C      1  0.5210633302133  0.2567390825074  0.6572923694778 1.0
C      1  0.7071994067853  0.4011637528994  0.6081899394439 1.0
C      1  0.2656528668682  0.4379149691413  0.4595898631309 1.0
C      1  0.4401198322602  0.3200043782248  0.3254758540144 1.0
C      1  0.2507410396770  0.5284353447154  0.4936266973828 1.0
C      1  0.5119835658353  0.3554991971531  0.2702166884116 1.0
C      1  0.4168942978187  0.4535526148853  0.5854384779505 1.0
C      1  0.6819189378889  0.4918177873798  0.3144439207291 1.0
C      1  0.4396431809851  0.3588565413617  0.5539355680420 1.0
C      1  0.2744199675298  0.3412088143738  0.5936594505372 1.0
C      1  0.7605905937119  0.2617777122389  0.3493366965233 1.0
C      1  0.6801230230149  0.6607064715244  0.5621496508661 1.0
C      1  0.4290151282243  0.2946974587658  0.6329131381617 1.0
C      1  0.2618012935702  0.7441101026308  0.3591262928754 1.0
C      1  0.6316787616385  0.7252939748363  0.5082137556639 1.0
C      1  0.7858958325919  0.3809821399207  0.5597020281414 1.0
C      1  0.5219835730870  0.5697493611082  0.5287041889352 1.0
C      1  0.6901795568421  0.2178150389381  0.3584028689628 1.0
C      1  0.2951634757212  0.6443076413078  0.6134192911254 1.0
END
