TITL C-17091-7747-51 -2.111 3375.00 -354.64857256 0 0 44 (C1) n - 1
REM
REM Run started: at 2021.01.04 13:43:04 in /gpfs/home/chem/mssmkc/CARBON/AIRSS/Generating-Clusters/Str-Search/Higher-Symm/C4-100
REM VASP from code version vasp.5.4.4.18Apr17-6-g9f103f2a35 (build Oct 11 2019 16:45:47) gamma-only
REM
REM
REM
REM
REM ./C.cell (6bd13a13d554368a30d355f37ece5b26)
REM AIRSS Version 0.9.1 bugfix July 2018 build 013d7b7c2542+ Fri, 06 Jul 2018 19:26:36 +0100
REM compiler GCC version 6.3.0
REM options -cpp -iprefix /gpfs/warwick/csc/orac/software/Core/GCCcore/6.3.0/bin/../lib/gcc/x86_64-pc-linux-gnu/6.3.0/ -mtune=generic -march=x86-64 -g -O0
REM seed 2062902528 372636650 -233032292 -2095856809 1044223009 -898736471 -1899694665 1935484946 -106166564 -1716515978 1406139257 -898519554
REM
REM C.POTCAR (d86ddea03c3ceb6dc662c8ad6801f873)
REM 
CELL 1.54180   15.00000   15.00000   15.00000   90.00000   90.00000   90.00000
LATT -1
SFAC C  
C      1  0.5063515000935  0.6864815544956  0.6059670587996 1.0
C      1  0.4207686484982  0.3114466982236  0.5493761912152 1.0
C      1  0.4128086243854  0.6887592187022  0.4667196726431 1.0
C      1  0.4999791138380  0.3165496246683  0.3945810652844 1.0
C      1  0.5806186875213  0.6865754950228  0.4513818014433 1.0
C      1  0.5822359499552  0.3285618993649  0.5405939272745 1.0
C      1  0.3878763303688  0.5902020606882  0.6275071594534 1.0
C      1  0.3415614946234  0.4050896863420  0.4620897539322 1.0
C      1  0.4478384341690  0.5871632687992  0.3219935904182 1.0
C      1  0.6192478227500  0.4083158064116  0.3705107118706 1.0
C      1  0.6643369872504  0.5979725646275  0.5340708307222 1.0
C      1  0.5597457206373  0.4118386441716  0.6633106517784 1.0
C      1  0.3869033378084  0.5455809685749  0.3863223203145 1.0
C      1  0.5421341474250  0.4562170009296  0.3319991056363 1.0
C      1  0.6516449226377  0.5469500317058  0.4496429745188 1.0
C      1  0.6239849260833  0.4600486838956  0.6125667645687 1.0
C      1  0.4666018638507  0.5437885561238  0.6637779982965 1.0
C      1  0.3562907809084  0.4543029266931  0.5473819546566 1.0
C      1  0.6576510670707  0.7504532984067  0.4524585586182 1.0
C      1  0.5477364015104  0.2384816100755  0.6752488252352 1.0
C      1  0.4522542224449  0.7461731617696  0.6698661304254 1.0
C      1  0.3416307259144  0.2526175440995  0.5428089154960 1.0
C      1  0.4104178942384  0.7234401482220  0.3807480370652 1.0
C      1  0.5499403519054  0.2533281432120  0.3330954675858 1.0
C      1  0.6043945416289  0.3163117592091  0.3584945054319 1.0
C      1  0.6685885889196  0.6888108788141  0.5139790006859 1.0
C      1  0.5649100655466  0.3168433020933  0.6387143762116 1.0
C      1  0.4004203450733  0.6831034138916  0.6413884369337 1.0
C      1  0.3353147081608  0.3144130435919  0.4807663615630 1.0
C      1  0.4321789150524  0.6772778167606  0.3138354044559 1.0
C      1  0.4075303979111  0.4017840016415  0.6050107401615 1.0
C      1  0.3671593922520  0.5984527844278  0.4656721011058 1.0
C      1  0.4635294641805  0.4035502658238  0.3546474928893 1.0
C      1  0.5967029160255  0.5973318388935  0.3932532543758 1.0
C      1  0.6421262031556  0.4061932569882  0.5315012927950 1.0
C      1  0.5434928471037  0.5989897746171  0.6440901931993 1.0
C      1  0.3886584047415  0.4483716816351  0.3901049008178 1.0
C      1  0.5371975677614  0.5497891953432  0.3333700079442 1.0
C      1  0.6538778116881  0.4506988202495  0.4487223714710 1.0
C      1  0.6201269569508  0.5556344766675  0.6089267847131 1.0
C      1  0.4717854033674  0.4488844542938  0.6603573102861 1.0
C      1  0.3554898138385  0.5499307660936  0.5484673915133 1.0
C      1  0.5005115701281  0.6924404998172  0.5101928624367 1.0
C      1  0.5037171306258  0.3108493739220  0.4928815437566 1.0
END
