TITL C-174638-6268-8 -12.453 3375.00 -2792.13006046 0 0 335 (C1) n - 1
REM
REM Run started: at 2020.11.26 11:29:16 in /rds/project/t2_vol4/rds-t2-cs072/BORA/CARBON/AIRSS/Generating-Clusters/Str-Search/Higher-Symm
REM VASP from code version vasp.5.4.4.18Apr17-6-g9f103f2a35 (build Oct 11 2019 16:45:47) gamma-only
REM
REM
REM
REM
REM ./C.cell (e5ae0387ce4d49c7c0135a1433873289)
REM AIRSS Version 0.9.1 bugfix July 2018 build 013d7b7c2542+ Fri, 06 Jul 2018 19:26:36 +0100
REM compiler GCC version 4.8.5 20150623 (Red Hat 4.8.5-39)
REM options -cpp -mtune=generic -march=x86-64 -g -O0
REM seed -251281048 -521927743 973593703 -398702377 -40320752 -1407745790 1983528673 -2066923585 934578464 732246593 -361376125 526550121
REM
REM C.POTCAR (d86ddea03c3ceb6dc662c8ad6801f873)
REM 
CELL 1.54180   15.00000   15.00000   15.00000   90.00000   90.00000   90.00000
LATT -1
SFAC C  
C      1  0.2216748251802  0.3901730168761  0.4914002823720 1.0
C      1  0.3096226908015  0.3586023065635  0.2669215284778 1.0
C      1  0.5641331278706  0.3787738605827  0.2008391423147 1.0
C      1  0.7466111512494  0.3559783161672  0.3596611868554 1.0
C      1  0.7701019208849  0.3600729648640  0.6093142461991 1.0
C      1  0.5846183245197  0.3531289662322  0.7783745682723 1.0
C      1  0.3533965644282  0.3758713694485  0.7151810685058 1.0
C      1  0.8318437304396  0.4321767497341  0.5769564259046 1.0
C      1  0.7123069647666  0.4311569567013  0.8531290914996 1.0
C      1  0.3649647097442  0.4173355941094  0.8713960573367 1.0
C      1  0.1026594352722  0.4390938534335  0.5983822534851 1.0
C      1  0.1550242513639  0.4273857016222  0.2622735170431 1.0
C      1  0.4140038751400  0.4876976553267  0.0964544514211 1.0
C      1  0.8115582582870  0.4322526871241  0.2238513669660 1.0
C      1  0.2254108068759  0.6017873473352  0.5569668873195 1.0
C      1  0.2522373538931  0.5966784202362  0.2781315376542 1.0
C      1  0.4691043761890  0.5466706617639  0.1468853718302 1.0
C      1  0.7724001716317  0.5900556205315  0.3284519506626 1.0
C      1  0.8133388187544  0.5351264218150  0.5914774253676 1.0
C      1  0.6088602444119  0.6100440751526  0.7389364997460 1.0
C      1  0.3645006627229  0.6051561557602  0.7755325228640 1.0
C      1  0.4810917855570  0.8629336871241  0.7848567208947 1.0
C      1  0.2963081108537  0.8717106510594  0.6602788840761 1.0
C      1  0.2240752793395  0.8610413714972  0.4235052570603 1.0
C      1  0.4051605552096  0.8966527399880  0.2633741017018 1.0
C      1  0.6299691509490  0.8766456052434  0.3015331122292 1.0
C      1  0.7713568529453  0.8743490614161  0.4958984380966 1.0
C      1  0.7048246439580  0.8903097533626  0.7246183914263 1.0
C      1  0.1794058190632  0.8785123734330  0.5192491421745 1.0
C      1  0.3017260533986  0.9094227133966  0.2656597381073 1.0
C      1  0.5703188430467  0.8805758798841  0.2210587196095 1.0
C      1  0.7822358330772  0.8889977011717  0.3960355015115 1.0
C      1  0.7878001467640  0.8921870493151  0.6708589902991 1.0
C      1  0.5788718926666  0.8373956834499  0.8108740378859 1.0
C      1  0.3116012825248  0.8908331833683  0.7592959291575 1.0
C      1  0.6178327202517  0.9094617502783  0.5173768754908 1.0
C      1  0.5933796021146  0.9134905745908  0.6138345137243 1.0
C      1  0.4943310104176  0.8922896496015  0.6149153375424 1.0
C      1  0.3743013560216  0.8920406854185  0.5031046089249 1.0
C      1  0.4005914763672  0.9619980743040  0.4373544560008 1.0
C      1  0.4935541357178  0.9649341788963  0.4247556445910 1.0
C      1  0.5369657285247  0.8850069054195  0.4616768893164 1.0
C      1  0.4913553085125  0.9449736337716  0.2318505155130 1.0
C      1  0.7048804871222  0.9197878638719  0.3491466493604 1.0
C      1  0.7901270185242  0.9244525489329  0.5768777122331 1.0
C      1  0.6603886596268  0.9030612645047  0.8017332290295 1.0
C      1  0.3929325702902  0.8660576700751  0.8155875016073 1.0
C      1  0.2301732641852  0.9054685715224  0.5889188736827 1.0
C      1  0.2684834861203  0.9276575129497  0.3541372353785 1.0
C      1  0.1442354798335  0.1558173092622  0.4830593976100 1.0
C      1  0.2764454789450  0.1449587883277  0.1877318869214 1.0
C      1  0.5827993389172  0.1645019791621  0.1274727585306 1.0
C      1  0.8260126289046  0.1479205370329  0.3342741932744 1.0
C      1  0.8198204261778  0.1507338772127  0.6472484105334 1.0
C      1  0.5732671539200  0.1496273217321  0.8508680127140 1.0
C      1  0.2812406007728  0.1584892300889  0.7738471822959 1.0
C      1  0.3188673569053  0.9376141307869  0.5787955645641 1.0
C      1  0.3377195325464  0.9917602225903  0.3780224695327 1.0
C      1  0.5497879826378  0.0135900910856  0.3713784167347 1.0
C      1  0.6513301680301  0.9955391024310  0.3910279036051 1.0
C      1  0.6581167138258  0.9975061255554  0.4936743149841 1.0
C      1  0.5651364780322  0.0002703022815  0.6594312418827 1.0
C      1  0.4767983141702  0.9872363216555  0.6382282273971 1.0
C      1  0.3800792958391  0.5237535576336  0.3820027417910 1.0
C      1  0.5029719289432  0.4533243974407  0.3768331987803 1.0
C      1  0.5867897458825  0.5107834013072  0.3702469228105 1.0
C      1  0.6381045618367  0.4424051601754  0.5219166256166 1.0
C      1  0.6200733575058  0.5094009267650  0.5910222991329 1.0
C      1  0.4602183866097  0.4492298356362  0.6146769931743 1.0
C      1  0.3861052976868  0.4933496141199  0.5518317575903 1.0
C      1  0.3447010581300  0.4562796903128  0.9502580557398 1.0
C      1  0.0338086918759  0.5413290426187  0.7167214907806 1.0
C      1  0.0844048746870  0.4845514307995  0.2195739420629 1.0
C      1  0.4182354890037  0.4825181453592  0.0041298999403 1.0
C      1  0.8775580867785  0.5156911915544  0.1089850101857 1.0
C      1  0.9842696234285  0.5661032435670  0.5665305743751 1.0
C      1  0.8476913048332  0.4849445414746  0.9409386576707 1.0
C      1  0.2506066225315  0.4729099797548  0.9716610847238 1.0
C      1  0.0387458318407  0.3586445067048  0.5934420118847 1.0
C      1  0.0595449215214  0.4397221192371  0.1270990011086 1.0
C      1  0.5097815323870  0.4857697702367  0.9744332392182 1.0
C      1  0.8736058447866  0.4950767549059  0.1989104307406 1.0
C      1  0.9581473953657  0.3367931437018  0.6291957960975 1.0
C      1  0.7552625160308  0.4625617710982  0.9249404176050 1.0
C      1  0.4992147657260  0.6065452020215  0.8615916617473 1.0
C      1  0.1478008040885  0.4634601743042  0.8259618686322 1.0
C      1  0.0299026439113  0.5034564355289  0.3834318169622 1.0
C      1  0.2173843720207  0.4485424342912  0.0519181572987 1.0
C      1  0.7201499235597  0.4839668614982  0.0175945990876 1.0
C      1  0.9498850828998  0.4663044714775  0.3554307027541 1.0
C      1  0.9081073449613  0.4635396253645  0.7857313808665 1.0
C      1  0.3935834274221  0.3143143946842  0.3965399526603 1.0
C      1  0.4961258739642  0.3544507545364  0.3746102189940 1.0
C      1  0.5592084970846  0.2919487848338  0.4490468615949 1.0
C      1  0.6168388699799  0.3458050467692  0.5284057982964 1.0
C      1  0.5741426128885  0.3177166037760  0.6158904100914 1.0
C      1  0.4796591899594  0.3508915605834  0.6156204730590 1.0
C      1  0.3596403244396  0.3026183525520  0.4975947174957 1.0
C      1  0.6363737538950  0.2268821901438  0.4209086379027 1.0
C      1  0.6895900641796  0.1530122017397  0.5527169433050 1.0
C      1  0.5617962030752  0.2156999665979  0.6395005501671 1.0
C      1  0.4130190636018  0.2118159585618  0.6169781701734 1.0
C      1  0.3228666487009  0.2065895175101  0.5076391650349 1.0
C      1  0.4195063320866  0.2280534526897  0.3442557232975 1.0
C      1  0.5586384302865  0.1794967323920  0.2849059533180 1.0
C      1  0.7151183680559  0.4632824681590  0.4801654675561 1.0
C      1  0.6637208118054  0.4763520160940  0.6758443700085 1.0
C      1  0.4349268506203  0.4550106986428  0.7132766832705 1.0
C      1  0.3051714543178  0.4865123371270  0.6090403536749 1.0
C      1  0.2870074104477  0.5093899487669  0.4071987196603 1.0
C      1  0.4267909401297  0.4785239229813  0.2984036418713 1.0
C      1  0.6418935348438  0.4971914528902  0.2971949938630 1.0
C      1  0.9100098933315  0.5483316581960  0.6139658573879 1.0
C      1  0.6513405790905  0.6359309385327  0.9358677592190 1.0
C      1  0.2069236903752  0.5974204068523  0.8678609541257 1.0
C      1  0.1324273793867  0.6069980884683  0.5640599515171 1.0
C      1  0.1413178178504  0.5471372599624  0.1620373472608 1.0
C      1  0.5380721458485  0.5879997140208  0.1059743047729 1.0
C      1  0.8657614628314  0.5984931601791  0.3246452045547 1.0
C      1  0.1176636659985  0.7463557050507  0.4669693189561 1.0
C      1  0.2461566639458  0.7851857294337  0.1520760696628 1.0
C      1  0.6212279057394  0.7386546144269  0.1498211134584 1.0
C      1  0.8898081854768  0.7515065279384  0.4044206878671 1.0
C      1  0.8197188895288  0.7663939161712  0.7793341042123 1.0
C      1  0.5193521986006  0.7313187775344  0.9263248003761 1.0
C      1  0.1921575192582  0.7972909203178  0.8389568404398 1.0
C      1  0.5934429466211  0.7723381344318  0.8849569345384 1.0
C      1  0.2425758608269  0.8742154308195  0.8183907772912 1.0
C      1  0.1197724190974  0.8060188355797  0.5380631160538 1.0
C      1  0.2488458145412  0.8610756055016  0.2062445695544 1.0
C      1  0.5609478687822  0.8133902622455  0.1544130355211 1.0
C      1  0.8431300769301  0.8222829168477  0.3599673843784 1.0
C      1  0.8399818947789  0.8185630886937  0.7015116816032 1.0
C      1  0.4434056002777  0.1245341826010  0.5714657941268 1.0
C      1  0.4114058317877  0.1565415101813  0.4791384455896 1.0
C      1  0.4228918830636  0.1365175494944  0.3803577633097 1.0
C      1  0.5295405609470  0.1121864015095  0.3622810961716 1.0
C      1  0.6120181568313  0.1329572629509  0.4203368539347 1.0
C      1  0.6165345995331  0.0979689509045  0.5143567273919 1.0
C      1  0.5384140164855  0.1548213873288  0.5602518258610 1.0
C      1  0.6833150952733  0.8202919687267  0.5018252638203 1.0
C      1  0.6442390685838  0.8392310823100  0.6594993979619 1.0
C      1  0.4861891319900  0.8294418080370  0.6924457655017 1.0
C      1  0.3286066230377  0.7825557044116  0.6311900920042 1.0
C      1  0.3131387632867  0.8194525452129  0.4625253201023 1.0
C      1  0.4196577651006  0.8183548102457  0.3147616096951 1.0
C      1  0.5768982830804  0.8327272280731  0.3781405049240 1.0
C      1  0.6683327195020  0.3321594554561  0.3105174382794 1.0
C      1  0.7193057349496  0.3171288731558  0.5266944270912 1.0
C      1  0.6348338962463  0.3242915946608  0.6975380327453 1.0
C      1  0.4414612146768  0.3177211152385  0.7074112487532 1.0
C      1  0.2870752272631  0.3561026427414  0.5442671908652 1.0
C      1  0.3111507060608  0.3515528045742  0.3550587819159 1.0
C      1  0.4895894414115  0.3385901395984  0.2606628687813 1.0
C      1  0.3849278966796  0.6876096041925  0.5198297387704 1.0
C      1  0.3876328857760  0.6921137793163  0.4225762554608 1.0
C      1  0.5346478755369  0.6956052928173  0.3265465475647 1.0
C      1  0.5961486793975  0.6839285821105  0.4047609541819 1.0
C      1  0.6499330674439  0.6866466065741  0.5998663637246 1.0
C      1  0.5888491734847  0.6915342966502  0.6839527796936 1.0
C      1  0.4961188309784  0.6862463434278  0.6412880258503 1.0
C      1  0.2985695916223  0.2965948598488  0.0951778581933 1.0
C      1  0.6959445723539  0.2962954051306  0.0781875443627 1.0
C      1  0.9397518378561  0.2817182181024  0.3924047667862 1.0
C      1  0.8531475427338  0.2757910966031  0.7656262405668 1.0
C      1  0.4982565493848  0.2646630796394  0.9802333274399 1.0
C      1  0.1735800143184  0.2885694385865  0.7736679735344 1.0
C      1  0.0383117954923  0.2537407412422  0.3887555799113 1.0
C      1  0.7600616461398  0.3757021860943  0.4538305638273 1.0
C      1  0.7104292229555  0.3882641492340  0.6867315847379 1.0
C      1  0.4886324939172  0.3791209656726  0.7670861033676 1.0
C      1  0.2832424393577  0.3928942282829  0.6388310626385 1.0
C      1  0.2465344161968  0.4073102233788  0.3996559335370 1.0
C      1  0.4000107076336  0.3929160692214  0.2374753554207 1.0
C      1  0.6483373453976  0.4048834873550  0.2464407822797 1.0
C      1  0.5260069612342  0.5764579560405  0.7810342774132 1.0
C      1  0.2804544540517  0.6089696039640  0.7322771660183 1.0
C      1  0.2463550995758  0.5804211729326  0.4608341482604 1.0
C      1  0.3354137036342  0.5911070736654  0.2278057018819 1.0
C      1  0.6856983772727  0.6262808487182  0.1969770284575 1.0
C      1  0.7803336457695  0.6077269953292  0.4233483290038 1.0
C      1  0.7754599762839  0.5736783481932  0.6832306644538 1.0
C      1  0.3676288286152  0.7754501809172  0.3882482810666 1.0
C      1  0.5096433524121  0.7825217051025  0.3265682766207 1.0
C      1  0.6351149197110  0.7665364441154  0.4265760846538 1.0
C      1  0.6723951951322  0.7737387275213  0.5870202145023 1.0
C      1  0.5795431583654  0.7898080899840  0.7153129260246 1.0
C      1  0.4245647727138  0.7575326317897  0.6581815566649 1.0
C      1  0.3109006022182  0.7520081910523  0.5441374511002 1.0
C      1  0.7879105834201  0.2360220165950  0.2089641149488 1.0
C      1  0.9077620622945  0.2130564510014  0.5454891672605 1.0
C      1  0.6973927566140  0.2452623796590  0.8437204937071 1.0
C      1  0.3780973816522  0.2345676035877  0.8653697575857 1.0
C      1  0.1292205540776  0.2215968241472  0.6191436431312 1.0
C      1  0.1460704924864  0.2141194982709  0.2571269707812 1.0
C      1  0.4605531788166  0.2495214145202  0.0744068392355 1.0
C      1  0.4659143589897  0.5952521658335  0.6371721994566 1.0
C      1  0.4140087576535  0.5943528177385  0.5521855932134 1.0
C      1  0.4106296757379  0.6182421769723  0.3708734790993 1.0
C      1  0.4702999145978  0.6272326940965  0.3035708984062 1.0
C      1  0.5872087140652  0.5946859252222  0.4519337492708 1.0
C      1  0.6557429310083  0.5968872786437  0.5399289150755 1.0
C      1  0.5236558396550  0.5240558505523  0.5929856140920 1.0
C      1  0.2714813074942  0.5694163671908  0.6390747671036 1.0
C      1  0.2310661264991  0.5830154506356  0.3701534803066 1.0
C      1  0.4352071354500  0.5609543606381  0.2380048206194 1.0
C      1  0.7024608802568  0.5690359327071  0.2669511284646 1.0
C      1  0.7487785070035  0.5581120691571  0.5048788379380 1.0
C      1  0.6839726515301  0.5601522950690  0.7179929176974 1.0
C      1  0.4403912563785  0.5576527181550  0.7286310577096 1.0
C      1  0.1610885914811  0.7308046840107  0.7817620091194 1.0
C      1  0.1602190604249  0.7840154868959  0.3880177002626 1.0
C      1  0.3131322612798  0.7235237857314  0.1219417756147 1.0
C      1  0.7097340631451  0.7215700575669  0.1864574827421 1.0
C      1  0.9224684965804  0.6965782640304  0.4809042494153 1.0
C      1  0.8267660662409  0.6751401085938  0.7972662145642 1.0
C      1  0.4216508982334  0.7293233310488  0.9003270462226 1.0
C      1  0.2062546904835  0.1354810681908  0.2542611879604 1.0
C      1  0.4861099764634  0.1658733683750  0.1222107345331 1.0
C      1  0.7678173027002  0.1512841859839  0.2512459210072 1.0
C      1  0.8551320526078  0.1321320800259  0.5576324191010 1.0
C      1  0.6647720632326  0.1589264040563  0.8223024845226 1.0
C      1  0.3693733107241  0.1587618417610  0.8081414824145 1.0
C      1  0.1580145146261  0.1361039845739  0.5815595103234 1.0
C      1  0.1342611270769  0.4831375836828  0.0901883184390 1.0
C      1  0.5606044722498  0.5601854934073  0.0138397738203 1.0
C      1  0.9237521062595  0.5336033856673  0.2782760227871 1.0
C      1  0.9296105552638  0.5399427931735  0.7154654831789 1.0
C      1  0.6598599498024  0.5620972737464  0.9951897361739 1.0
C      1  0.1977522840003  0.5147632824090  0.8975869296652 1.0
C      1  0.0694909253557  0.5416909521681  0.6159540933999 1.0
C      1  0.4690073185276  0.2178676556479  0.6952359996102 1.0
C      1  0.3194104410267  0.2029866925054  0.6151367637475 1.0
C      1  0.2438910659067  0.1762713664071  0.4667778644715 1.0
C      1  0.4797105504235  0.2405125511933  0.2764167780508 1.0
C      1  0.6340871073121  0.2483260689051  0.3243298401691 1.0
C      1  0.7023165787293  0.2262157312977  0.4990941330159 1.0
C      1  0.6489990876032  0.2170965458015  0.6871956449701 1.0
C      1  0.2317278303752  0.2287385254407  0.8164379169982 1.0
C      1  0.0837458042826  0.2339300438339  0.4724044399566 1.0
C      1  0.2515089648883  0.2274824980888  0.1406182898578 1.0
C      1  0.6196639548462  0.2389132461771  0.0813333393406 1.0
C      1  0.8833949270196  0.2251682443731  0.3329067287213 1.0
C      1  0.8759997139624  0.2123557935697  0.6986377785742 1.0
C      1  0.5447984014087  0.2339404947248  0.8958317437047 1.0
C      1  0.7209838721027  0.1522471194936  0.6503837840232 1.0
C      1  0.5282990754288  0.0989568817945  0.7858085088182 1.0
C      1  0.2738479545369  0.1543906719205  0.6775816904610 1.0
C      1  0.2064750094909  0.1170271689251  0.4151388206224 1.0
C      1  0.3541187302112  0.0985146571472  0.2154315143741 1.0
C      1  0.5995301385856  0.1112930129168  0.2126196781212 1.0
C      1  0.7839183149812  0.0994083636927  0.4007305051606 1.0
C      1  0.4425077385632  0.0992137429822  0.1759188223986 1.0
C      1  0.6900534718374  0.1012166315233  0.2621547942615 1.0
C      1  0.8040514620996  0.0785216250838  0.4952378916140 1.0
C      1  0.6706850190282  0.1172992679165  0.7316883752138 1.0
C      1  0.4433727865577  0.1314067527677  0.7484407271455 1.0
C      1  0.2366220016673  0.0870258582519  0.6188844092748 1.0
C      1  0.2429652981313  0.1007650773429  0.3297488259446 1.0
C      1  0.6157653968483  0.2972438902255  0.8629090868026 1.0
C      1  0.2984457408592  0.2828925591538  0.8566023534782 1.0
C      1  0.0798927712696  0.2732480549335  0.5559634978743 1.0
C      1  0.1914734165681  0.2739342310291  0.1963506275322 1.0
C      1  0.5448866147704  0.3011519774629  0.0577165493651 1.0
C      1  0.8432297052689  0.2798572716590  0.2707487960861 1.0
C      1  0.9332168152213  0.2442279033291  0.6306247103550 1.0
C      1  0.6787060797646  0.4024677076381  0.0825101175335 1.0
C      1  0.9032450939932  0.3840581625891  0.3750647073880 1.0
C      1  0.8609846774267  0.3817745426444  0.7477787836741 1.0
C      1  0.5337454051915  0.4319961472709  0.9058379298942 1.0
C      1  0.1974865763218  0.3873186831514  0.7810772848310 1.0
C      1  0.1043797829674  0.4586193298626  0.4216791351160 1.0
C      1  0.2688254219759  0.3915700165235  0.1203395556099 1.0
C      1  0.0805030434016  0.2351830504600  0.3131986387963 1.0
C      1  0.3869336170345  0.3123037827339  0.0904645441910 1.0
C      1  0.7497153938789  0.2975017361422  0.1526335114925 1.0
C      1  0.9007558575123  0.2837338248067  0.4819486452179 1.0
C      1  0.7695865753951  0.2881361479341  0.8068239037694 1.0
C      1  0.4565973829366  0.2829759022748  0.8939794910165 1.0
C      1  0.1516357054818  0.2876355283761  0.6860500014750 1.0
C      1  0.0864754672708  0.6579020089464  0.4972562121694 1.0
C      1  0.2037594546936  0.6069077377697  0.1921761155712 1.0
C      1  0.6038821094344  0.6461012611561  0.1450737351660 1.0
C      1  0.8634862746441  0.6576138707951  0.4086163941045 1.0
C      1  0.8464145524898  0.6009233479157  0.7385049529649 1.0
C      1  0.5522878573778  0.6378735659129  0.9397986874199 1.0
C      1  0.2081857537880  0.6456631621509  0.7932729811535 1.0
C      1  0.0223446724799  0.5216764343523  0.2873518128623 1.0
C      1  0.2912352788723  0.6377207277272  0.1546855792056 1.0
C      1  0.8294586198277  0.5024044616304  0.0360260111718 1.0
C      1  0.9982082288632  0.6343698049380  0.4990666894603 1.0
C      1  0.9062019552237  0.4835429932585  0.8723553732446 1.0
C      1  0.4084879519937  0.6451030595272  0.8569444874320 1.0
C      1  0.0816859511958  0.5030056328886  0.7809392874161 1.0
C      1  0.4093446136047  0.0569289504039  0.6389534725055 1.0
C      1  0.3148204146939  0.0302211462145  0.6091528099931 1.0
C      1  0.3433556466488  0.0763593865223  0.3219221347630 1.0
C      1  0.5104278346857  0.0371439535225  0.2067659941652 1.0
C      1  0.6904546775110  0.0809373629314  0.3629362471985 1.0
C      1  0.7525243542663  0.0035575471031  0.5304509019726 1.0
C      1  0.5921284615334  0.0628615582596  0.7243474124859 1.0
C      1  0.7588186728770  0.7255964988626  0.8419102831439 1.0
C      1  0.3635269695607  0.8066405644579  0.8881397182420 1.0
C      1  0.1215252747519  0.7570950249757  0.7021795761358 1.0
C      1  0.1474432399772  0.7577423459632  0.3013142930165 1.0
C      1  0.4012055741087  0.7566239274350  0.1122135881368 1.0
C      1  0.7790336380548  0.7697397295049  0.2146597450665 1.0
C      1  0.8916451180387  0.7284792101027  0.5649625800726 1.0
C      1  0.8589571091458  0.3771252414078  0.4779799434309 1.0
C      1  0.7606813023546  0.3844917862371  0.7775772515770 1.0
C      1  0.4576805180046  0.3816772182758  0.8615752767271 1.0
C      1  0.1826398095668  0.3847138090152  0.6718106893322 1.0
C      1  0.1640015938495  0.4273395989403  0.3521848245983 1.0
C      1  0.3756116500424  0.4072809810317  0.1362836968440 1.0
C      1  0.7308463815316  0.3962330216152  0.1760105873980 1.0
C      1  0.1866652450690  0.7929633472642  0.2270510703213 1.0
C      1  0.4747731963004  0.7934510549996  0.1185579802239 1.0
C      1  0.8301976543128  0.8038102431237  0.2703221217545 1.0
C      1  0.8848207548649  0.7707990123417  0.6342604053825 1.0
C      1  0.6779537141608  0.7174392267850  0.8896805495714 1.0
C      1  0.2706866609880  0.8152434418486  0.8905738840171 1.0
C      1  0.1015287721089  0.7821376265336  0.6265194573504 1.0
C      1  0.6187955993983  0.3987971482161  0.8618976504286 1.0
C      1  0.3019119360324  0.3743989737834  0.8077689868308 1.0
C      1  0.1397149266622  0.4356777632726  0.5059166810880 1.0
C      1  0.2239669060163  0.3718156005285  0.2115774106384 1.0
C      1  0.5778379340042  0.3810294324254  0.1099720511109 1.0
C      1  0.8280615073058  0.3731681743796  0.3046328587680 1.0
C      1  0.8720996426726  0.3802927555888  0.6483636617560 1.0
C      1  0.4451817460855  0.4935080496820  0.4518674825897 1.0
C      1  0.4676084741365  0.8454587772872  0.5297739587897 1.0
C      1  0.4961786951851  0.2284859498398  0.4973712743051 1.0
C      1  0.4987961348691  0.5622824277961  0.4993230015270 1.0
C      1  0.4613111140740  0.7454070477753  0.5629338781984 1.0
C      1  0.4385131877292  0.2850576685850  0.5545945661848 1.0
END
