TITL C-17091-7747-56 -3.923 3375.00 -647.28071805 0 0 79 (C1) n - 1
REM
REM Run started: at 2021.01.04 15:05:54 in /gpfs/home/chem/mssmkc/CARBON/AIRSS/Generating-Clusters/Str-Search/Higher-Symm/C4-100
REM VASP from code version vasp.5.4.4.18Apr17-6-g9f103f2a35 (build Oct 11 2019 16:45:47) gamma-only
REM
REM
REM
REM
REM ./C.cell (6bd13a13d554368a30d355f37ece5b26)
REM AIRSS Version 0.9.1 bugfix July 2018 build 013d7b7c2542+ Fri, 06 Jul 2018 19:26:36 +0100
REM compiler GCC version 6.3.0
REM options -cpp -iprefix /gpfs/warwick/csc/orac/software/Core/GCCcore/6.3.0/bin/../lib/gcc/x86_64-pc-linux-gnu/6.3.0/ -mtune=generic -march=x86-64 -g -O0
REM seed -1602542685 -1245555451 1004293022 839663926 -1210846086 1660608100 150707092 1134136425 -825404400 -1467140563 -322956575 -953044856
REM
REM C.POTCAR (d86ddea03c3ceb6dc662c8ad6801f873)
REM 
CELL 1.54180   15.00000   15.00000   15.00000   90.00000   90.00000   90.00000
LATT -1
SFAC C  
C      1  0.6377830806063  0.7192758661073  0.6877075545446 1.0
C      1  0.7033087759491  0.6409773256541  0.7953254747201 1.0
C      1  0.7585196903133  0.6103728170867  0.6501895794968 1.0
C      1  0.3923550854027  0.7394677883023  0.3652383955083 1.0
C      1  0.6183123239080  0.2706809648293  0.3819875332811 1.0
C      1  0.2956002909780  0.2613206789633  0.6513218270699 1.0
C      1  0.3943114171059  0.7262039941617  0.1996239983944 1.0
C      1  0.6002716437032  0.4012015156065  0.2602312247807 1.0
C      1  0.3250512102997  0.3860252777242  0.7359638288661 1.0
C      1  0.2484456852429  0.7180982886970  0.2844043259411 1.0
C      1  0.7180765367391  0.4169595691745  0.3725585493476 1.0
C      1  0.2242921676200  0.3868894195950  0.6018652119326 1.0
C      1  0.6062715339730  0.2613989473399  0.5422258916925 1.0
C      1  0.5154214526081  0.5373895407940  0.2373735607806 1.0
C      1  0.2535740025609  0.5393699714375  0.5652492914738 1.0
C      1  0.4634190782401  0.2478127478018  0.4360520767017 1.0
C      1  0.5396640199334  0.7126285920144  0.4092369855678 1.0
C      1  0.4201989812869  0.7283414615403  0.5308944983488 1.0
C      1  0.4442085602212  0.5770643303208  0.7151295024974 1.0
C      1  0.5548160343990  0.4369083212142  0.7143229661540 1.0
C      1  0.4345711670023  0.3940261575421  0.2601376251577 1.0
C      1  0.7131676853625  0.5681508303661  0.4066542939042 1.0
C      1  0.2748564157544  0.4033958353929  0.4567533204268 1.0
C      1  0.7358518056604  0.4657705813798  0.5375459743292 1.0
C      1  0.3329025129053  0.6928292752093  0.5269545442388 1.0
C      1  0.5367759361698  0.3487033381421  0.6851300212389 1.0
C      1  0.6363705329810  0.5449474915500  0.3457287872976 1.0
C      1  0.6191523686896  0.7012819409795  0.4560180825005 1.0
C      1  0.3973499983066  0.2910697556921  0.4864055135893 1.0
C      1  0.6920779101352  0.3010287107129  0.5456219764545 1.0
C      1  0.4395833871882  0.3008781269358  0.2816617204677 1.0
C      1  0.4781357097648  0.5828165369588  0.3120036470881 1.0
C      1  0.4754444221640  0.6571260986095  0.6832040371776 1.0
C      1  0.2800426779113  0.5214817006728  0.6576004062247 1.0
C      1  0.7753397939144  0.5208978907059  0.6137151237038 1.0
C      1  0.3401783467516  0.4427443439019  0.3950267506792 1.0
C      1  0.2964747520082  0.7204119806259  0.3664131480424 1.0
C      1  0.3225799198803  0.2921864703337  0.7252409429276 1.0
C      1  0.6618184985848  0.4574943436344  0.3065083719872 1.0
C      1  0.6998686454071  0.6833157763397  0.6218648134154 1.0
C      1  0.2581730206036  0.2993416191995  0.5753297281593 1.0
C      1  0.6918729109029  0.3260270481277  0.3656616631355 1.0
C      1  0.6223688118057  0.3158090239912  0.2986957496904 1.0
C      1  0.4402246449812  0.7270416830527  0.2819117664985 1.0
C      1  0.6635861562162  0.7146062067243  0.7779068806807 1.0
C      1  0.2579442336959  0.4286117647030  0.6779767163417 1.0
C      1  0.7462967869603  0.5808327944863  0.7449243734007 1.0
C      1  0.3100913953951  0.7306176134294  0.2236463429645 1.0
C      1  0.4188981063405  0.4788808642776  0.4410447781889 1.0
C      1  0.4368695757111  0.3569053248417  0.5495245607078 1.0
C      1  0.4651379271905  0.4409701934344  0.5154574818867 1.0
C      1  0.6345811634327  0.4694312414276  0.6665129779197 1.0
C      1  0.3869407180645  0.4550454609829  0.7543871598085 1.0
C      1  0.5663441325704  0.5156497374059  0.4216508705173 1.0
C      1  0.6333138799872  0.4669416975602  0.5702542293707 1.0
C      1  0.2713947313737  0.6219828199421  0.5236452675301 1.0
C      1  0.6959842212364  0.6464602258733  0.4522821076154 1.0
C      1  0.4719751928326  0.3159217922630  0.6261377634102 1.0
C      1  0.4701750470500  0.7169117919797  0.6092379833951 1.0
C      1  0.4800831247483  0.5301271328989  0.3926691396970 1.0
C      1  0.6787100267553  0.6908747207101  0.5305402134614 1.0
C      1  0.5449741849633  0.7174813529550  0.6634414031887 1.0
C      1  0.7204845472879  0.5025769305134  0.6928021957654 1.0
C      1  0.2766656314114  0.6848302540318  0.4531222140934 1.0
C      1  0.7416521213266  0.3667110217868  0.5508950610605 1.0
C      1  0.2996990805233  0.3142782410333  0.4887055528074 1.0
C      1  0.5235091696912  0.6765272071510  0.3151263478402 1.0
C      1  0.4402096541925  0.2458323711209  0.3433498451841 1.0
C      1  0.5574251203470  0.2770244100804  0.6223894536239 1.0
C      1  0.3642208971314  0.4241193660816  0.3099563498229 1.0
C      1  0.5803125757719  0.5995887852423  0.2801441548401 1.0
C      1  0.3564102769736  0.5382868502860  0.7095040479013 1.0
C      1  0.4527871833563  0.7389495395195  0.4404572153890 1.0
C      1  0.4783030115397  0.4863577466775  0.7437632970489 1.0
C      1  0.2331528283276  0.4507871485733  0.5286314632873 1.0
C      1  0.5615553645742  0.2504757555782  0.4565129521528 1.0
C      1  0.7414269923262  0.4842283521792  0.4390494917495 1.0
C      1  0.5160869668504  0.4426737005729  0.2332653003737 1.0
C      1  0.5616101279190  0.4712559052555  0.5088195215397 1.0
END
