TITL C-17385-2468-8 -1.512 3375.00 -245.64215283 0 0 31 (Cs) n - 1
REM
REM Run started: at 2020.11.22 04:07:36 in /rds/project/t2_vol4/rds-t2-cs072/BORA/CARBON/AIRSS/Generating-Clusters/Str-Search/Higher-Symm
REM VASP from code version vasp.5.4.4.18Apr17-6-g9f103f2a35 (build Oct 11 2019 16:45:47) gamma-only
REM
REM
REM
REM
REM ./C.cell (e5ae0387ce4d49c7c0135a1433873289)
REM AIRSS Version 0.9.1 bugfix July 2018 build 013d7b7c2542+ Fri, 06 Jul 2018 19:26:36 +0100
REM compiler GCC version 4.8.5 20150623 (Red Hat 4.8.5-39)
REM options -cpp -mtune=generic -march=x86-64 -g -O0
REM seed 2052133579 1641647757 1411683694 2017645404 -723254344 539954043 183383562 -233625235 -1614369366 807068954 1217679161 1300408219
REM
REM C.POTCAR (d86ddea03c3ceb6dc662c8ad6801f873)
REM 
CELL 1.54180   15.00000   15.00000   15.00000   90.00000   90.00000   90.00000
LATT -1
SFAC C  
C      1  0.6715424900779  0.4497755691017  0.4425006056471 1.0
C      1  0.4050208842818  0.4486584928833  0.3886557693613 1.0
C      1  0.4450016296346  0.4489357296007  0.6536375126103 1.0
C      1  0.6715779731354  0.5486099333888  0.4424758016142 1.0
C      1  0.4049858408722  0.5501024336897  0.3886315080875 1.0
C      1  0.4450192522831  0.5498530285971  0.6535978725028 1.0
C      1  0.3347107258934  0.4517705133160  0.4583051586025 1.0
C      1  0.6238197701205  0.4125371055646  0.3709955424093 1.0
C      1  0.5447830847098  0.4497863763148  0.6468801539596 1.0
C      1  0.3346814951300  0.5471003026970  0.4582591366696 1.0
C      1  0.6238521857417  0.5857006843663  0.3709167567938 1.0
C      1  0.5448005351328  0.5489934211610  0.6468636839004 1.0
C      1  0.5535184392609  0.6152804650757  0.3362403669640 1.0
C      1  0.3383982603921  0.6079514461425  0.5274903303992 1.0
C      1  0.6000514037483  0.6125065700833  0.5981148321076 1.0
C      1  0.5535210576864  0.3829788793524  0.3362671053298 1.0
C      1  0.3383468150074  0.3909244609252  0.5275452126263 1.0
C      1  0.5999678715723  0.3861110709302  0.5982407200657 1.0
C      1  0.4749899818826  0.6156092518834  0.3911595722412 1.0
C      1  0.6452937548578  0.6034740444202  0.5141043476507 1.0
C      1  0.3867069361139  0.6162160702535  0.6104520217277 1.0
C      1  0.4749472403023  0.3829790533450  0.3911956325774 1.0
C      1  0.6452248128252  0.3949891907442  0.5141964368676 1.0
C      1  0.3866238705926  0.3825360177643  0.6105337405681 1.0
C      1  0.5699683984457  0.3387987589824  0.5210597225821 1.0
C      1  0.4861425132063  0.3311121885757  0.4763435114291 1.0
C      1  0.4121060807262  0.3331586390427  0.5348695140325 1.0
C      1  0.5700999148952  0.6597577867862  0.5208971107546 1.0
C      1  0.4862558684746  0.6675531964377  0.4762314203165 1.0
C      1  0.4122463240276  0.6655804363444  0.5348149582593 1.0
C      1  0.4861606889697  0.4993748822301  0.5696277413424 1.0
END
