TITL C-17091-7747-68 -4.041 3375.00 -718.85932809 0 0 88 (C1) n - 1
REM
REM Run started: at 2021.01.04 18:31:09 in /gpfs/home/chem/mssmkc/CARBON/AIRSS/Generating-Clusters/Str-Search/Higher-Symm/C4-100
REM VASP from code version vasp.5.4.4.18Apr17-6-g9f103f2a35 (build Oct 11 2019 16:45:47) gamma-only
REM
REM
REM
REM
REM ./C.cell (6bd13a13d554368a30d355f37ece5b26)
REM AIRSS Version 0.9.1 bugfix July 2018 build 013d7b7c2542+ Fri, 06 Jul 2018 19:26:36 +0100
REM compiler GCC version 6.3.0
REM options -cpp -iprefix /gpfs/warwick/csc/orac/software/Core/GCCcore/6.3.0/bin/../lib/gcc/x86_64-pc-linux-gnu/6.3.0/ -mtune=generic -march=x86-64 -g -O0
REM seed 1626707538 796547017 627248860 2007057382 -878487241 -1706694837 173067907 911051261 -1454564375 -423740464 -1044698566 -2005885817
REM
REM C.POTCAR (d86ddea03c3ceb6dc662c8ad6801f873)
REM 
CELL 1.54180   15.00000   15.00000   15.00000   90.00000   90.00000   90.00000
LATT -1
SFAC C  
C      1  0.5537643639328  0.5027828521295  0.7460455245310 1.0
C      1  0.2960299762757  0.5148283450157  0.6602620948293 1.0
C      1  0.2775532001090  0.5156647120643  0.3486692687191 1.0
C      1  0.5751672497217  0.5022789000249  0.2544194053337 1.0
C      1  0.7472114940931  0.5000513193381  0.4962312777110 1.0
C      1  0.4358830380823  0.7414905278954  0.3627835688026 1.0
C      1  0.6177621199155  0.7326246251232  0.3909269443733 1.0
C      1  0.6319280515481  0.7347722574880  0.5738718176037 1.0
C      1  0.4651373808204  0.7628349150695  0.6811081727236 1.0
C      1  0.3424799747375  0.7509857920024  0.5197318632451 1.0
C      1  0.2749172997021  0.4246253918197  0.3781149690170 1.0
C      1  0.5357839759913  0.4168596261876  0.2383634979497 1.0
C      1  0.7664380140584  0.4105167676797  0.4730927929405 1.0
C      1  0.5914275807757  0.4127446279150  0.7423897930742 1.0
C      1  0.3184416415948  0.4234702895338  0.6739406546524 1.0
C      1  0.7164335892023  0.6562940978686  0.4884780739251 1.0
C      1  0.5625102693311  0.6620596695521  0.7089039573272 1.0
C      1  0.3220869541363  0.6751337362798  0.6399826631050 1.0
C      1  0.3075901636102  0.6772745222288  0.3739610794415 1.0
C      1  0.5604053983712  0.6605469033780  0.2884027571500 1.0
C      1  0.4643173746661  0.5247400508057  0.7775575819079 1.0
C      1  0.2508378190849  0.5239399819885  0.5744524782523 1.0
C      1  0.3422724186779  0.5232635167583  0.2762880387903 1.0
C      1  0.6667351312063  0.5035588924903  0.2953132585636 1.0
C      1  0.6956907425301  0.4928411818447  0.5831661931177 1.0
C      1  0.7145882869302  0.3377332429773  0.5315009292109 1.0
C      1  0.5357177578574  0.3335871184817  0.7083018821284 1.0
C      1  0.3252238928790  0.3512046798210  0.5999503380564 1.0
C      1  0.3474021883491  0.3524283581013  0.3629650820933 1.0
C      1  0.5711180985755  0.3375092589115  0.2795359897117 1.0
C      1  0.2917057356194  0.5903284350160  0.5033927315486 1.0
C      1  0.4223946066082  0.5811839796895  0.3069411028636 1.0
C      1  0.6948054524605  0.5821901311210  0.3466453378866 1.0
C      1  0.6303986180248  0.5681518035874  0.6000900609270 1.0
C      1  0.4176491417233  0.6077911647903  0.7506413038039 1.0
C      1  0.5965012897293  0.5755981041982  0.6978075541924 1.0
C      1  0.3394102855906  0.5979224859643  0.6958264601969 1.0
C      1  0.2683040840990  0.5955508066027  0.4045175241135 1.0
C      1  0.5175516715595  0.5811869321552  0.2660550163122 1.0
C      1  0.7335610674406  0.5784726569804  0.4388488307341 1.0
C      1  0.6576818795742  0.7330724962588  0.4742498355618 1.0
C      1  0.5510408836257  0.7256448338988  0.6309231152969 1.0
C      1  0.3933790351723  0.7412023733598  0.6121658614198 1.0
C      1  0.3590703489990  0.7469990284549  0.4281587265850 1.0
C      1  0.5281735549430  0.7330728541682  0.3491923908211 1.0
C      1  0.3536421643942  0.3062289058372  0.4529500890790 1.0
C      1  0.4970663328412  0.3001719329553  0.3349748998450 1.0
C      1  0.6732098149422  0.2752710638991  0.4629565785086 1.0
C      1  0.5923547654032  0.2804810537367  0.6436541690195 1.0
C      1  0.4063671100254  0.2972719569064  0.6291389929880 1.0
C      1  0.6596157620420  0.3363185256883  0.3009093022452 1.0
C      1  0.6446755889807  0.4045797010620  0.5624379779689 1.0
C      1  0.4619626478854  0.3775359563032  0.6577428974448 1.0
C      1  0.3455365718222  0.3893007845062  0.5110777499159 1.0
C      1  0.4400234117652  0.3890055191227  0.3481785710244 1.0
C      1  0.4545951442037  0.2420118804730  0.5651037290601 1.0
C      1  0.4306393060872  0.2498846003760  0.4751218646953 1.0
C      1  0.5083209445334  0.2493292496383  0.4193934725562 1.0
C      1  0.5846517374428  0.2427229513385  0.4783425392015 1.0
C      1  0.5500415895779  0.2385532460494  0.5710254909583 1.0
C      1  0.2881295193010  0.6767104628011  0.5531183183743 1.0
C      1  0.3844473776778  0.6721630865259  0.3183965643933 1.0
C      1  0.6483016361920  0.6616038974876  0.3279836456471 1.0
C      1  0.6774108689206  0.6531657772420  0.5767452942565 1.0
C      1  0.4742471892828  0.6855280068347  0.7418420163032 1.0
C      1  0.6744511025228  0.3330782402958  0.6305182313442 1.0
C      1  0.4317650850746  0.3038529561222  0.7281075328937 1.0
C      1  0.2699843800933  0.3158840768383  0.5136609410033 1.0
C      1  0.4071104242032  0.3131139632281  0.2841382868635 1.0
C      1  0.7065289488580  0.3011350053968  0.3799462582893 1.0
C      1  0.1986761019929  0.4636361050471  0.5334550114186 1.0
C      1  0.3630998602418  0.4589657098115  0.2187237209181 1.0
C      1  0.7086103540665  0.4198387845582  0.3074511666255 1.0
C      1  0.7260766798587  0.4846096082071  0.6808778117511 1.0
C      1  0.4080337225769  0.4581512097216  0.8090497404229 1.0
C      1  0.7590780772010  0.3818054878987  0.3846229281892 1.0
C      1  0.6778868853302  0.4061824925568  0.7031661365750 1.0
C      1  0.3926662764149  0.3963976235764  0.7368573927952 1.0
C      1  0.2498459922286  0.4087250800923  0.4726338975429 1.0
C      1  0.4376999319281  0.4047118212193  0.2445517359685 1.0
C      1  0.5353760520404  0.5503399289450  0.4315877376893 1.0
C      1  0.5477173552498  0.5598601828758  0.5320018933783 1.0
C      1  0.4626919960156  0.5980513964156  0.5550545380289 1.0
C      1  0.3924741462599  0.5748824964162  0.4885264027827 1.0
C      1  0.4398099881315  0.5626434160576  0.4094492010087 1.0
C      1  0.4714469885100  0.6848638679824  0.5816558702063 1.0
C      1  0.5457754079789  0.4703431294236  0.4706057482183 1.0
C      1  0.5600131579659  0.4067498115101  0.5255015520508 1.0
END
