TITL C-187165-3728-4 -9.713 3375.00 -1604.75980330 0 0 199 (C1) n - 1
REM
REM Run started: at 2020.12.28 20:01:42 in /rds/project/t2_vol4/rds-t2-cs072/BORA/CARBON/AIRSS/Generating-Clusters/Str-Search/Higher-Symm/C100-200
REM VASP from code version vasp.5.4.4.18Apr17-6-g9f103f2a35 (build Oct 11 2019 16:45:47) gamma-only
REM
REM
REM
REM
REM ./C.cell (533062f00bc710175b3da973d35f2034)
REM AIRSS Version 0.9.1 bugfix July 2018 build 013d7b7c2542+ Fri, 06 Jul 2018 19:26:36 +0100
REM compiler GCC version 4.8.5 20150623 (Red Hat 4.8.5-39)
REM options -cpp -mtune=generic -march=x86-64 -g -O0
REM seed 97799815 725139767 1800639790 1416640171 702077291 -571208918 2052607353 -1822363563 326781049 1636685174 38436523 2043744741
REM
REM C.POTCAR (d86ddea03c3ceb6dc662c8ad6801f873)
REM 
CELL 1.54180   15.00000   15.00000   15.00000   90.00000   90.00000   90.00000
LATT -1
SFAC C  
C      1  0.3338206049763  0.4740067066527  0.2664749276292 1.0
C      1  0.3476148966340  0.7109529717770  0.3934103690383 1.0
C      1  0.3576283169597  0.6662648081626  0.6437555230490 1.0
C      1  0.3390505913397  0.4285726441904  0.7317484826598 1.0
C      1  0.3237965374507  0.2872100346099  0.4369357985906 1.0
C      1  0.6586670760559  0.5540754644330  0.2733212683720 1.0
C      1  0.6838296093744  0.3133160317301  0.3779640323973 1.0
C      1  0.6467124757881  0.2846418735393  0.6961223304959 1.0
C      1  0.6744616366582  0.6083765227611  0.7243276774390 1.0
C      1  0.6836803202711  0.7339491661838  0.4390135118430 1.0
C      1  0.5787402711495  0.5331524673299  0.8442872789039 1.0
C      1  0.5931056171582  0.1940102871223  0.6606793549732 1.0
C      1  0.5955873953881  0.3021614157235  0.1947378603195 1.0
C      1  0.6327168047806  0.7641351126319  0.1865938843608 1.0
C      1  0.6488426004947  0.8195427107326  0.6334868547997 1.0
C      1  0.3779512303356  0.5103968807601  0.9171702636929 1.0
C      1  0.4577428006669  0.7780360756608  0.5847948692950 1.0
C      1  0.4171363583756  0.6987022734999  0.1998594445336 1.0
C      1  0.3689698392548  0.2508128579264  0.2031176407626 1.0
C      1  0.3896451899702  0.1841096401651  0.6248036379374 1.0
C      1  0.8205147477590  0.7249845039906  0.3448134634822 1.0
C      1  0.8053098208806  0.6403394597795  0.6551209688854 1.0
C      1  0.7849244092798  0.3441654097235  0.7704528381496 1.0
C      1  0.8295450698383  0.2852678118550  0.4633376050763 1.0
C      1  0.7793392522085  0.4409838243044  0.1851130994344 1.0
C      1  0.1881298699981  0.2882524822752  0.3562572405711 1.0
C      1  0.1894265969383  0.3052212577804  0.6781453226704 1.0
C      1  0.2504089041918  0.6122703746539  0.7538440512062 1.0
C      1  0.2261328999829  0.7812738495591  0.4778378736926 1.0
C      1  0.2109130769308  0.5774849825027  0.2411465836490 1.0
C      1  0.5688242364699  0.0883215679157  0.2918961401363 1.0
C      1  0.5419702859632  0.5778117219902  0.0197125993516 1.0
C      1  0.5846412335428  0.9613815796297  0.4253284199261 1.0
C      1  0.5030064573836  0.7742076144093  0.9070401793194 1.0
C      1  0.4801424003987  0.1577944071322  0.8503503910964 1.0
C      1  0.4544545036116  0.9057052699002  0.3051294556092 1.0
C      1  0.5276223767440  0.4094600718967  0.0824793580631 1.0
C      1  0.4787515329934  0.0327338151211  0.4389404058714 1.0
C      1  0.4150629377621  0.2865119876920  0.9434765144020 1.0
C      1  0.4611538170183  0.8900343552757  0.7897412482537 1.0
C      1  0.2654382018537  0.2499910885523  0.6875548710544 1.0
C      1  0.2840226775824  0.3078805779787  0.3430903966723 1.0
C      1  0.3037436208360  0.5751946499530  0.2746131677967 1.0
C      1  0.3152904274286  0.7406028675615  0.4873207159513 1.0
C      1  0.3230357990908  0.5873513729212  0.6912514492951 1.0
C      1  0.7198073972355  0.6736116422473  0.6750432932705 1.0
C      1  0.7219380342882  0.7165970207257  0.3364909979993 1.0
C      1  0.6777169638528  0.4573433189083  0.2909642257175 1.0
C      1  0.7350843007667  0.3065679737759  0.4643423927645 1.0
C      1  0.6876517506407  0.3563002855703  0.7566313247591 1.0
C      1  0.8456382618692  0.4078162338201  0.7383108340524 1.0
C      1  0.8709363622140  0.2754715876142  0.5470717815280 1.0
C      1  0.8441082110032  0.4029026196267  0.2432925264306 1.0
C      1  0.8728736563293  0.6546008711136  0.3119604222993 1.0
C      1  0.8523522247292  0.6224287427745  0.5807198182438 1.0
C      1  0.1733392979073  0.5585216130101  0.7205806642166 1.0
C      1  0.1610081214348  0.7395085311910  0.5317708859114 1.0
C      1  0.1456463684302  0.6206749707317  0.2895774240383 1.0
C      1  0.1296672874126  0.3571497399144  0.3347506358008 1.0
C      1  0.1589941730602  0.3487259800536  0.6034157105048 1.0
C      1  0.5013746659831  0.8660342850314  0.6251448746893 1.0
C      1  0.4273266017859  0.4557171548020  0.9737216536775 1.0
C      1  0.4567861931231  0.1204448032157  0.5961012201024 1.0
C      1  0.4496569500954  0.2681878000186  0.1473617636624 1.0
C      1  0.4788797731511  0.7682062188468  0.1870896772641 1.0
C      1  0.5229718467496  0.1264759945799  0.6798033101407 1.0
C      1  0.5586211353235  0.6015075569043  0.9271546345669 1.0
C      1  0.5954546963621  0.8846778555721  0.5821468392796 1.0
C      1  0.5541982931283  0.7272923958067  0.1363332101107 1.0
C      1  0.5322225106790  0.2325840923280  0.1904043742048 1.0
C      1  0.4185668748050  0.2717114839229  0.4557182248793 1.0
C      1  0.4353728228300  0.4675143709197  0.2732767654194 1.0
C      1  0.4501680084573  0.7108022439205  0.4025567897739 1.0
C      1  0.4592348716018  0.6836570588980  0.6423415854247 1.0
C      1  0.4338622939608  0.3954159833079  0.7232476941724 1.0
C      1  0.5803530684610  0.7359397481583  0.4557504002843 1.0
C      1  0.5589093843610  0.5469010272470  0.2787016441525 1.0
C      1  0.5841563235731  0.2933827671717  0.3895842664280 1.0
C      1  0.5513835936236  0.2924492009789  0.6586737324298 1.0
C      1  0.5739491963281  0.5827722408794  0.7416454186669 1.0
C      1  0.4448508908547  0.6166042952827  0.1519758003784 1.0
C      1  0.4435910194926  0.8689656200526  0.4599570753931 1.0
C      1  0.3805205973219  0.6003082954744  0.8674784961192 1.0
C      1  0.4068440697957  0.2141363179974  0.7232315393010 1.0
C      1  0.4078354233030  0.1674890241672  0.3409777469058 1.0
C      1  0.5814969996570  0.4014150532356  0.1661279554163 1.0
C      1  0.6113924369984  0.1335873176588  0.4365725053710 1.0
C      1  0.5533490380114  0.4263120620940  0.8380812432882 1.0
C      1  0.5646137685025  0.7400322380647  0.7563327902558 1.0
C      1  0.5640894902653  0.8053707853915  0.3109050603991 1.0
C      1  0.4884578710181  0.7804608531392  0.4846484755255 1.0
C      1  0.4513233607250  0.6510421487435  0.8304815753797 1.0
C      1  0.4749413728307  0.3010261004321  0.7270945807430 1.0
C      1  0.4586658155112  0.2052158270911  0.4104439045817 1.0
C      1  0.4791304473616  0.5491718352767  0.2192019575318 1.0
C      1  0.5562665897659  0.2104969847660  0.4098482993079 1.0
C      1  0.4913214476492  0.3725589941456  0.7975311381020 1.0
C      1  0.5021839160634  0.6672501217166  0.7427291093310 1.0
C      1  0.5384977028065  0.7391239555460  0.3639989387702 1.0
C      1  0.5226489399057  0.4622163570032  0.2231488206736 1.0
C      1  0.1646003239128  0.7274636607900  0.4350205826477 1.0
C      1  0.1801654926689  0.6450758439312  0.6910093814235 1.0
C      1  0.1597848029974  0.3947429119658  0.6853749417926 1.0
C      1  0.1450041278300  0.3212752154040  0.4292355203401 1.0
C      1  0.1482021688473  0.5169974026742  0.2632246080628 1.0
C      1  0.8730943836279  0.3251145547765  0.3877800470562 1.0
C      1  0.8442205747727  0.3171897402169  0.7046137383498 1.0
C      1  0.8522718616130  0.5613776220530  0.6595724246731 1.0
C      1  0.8670158887034  0.6835554209259  0.4116790316418 1.0
C      1  0.8323117076061  0.4988844769102  0.2324568975476 1.0
C      1  0.5249578946353  0.6416441461991  0.0940529116295 1.0
C      1  0.6110770764847  0.9272204906738  0.5032897943527 1.0
C      1  0.5174763369295  0.6835399502867  0.8968306775197 1.0
C      1  0.4739273277004  0.1472754223202  0.7599418103044 1.0
C      1  0.5505187372848  0.1502735744308  0.2385268676023 1.0
C      1  0.4587852614181  0.3398962908501  0.0816904777852 1.0
C      1  0.4595442632909  0.0691927729687  0.5188867790292 1.0
C      1  0.4096984702228  0.3589882815538  0.9988376058040 1.0
C      1  0.4719313409799  0.8966408721236  0.7053340803635 1.0
C      1  0.5001332899995  0.8491979615580  0.2424331274221 1.0
C      1  0.1967832123847  0.6754597013770  0.3562507926415 1.0
C      1  0.2090141468438  0.6999719512094  0.6119784287512 1.0
C      1  0.1829507341930  0.4673713027597  0.7393746995643 1.0
C      1  0.1970419961974  0.3335638475339  0.5134777931022 1.0
C      1  0.1825741680681  0.4289307613634  0.2894391840255 1.0
C      1  0.8275794243134  0.3321196034231  0.3035498604788 1.0
C      1  0.8211591012917  0.2744313759466  0.6236524298117 1.0
C      1  0.8254947091099  0.4983080689491  0.7235442968598 1.0
C      1  0.8164487678811  0.6600445192474  0.4944984978064 1.0
C      1  0.8105317868162  0.5884482381513  0.2676643935346 1.0
C      1  0.6086768729326  0.7956787566147  0.7157972463952 1.0
C      1  0.6460621749928  0.4046233849674  0.8338053902589 1.0
C      1  0.6519931901393  0.1403931102008  0.5146694700127 1.0
C      1  0.6854702539239  0.4102685140400  0.2006602899263 1.0
C      1  0.6067785118368  0.8449289528748  0.2391567588118 1.0
C      1  0.3192719298006  0.2385605072172  0.7617305950401 1.0
C      1  0.2875273445238  0.5932777328795  0.8430362711006 1.0
C      1  0.3651433343718  0.8829194587226  0.5071870716399 1.0
C      1  0.3484046518609  0.6590037309687  0.1313820736543 1.0
C      1  0.3787055564385  0.1783406127975  0.2651474477809 1.0
C      1  0.2962941436804  0.6712819629771  0.5614363226082 1.0
C      1  0.3395750072851  0.4998193448839  0.6672744856147 1.0
C      1  0.2972295388478  0.3592008881514  0.5006758395868 1.0
C      1  0.2754789568395  0.4188926737305  0.3323258335789 1.0
C      1  0.2892608494025  0.6283628692139  0.3664614400090 1.0
C      1  0.6944841554558  0.3298033909960  0.5436728694473 1.0
C      1  0.6853832973530  0.4483335588017  0.6942655343637 1.0
C      1  0.7159261946997  0.6412063076572  0.4816303932447 1.0
C      1  0.7242890689403  0.6097572209331  0.3226144234576 1.0
C      1  0.6740221333712  0.4128856423905  0.3709154144937 1.0
C      1  0.7378613149796  0.2929402898404  0.2955770777727 1.0
C      1  0.7222174900980  0.6185995301897  0.2190805617594 1.0
C      1  0.7415528068652  0.7308219748437  0.5209494937726 1.0
C      1  0.7236364064605  0.5218313304136  0.7536597283128 1.0
C      1  0.7146994257343  0.2673809410719  0.6172043896215 1.0
C      1  0.2839480734852  0.7185116773681  0.3123438705717 1.0
C      1  0.2703175579252  0.4030608717466  0.2281850661306 1.0
C      1  0.2723140147392  0.2618253514084  0.5200956655106 1.0
C      1  0.2664143665466  0.4436731744604  0.7941370046890 1.0
C      1  0.2994977258518  0.7492301553395  0.6345026583619 1.0
C      1  0.4666568480546  0.4579544278012  0.3700748829152 1.0
C      1  0.4826165766198  0.6171960186158  0.4258836323614 1.0
C      1  0.5078576981012  0.6090409255105  0.5879597888510 1.0
C      1  0.4827791357069  0.4413662118733  0.6431204006477 1.0
C      1  0.4652991064881  0.3494067199422  0.4996359054855 1.0
C      1  0.5284675626870  0.5409216623577  0.3745592404732 1.0
C      1  0.5269201977929  0.3779673746802  0.4170309898072 1.0
C      1  0.5287167244751  0.3619712711766  0.5847028813989 1.0
C      1  0.5533998360105  0.5277807807588  0.6510224069926 1.0
C      1  0.5554030429911  0.6431670907359  0.4967849466277 1.0
C      1  0.6108029303228  0.4286523917754  0.4507569108447 1.0
C      1  0.5989897168930  0.5206136563736  0.4401373324015 1.0
C      1  0.6369347394287  0.5889615233759  0.4856754571345 1.0
C      1  0.6357502981690  0.4696496893734  0.6207353366561 1.0
C      1  0.6206426489425  0.3969052106139  0.5492627789715 1.0
C      1  0.4129238724710  0.5631343728965  0.4664066939843 1.0
C      1  0.3969366705883  0.4766746239832  0.4373166052281 1.0
C      1  0.3810260685999  0.4151314203857  0.5146019745889 1.0
C      1  0.4019669456135  0.4770865643740  0.5945653863013 1.0
C      1  0.4328178323059  0.5575352674428  0.5531485067749 1.0
C      1  0.3593426696459  0.7993637566300  0.5620103713622 1.0
C      1  0.2946956298766  0.4981706398716  0.8665010214844 1.0
C      1  0.3068271248887  0.2213201543603  0.6022313387774 1.0
C      1  0.3090383253558  0.3107514542566  0.2429773454187 1.0
C      1  0.3313936012635  0.6673027170857  0.2333187284981 1.0
C      1  0.6623161151922  0.1840500421258  0.5899689517217 1.0
C      1  0.6742956857176  0.4935804871382  0.8378699726442 1.0
C      1  0.7070726396990  0.7505758790879  0.6113871597407 1.0
C      1  0.6943216189039  0.7134963456988  0.2330546763997 1.0
C      1  0.6843989952621  0.3120113924272  0.2195963351180 1.0
C      1  0.4447012142954  0.2154325795650  0.9051152460903 1.0
C      1  0.5759120861724  0.0561261536033  0.3873120714554 1.0
C      1  0.4820542279990  0.9355159886172  0.3959813590383 1.0
C      1  0.5045777559183  0.4832052373353  0.0275977884754 1.0
C      1  0.4749805344825  0.8416029568636  0.8618779134193 1.0
C      1  0.9896484342032  0.4414539146749  0.4411443430384 1.0
C      1  0.0445577756822  0.5024807073635  0.4753583469943 1.0
C      1  0.9449476461144  0.3800670598725  0.4073802033063 1.0
C      1  0.1033998958928  0.5522563782897  0.5104287987687 1.0
END
