TITL C-183645-9582-36 -2.825 3375.00 -475.64624832 0 0 60 (Cs) n - 1
REM
REM Run started: at 2020.11.27 14:57:42 in /rds/project/t2_vol4/rds-t2-cs072/BORA/CARBON/AIRSS/Generating-Clusters/Str-Search/Higher-Symm/Only-C60
REM VASP from code version vasp.5.4.4.18Apr17-6-g9f103f2a35 (build Oct 11 2019 16:45:47) gamma-only
REM
REM
REM
REM
REM ./C.cell (5f7b7a0d59291d2373303da1f58b8d66)
REM AIRSS Version 0.9.1 bugfix July 2018 build 013d7b7c2542+ Fri, 06 Jul 2018 19:26:36 +0100
REM compiler GCC version 4.8.5 20150623 (Red Hat 4.8.5-39)
REM options -cpp -mtune=generic -march=x86-64 -g -O0
REM seed -829670338 -475682944 254611482 -1391184769 1704369141 2029645123 -1394615721 1170686942 14191778 -545171208 -365416652 -1426428961
REM
REM C.POTCAR (d86ddea03c3ceb6dc662c8ad6801f873)
REM 
CELL 1.54180   15.00000   15.00000   15.00000   90.00000   90.00000   90.00000
LATT -1
SFAC C  
C      1  0.7476853373209  0.6076290882934  0.5414868714994 1.0
C      1  0.7476856747364  0.6076292439466  0.4585136890263 1.0
C      1  0.5608399200245  0.2889652463091  0.6802938007113 1.0
C      1  0.5608401379833  0.2889652855477  0.3197062341489 1.0
C      1  0.5701033791372  0.4439931498036  0.6851877977140 1.0
C      1  0.5701035849727  0.4439932529599  0.3148122194996 1.0
C      1  0.6354451330798  0.8119699835703  0.4563578267158 1.0
C      1  0.6354452743609  0.8119700166378  0.5436416070987 1.0
C      1  0.3812215893816  0.5034785662715  0.4471595231675 1.0
C      1  0.3812215709364  0.5034785947938  0.5528403274773 1.0
C      1  0.3599861814282  0.3400515608592  0.6040609137206 1.0
C      1  0.3599862599077  0.3400515254230  0.3959389844655 1.0
C      1  0.4029194850743  0.5913834616917  0.5930395665631 1.0
C      1  0.4029194414316  0.5913834313197  0.4069602144082 1.0
C      1  0.3602794376594  0.6715777486155  0.6351280948745 1.0
C      1  0.3602793362824  0.6715776325803  0.3648717224700 1.0
C      1  0.2852882442446  0.3651014999551  0.5457603955631 1.0
C      1  0.2852882691648  0.3651014548328  0.4542394448007 1.0
C      1  0.4111500313375  0.4383104618987  0.7392332281671 1.0
C      1  0.4111501885543  0.4383103647409  0.2607666829269 1.0
C      1  0.5017970165888  0.5777688430087  0.2543433158309 1.0
C      1  0.5017968288187  0.5777688318439  0.7456566614768 1.0
C      1  0.6172242181775  0.3305118737837  0.4546267806898 1.0
C      1  0.6172241760646  0.3305118424069  0.5453733225902 1.0
C      1  0.4500846920478  0.3425998951453  0.5550160302874 1.0
C      1  0.4500847420993  0.3425998975115  0.4449838764158 1.0
C      1  0.5757544167704  0.7736026755984  0.4062111681657 1.0
C      1  0.5757546120869  0.7736026858670  0.5937882834565 1.0
C      1  0.6613835046408  0.5787350692936  0.6899435459565 1.0
C      1  0.6613833389861  0.5787349341421  0.3100575326819 1.0
C      1  0.4198691630194  0.6090292860564  0.6888376421168 1.0
C      1  0.4198691517221  0.6090292282429  0.3111621023476 1.0
C      1  0.4219557197812  0.5325118762792  0.7494193692951 1.0
C      1  0.4219559277283  0.5325118129326  0.2505804194503 1.0
C      1  0.4203050064530  0.6824933656210  0.4474217349478 1.0
C      1  0.4203050460724  0.6824933309173  0.5525779612063 1.0
C      1  0.5350767142256  0.2982115625119  0.4110037891876 1.0
C      1  0.5350766139464  0.2982115530585  0.5889962246110 1.0
C      1  0.4972860251586  0.3912606229386  0.2564379161098 1.0
C      1  0.4972858288483  0.3912606417431  0.7435620410653 1.0
C      1  0.5895036722525  0.5374556546375  0.2748146579697 1.0
C      1  0.5895032755261  0.5374553786750  0.7251856453371 1.0
C      1  0.3137728873822  0.4413288851430  0.5992091482674 1.0
C      1  0.3137729367918  0.4413288252267  0.4007906908918 1.0
C      1  0.4693314692452  0.4459429556313  0.5503506912691 1.0
C      1  0.4693315145883  0.4459429627292  0.4496492574589 1.0
C      1  0.6803816222895  0.5806531947030  0.3977790466694 1.0
C      1  0.6803815677141  0.5806531665375  0.6022220493078 1.0
C      1  0.3486030671838  0.4014634577505  0.6804427642979 1.0
C      1  0.3486031843145  0.4014633634410  0.3195570921472 1.0
C      1  0.5461965727929  0.4836960401692  0.4057467451086 1.0
C      1  0.5461965278983  0.4836960418319  0.5942532585801 1.0
C      1  0.6186805282979  0.3603673519654  0.6418933436221 1.0
C      1  0.6186806752903  0.3603673907920  0.3581067586757 1.0
C      1  0.6041225685076  0.5396631852110  0.5482925590762 1.0
C      1  0.6041225272527  0.5396631997167  0.4517078283230 1.0
C      1  0.5057054085398  0.2994530071646  0.2460840668499 1.0
C      1  0.5057050714060  0.2994530131034  0.7539158961995 1.0
C      1  0.5080470736223  0.7307908739540  0.5490510615324 1.0
C      1  0.5080470288496  0.7307908526635  0.4509485755083 1.0
END
