TITL C-183645-9582-18 -2.858 3375.00 -479.66592310 0 0 60 (C1) n - 1
REM
REM Run started: at 2020.11.27 10:27:48 in /rds/project/t2_vol4/rds-t2-cs072/BORA/CARBON/AIRSS/Generating-Clusters/Str-Search/Higher-Symm/Only-C60
REM VASP from code version vasp.5.4.4.18Apr17-6-g9f103f2a35 (build Oct 11 2019 16:45:47) gamma-only
REM
REM
REM
REM
REM ./C.cell (5f7b7a0d59291d2373303da1f58b8d66)
REM AIRSS Version 0.9.1 bugfix July 2018 build 013d7b7c2542+ Fri, 06 Jul 2018 19:26:36 +0100
REM compiler GCC version 4.8.5 20150623 (Red Hat 4.8.5-39)
REM options -cpp -mtune=generic -march=x86-64 -g -O0
REM seed -91829382 2111042826 -1409187352 -1806539627 763506682 -93254369 223023901 -48076852 -1769727567 -2072866612 -1526448920 -1181900123
REM
REM C.POTCAR (d86ddea03c3ceb6dc662c8ad6801f873)
REM 
CELL 1.54180   15.00000   15.00000   15.00000   90.00000   90.00000   90.00000
LATT -1
SFAC C  
C      1  0.5646790938006  0.2772732947444  0.5139550073979 1.0
C      1  0.3752275190601  0.6966752333003  0.5238950967569 1.0
C      1  0.3509815475090  0.3776177544554  0.4364627911760 1.0
C      1  0.4430897761547  0.2941542230344  0.6414212734596 1.0
C      1  0.5536402036731  0.3503440706383  0.3455600233313 1.0
C      1  0.6602137255597  0.4850346422113  0.3087469021978 1.0
C      1  0.2284169286762  0.5515669808428  0.4566193894047 1.0
C      1  0.4922070577730  0.5217186632772  0.7663703589166 1.0
C      1  0.4929505380127  0.5364428773124  0.2563812860832 1.0
C      1  0.4341151452015  0.3764714240614  0.6859085867119 1.0
C      1  0.6345598602792  0.5666399365876  0.5274706545371 1.0
C      1  0.4349955079727  0.2811833670135  0.4272028930298 1.0
C      1  0.4740524749213  0.7061814030205  0.4238921390484 1.0
C      1  0.3518944736392  0.4014367030255  0.6311479142610 1.0
C      1  0.5262042497707  0.7546194669682  0.5794114421408 1.0
C      1  0.5303176122390  0.2914499656829  0.4246307668435 1.0
C      1  0.5258402048585  0.2697569991518  0.5987964947821 1.0
C      1  0.4028506712900  0.5491404532600  0.2841195030449 1.0
C      1  0.5693266392738  0.6367285915734  0.6961391520430 1.0
C      1  0.3968971286761  0.5470447880994  0.4322504126770 1.0
C      1  0.7637218299940  0.4473938944099  0.4242160635213 1.0
C      1  0.7168931235663  0.5259506408472  0.3850420059020 1.0
C      1  0.5303369503431  0.5478887901231  0.5376005368953 1.0
C      1  0.5653549511866  0.7092161369871  0.6366884725596 1.0
C      1  0.5586988658898  0.5215958912339  0.3953457212908 1.0
C      1  0.6928174827275  0.6149259214962  0.4448133780239 1.0
C      1  0.3628540098883  0.3087382179798  0.5869363413800 1.0
C      1  0.3957559329561  0.4650588153445  0.5682860550583 1.0
C      1  0.4830325508108  0.4944516397988  0.5971856306488 1.0
C      1  0.6873589757572  0.4316719736855  0.5887696149907 1.0
C      1  0.6734977469717  0.3552643117358  0.6390421080611 1.0
C      1  0.4913946619609  0.5440689686861  0.4482814536284 1.0
C      1  0.5997359968063  0.6487152666265  0.3121893696898 1.0
C      1  0.5534245347934  0.7017579278816  0.3751311321862 1.0
C      1  0.4622676806673  0.7374538156716  0.5123349634860 1.0
C      1  0.3520542535083  0.4682554862177  0.4785329948920 1.0
C      1  0.3855503936522  0.6540522019940  0.4289545138935 1.0
C      1  0.4660316548350  0.3796254359343  0.3085672467783 1.0
C      1  0.6893571317313  0.4226971324279  0.4877965683151 1.0
C      1  0.5803031780154  0.5498588088107  0.3006222546114 1.0
C      1  0.3262041857605  0.5813484867391  0.6540237184949 1.0
C      1  0.3028375237530  0.4948461473646  0.6144910118187 1.0
C      1  0.6372071972861  0.5029253181944  0.4514044903743 1.0
C      1  0.4426478446388  0.4611172493159  0.2668282421928 1.0
C      1  0.2491215173159  0.5724118560285  0.3757313304059 1.0
C      1  0.3447976494507  0.5921298649025  0.3564816699617 1.0
C      1  0.4956796809826  0.4537101332636  0.6898582512992 1.0
C      1  0.3656435595408  0.3019585042024  0.4963593546713 1.0
C      1  0.4826347776651  0.6115237735933  0.7336422810652 1.0
C      1  0.2639354467591  0.4958063893227  0.5201361897324 1.0
C      1  0.7113784316943  0.3719106942280  0.4036476351232 1.0
C      1  0.3981797198032  0.3412545005374  0.3621889804979 1.0
C      1  0.6242460586059  0.5545826738630  0.6898069416067 1.0
C      1  0.6436564740743  0.6729952118295  0.3919710753502 1.0
C      1  0.3985667944454  0.6298712320150  0.6895668637432 1.0
C      1  0.6701980800197  0.5243756177543  0.6114009762599 1.0
C      1  0.6143877583531  0.2997539369511  0.5940490232348 1.0
C      1  0.5748284446887  0.4877763813501  0.7407193577777 1.0
C      1  0.6441216868477  0.3918652954920  0.3336168688951 1.0
C      1  0.3568248039126  0.6577148168995  0.6073567238391 1.0
END
