TITL C-184072-6237-7 -12.444 3375.00 -2187.30898351 0 0 265 (C1) n - 1
REM
REM Run started: at 2020.11.24 18:42:13 in /rds/project/t2_vol4/rds-t2-cs072/BORA/CARBON/AIRSS/Generating-Clusters/Str-Search/Higher-Symm
REM VASP from code version vasp.5.4.4.18Apr17-6-g9f103f2a35 (build Oct 11 2019 16:45:47) gamma-only
REM
REM
REM
REM
REM ./C.cell (e5ae0387ce4d49c7c0135a1433873289)
REM AIRSS Version 0.9.1 bugfix July 2018 build 013d7b7c2542+ Fri, 06 Jul 2018 19:26:36 +0100
REM compiler GCC version 4.8.5 20150623 (Red Hat 4.8.5-39)
REM options -cpp -mtune=generic -march=x86-64 -g -O0
REM seed 815844472 -1246119953 -1633882325 -644150586 -1907135926 -1624271347 1324762797 769276812 -1381505134 -1511603853 75687514 306743642
REM
REM C.POTCAR (d86ddea03c3ceb6dc662c8ad6801f873)
REM 
CELL 1.54180   15.00000   15.00000   15.00000   90.00000   90.00000   90.00000
LATT -1
SFAC C  
C      1  0.3019119508539  0.1598476878921  0.3303695346687 1.0
C      1  0.7793591913590  0.2197093544945  0.3094860663464 1.0
C      1  0.8777630136098  0.6519347952206  0.3056136952708 1.0
C      1  0.4686123305192  0.9065872595608  0.3105199567379 1.0
C      1  0.1154755938067  0.5860806817268  0.2947688827902 1.0
C      1  0.8317116313651  0.6267485170368  0.4694856596299 1.0
C      1  0.4411575616020  0.8491350433495  0.4987103187060 1.0
C      1  0.1617739982867  0.5445039880334  0.4798496858951 1.0
C      1  0.3235947458266  0.1826551655490  0.5133714791142 1.0
C      1  0.7920777897614  0.2230982865694  0.5106184061521 1.0
C      1  0.1751790084173  0.3501417719242  0.2376602406138 1.0
C      1  0.5512063988547  0.1526554412287  0.2465534217447 1.0
C      1  0.8674065782359  0.4373779320366  0.2170132582011 1.0
C      1  0.6697110538160  0.7856435776574  0.2393972384330 1.0
C      1  0.3153468927737  0.7392100790901  0.2392460604365 1.0
C      1  0.3151244838986  0.9630323733675  0.5620354422648 1.0
C      1  0.0010899295771  0.4345815867040  0.4268303462890 1.0
C      1  0.3945249437942  0.9927666455503  0.5229645208579 1.0
C      1  0.9662421856477  0.2872897327229  0.5302536609457 1.0
C      1  0.8617865480166  0.7723786600531  0.5330925837852 1.0
C      1  0.5934553159075  0.1304530682186  0.5496047012912 1.0
C      1  0.9083247915458  0.4679371355359  0.5536863751529 1.0
C      1  0.6660108703171  0.8992898702094  0.5697991805486 1.0
C      1  0.1730106191166  0.7614205667613  0.5367037097610 1.0
C      1  0.1352623594744  0.2812972221025  0.5565974609662 1.0
C      1  0.7082015476521  0.4955794974772  0.7147172123135 1.0
C      1  0.5777960069133  0.7024362732987  0.7121019531118 1.0
C      1  0.3337451916103  0.6522993512962  0.7008632533716 1.0
C      1  0.3005606501258  0.4063791406983  0.7105886301673 1.0
C      1  0.5457004210667  0.2981735456013  0.6991102115397 1.0
C      1  0.1142022261123  0.5897076265593  0.7221895292245 1.0
C      1  0.2938724134137  0.1640474276172  0.6890359936395 1.0
C      1  0.7448343671665  0.1866467043449  0.6942507600650 1.0
C      1  0.8266589771239  0.7235215944086  0.6700372663598 1.0
C      1  0.4570145189642  0.9096997428065  0.6893089278988 1.0
C      1  0.3654547042327  0.8236832789008  0.2163906840123 1.0
C      1  0.1391183684965  0.4390019280525  0.2156491995930 1.0
C      1  0.4556889655067  0.1795889848597  0.2599735827467 1.0
C      1  0.8393297303242  0.3444829899819  0.2116576864455 1.0
C      1  0.7346570792317  0.7097949140394  0.2485792149938 1.0
C      1  0.3851297760674  0.7119678461851  0.3945954281247 1.0
C      1  0.2550650577549  0.4431450644560  0.4022186801127 1.0
C      1  0.4623299487171  0.2617572228300  0.4002640243392 1.0
C      1  0.7186810163615  0.3510677536935  0.4340918750197 1.0
C      1  0.6715333229449  0.6771618616943  0.4069860956908 1.0
C      1  0.6108199019635  0.6908628241940  0.5613159103230 1.0
C      1  0.3682209341693  0.6948110106854  0.5508061275250 1.0
C      1  0.2717305666906  0.4292143936650  0.5599061917238 1.0
C      1  0.4613427840489  0.2609188122404  0.5526010576812 1.0
C      1  0.6934551198305  0.4600930961818  0.5698981533363 1.0
C      1  0.5216327602890  0.4149177178289  0.2312709075070 1.0
C      1  0.6022144970526  0.4743370664655  0.2137899233329 1.0
C      1  0.5458570111762  0.5610951591584  0.2282444944424 1.0
C      1  0.4463672760099  0.5456215153723  0.2133538904813 1.0
C      1  0.4316992539969  0.4554519076349  0.2146541005013 1.0
C      1  0.6830765860536  0.2225416080951  0.2712471203501 1.0
C      1  0.8284500177585  0.5676138614663  0.2818367843976 1.0
C      1  0.5278127335325  0.8272626742787  0.2863879939179 1.0
C      1  0.2138142091657  0.6194115951269  0.2669440455667 1.0
C      1  0.2835287603743  0.2503489946821  0.2874281485081 1.0
C      1  0.5381784213172  0.3337494127441  0.2843448707668 1.0
C      1  0.6657261388376  0.4680362427456  0.3073269854648 1.0
C      1  0.5732920403026  0.6427252120031  0.2846496750289 1.0
C      1  0.3904727039958  0.5937549960471  0.2840926461042 1.0
C      1  0.3694719062664  0.4207044998220  0.2904585458965 1.0
C      1  0.7209167004889  0.6475888592040  0.1669665231720 1.0
C      1  0.4302139318729  0.7884036285878  0.1517173994304 1.0
C      1  0.2062650814013  0.4459055115734  0.1433788674829 1.0
C      1  0.4601758644337  0.2127026708997  0.1618169941608 1.0
C      1  0.7620115536582  0.3742001807538  0.1554214479375 1.0
C      1  0.5564373892174  0.1362061138348  0.6383105392837 1.0
C      1  0.8738065068708  0.4434199508049  0.6459766583536 1.0
C      1  0.6883689672917  0.8387712225866  0.6557981623123 1.0
C      1  0.1991412295037  0.7579491979069  0.6348885542192 1.0
C      1  0.1485787111124  0.3105289009540  0.6507999832246 1.0
C      1  0.8270748625141  0.7235917889591  0.2857241294016 1.0
C      1  0.3885136878910  0.8922277141668  0.2713191631827 1.0
C      1  0.0991211500903  0.5060618581939  0.2587060039701 1.0
C      1  0.3961543825255  0.1404526336950  0.3318187603583 1.0
C      1  0.8365967732310  0.3005241942917  0.2952308780051 1.0
C      1  0.6187126458513  0.6339370208487  0.6424608432652 1.0
C      1  0.4154082272509  0.6676501541999  0.6382703644300 1.0
C      1  0.3159533995319  0.4811749203858  0.6372890021641 1.0
C      1  0.4607715737712  0.3220401344397  0.6365218676926 1.0
C      1  0.6506093991577  0.4339372917581  0.6543464919354 1.0
C      1  0.7217017097884  0.2980183654751  0.7945480508535 1.0
C      1  0.7507496171346  0.6515491361786  0.8176130979680 1.0
C      1  0.4208068959499  0.7819492792177  0.8528978774198 1.0
C      1  0.1986927380440  0.5547697652327  0.8599256386631 1.0
C      1  0.3628131515557  0.2450630055844  0.8204115540114 1.0
C      1  0.4703481043206  0.9938945315266  0.6916676840779 1.0
C      1  0.0944437538143  0.6128871696175  0.6314077117267 1.0
C      1  0.2662166804539  0.0969097955320  0.6448853766378 1.0
C      1  0.7659762508484  0.1198330363409  0.6359490870294 1.0
C      1  0.8924962272806  0.7103366546662  0.6033001262732 1.0
C      1  0.4890325140591  0.8192332263542  0.8099315652641 1.0
C      1  0.1284514887362  0.5997894483781  0.8170230947018 1.0
C      1  0.2899936395618  0.2644986596814  0.8700749485388 1.0
C      1  0.7051377427797  0.2029367014170  0.7882305385731 1.0
C      1  0.8220624122116  0.6016860762613  0.7997193135464 1.0
C      1  0.9601543063682  0.6392641975204  0.3690933801796 1.0
C      1  0.4914362228250  0.9722963939293  0.3859637800203 1.0
C      1  0.0511464165205  0.6197035208749  0.3673874505145 1.0
C      1  0.2549197578451  0.1172572670299  0.3978623282699 1.0
C      1  0.7986098518376  0.1606139640198  0.3758572651883 1.0
C      1  0.5608860103044  0.4690409546606  0.6404015039945 1.0
C      1  0.5508404366847  0.5622331939321  0.6075734687894 1.0
C      1  0.4545307927679  0.5756714702470  0.6286933053675 1.0
C      1  0.4134178504440  0.4944374020188  0.6261833638997 1.0
C      1  0.4811170975012  0.4196852438556  0.6039562009404 1.0
C      1  0.2484260652318  0.6134864613374  0.1649342453822 1.0
C      1  0.3203871796760  0.2962523323419  0.1880317812751 1.0
C      1  0.6446424256249  0.2537958631436  0.1714850134012 1.0
C      1  0.7653055066711  0.5599203000607  0.1968306544145 1.0
C      1  0.5197100018661  0.7854301332612  0.1942759123351 1.0
C      1  0.6433596993791  0.3174369149584  0.5519084419839 1.0
C      1  0.7342539603764  0.5403748061412  0.5677362462810 1.0
C      1  0.5419701399907  0.7493933419148  0.5731976589196 1.0
C      1  0.2889563987919  0.6280749890175  0.5537915848437 1.0
C      1  0.3005905848042  0.3323678821360  0.5794707952635 1.0
C      1  0.7942191852247  0.4683304775727  0.1636812439448 1.0
C      1  0.6130761450187  0.7614854916723  0.1695494669811 1.0
C      1  0.3131324444542  0.6826682989095  0.1535604790430 1.0
C      1  0.2412119049296  0.3561087689030  0.1688213174053 1.0
C      1  0.5611411533028  0.2066150681691  0.1674524085716 1.0
C      1  0.3229210972658  0.4525459687469  0.7978425492552 1.0
C      1  0.5030539843340  0.3286476376947  0.7881473338157 1.0
C      1  0.6652606821861  0.4599051260511  0.8002185554874 1.0
C      1  0.5894305126971  0.6532805323828  0.8004668597710 1.0
C      1  0.3784128357943  0.6397545321553  0.7910828046012 1.0
C      1  0.6588764827201  0.7839438204930  0.8240946038430 1.0
C      1  0.2570830503779  0.7211924615179  0.8158577542251 1.0
C      1  0.1921683471306  0.3828094633998  0.8177034387051 1.0
C      1  0.5236808852750  0.1802808983277  0.8063254456057 1.0
C      1  0.8152274429266  0.4251283762469  0.8139662464940 1.0
C      1  0.4223655608312  0.1679600519497  0.5189077086906 1.0
C      1  0.8622316163796  0.2928724696078  0.5135420653005 1.0
C      1  0.8103746169474  0.7185243880565  0.4769762174184 1.0
C      1  0.3601936958286  0.8002624417273  0.5253415590129 1.0
C      1  0.1693620339403  0.4583507750222  0.5363579984438 1.0
C      1  0.6752251316740  0.6447393759798  0.3115356408165 1.0
C      1  0.4014430803050  0.6934678801402  0.2976933282057 1.0
C      1  0.2886777932840  0.4722959490946  0.3151782782555 1.0
C      1  0.4573007820630  0.2767141242280  0.3026755126419 1.0
C      1  0.6896734960139  0.3728466381830  0.3386673563208 1.0
C      1  0.6574908455654  0.4031176093179  0.5006127157278 1.0
C      1  0.6200897713646  0.6430808076248  0.4757091987744 1.0
C      1  0.4086676457696  0.6585853518922  0.4660442312307 1.0
C      1  0.3155637103531  0.4443975125919  0.4713048270447 1.0
C      1  0.4791290200575  0.3133921693187  0.4786274386682 1.0
C      1  0.4508680683328  0.0710729123124  0.5492907023566 1.0
C      1  0.9136499532969  0.3024421653165  0.6007372650377 1.0
C      1  0.8148494107751  0.8461301961832  0.5667157681703 1.0
C      1  0.2887572782721  0.8654902251684  0.5688258922703 1.0
C      1  0.0781304714111  0.4229314155525  0.5721116374918 1.0
C      1  0.1530855631887  0.2983051196113  0.3952542120461 1.0
C      1  0.6093947605608  0.1207794192625  0.3940215520129 1.0
C      1  0.9116113461094  0.4456595188971  0.3798596711045 1.0
C      1  0.6436924319406  0.8646344242181  0.3956431761035 1.0
C      1  0.2010356306862  0.7447981492237  0.3722406029499 1.0
C      1  0.7241039197997  0.5528694674709  0.2943375489042 1.0
C      1  0.5019158412524  0.7229799206566  0.2773869464355 1.0
C      1  0.2935172906639  0.5614250278686  0.2940258792690 1.0
C      1  0.3637606952559  0.3188713106391  0.2797007087135 1.0
C      1  0.6346129397710  0.3075223912379  0.3031764961591 1.0
C      1  0.5444846966179  0.5443549865055  0.0368104072959 1.0
C      1  0.4558085660224  0.5751044507831  0.0156704253852 1.0
C      1  0.3739756409004  0.5385295300306  0.0039485428876 1.0
C      1  0.4960155924737  0.3854348719438  0.0371644291485 1.0
C      1  0.5625033181760  0.4529755760552  0.0544828993427 1.0
C      1  0.5674953368720  0.6350358518605  0.0735888657227 1.0
C      1  0.4702053898032  0.6576656745836  0.0632288147863 1.0
C      1  0.3011903724474  0.5279041372643  0.0414628470402 1.0
C      1  0.4386373155529  0.3321811355403  0.0639510539069 1.0
C      1  0.6205333633790  0.4256933905123  0.1260887008050 1.0
C      1  0.3992863176230  0.2717198217658  0.1263507680471 1.0
C      1  0.6753709313836  0.3423087770695  0.1391698999284 1.0
C      1  0.6393529438860  0.6767730825032  0.1245755516546 1.0
C      1  0.4010842599743  0.7086586729846  0.1089987424614 1.0
C      1  0.2436302988288  0.5284135726580  0.1127011245964 1.0
C      1  0.6116827116824  0.1774380638327  0.7958345841409 1.0
C      1  0.8423077773307  0.5095683336978  0.8015677395186 1.0
C      1  0.5856217876528  0.8332836350951  0.8096699250635 1.0
C      1  0.2061307304999  0.6501651751234  0.8451986060022 1.0
C      1  0.2180412299329  0.3110692238971  0.8647769993054 1.0
C      1  0.7276653676737  0.8425936269757  0.4327276182994 1.0
C      1  0.2496095958085  0.8164518322591  0.4154072801461 1.0
C      1  0.0863027924302  0.3738125050320  0.4254343894123 1.0
C      1  0.5508750107422  0.0453732991742  0.4141219465576 1.0
C      1  0.8671096797382  0.3543184358380  0.3690785042727 1.0
C      1  0.5405047677211  0.5622486796370  0.3293185335226 1.0
C      1  0.4488502356198  0.5527473769466  0.3569756118462 1.0
C      1  0.4329948818812  0.4526003225188  0.3610039048251 1.0
C      1  0.5200674905286  0.4172266436209  0.3332853575853 1.0
C      1  0.5865008454110  0.4812645081960  0.3665898392163 1.0
C      1  0.4322993806656  0.1770784596750  0.4177421323687 1.0
C      1  0.8181053844557  0.3657124280250  0.4547986649883 1.0
C      1  0.7384384862056  0.7495458647658  0.4295747614658 1.0
C      1  0.3352020464390  0.7873771279488  0.4288883092655 1.0
C      1  0.1640914229723  0.4489641943872  0.4381436852465 1.0
C      1  0.6356093691974  0.1717429407513  0.4747114446845 1.0
C      1  0.8502335880511  0.4641819603603  0.4708850313123 1.0
C      1  0.5949083319153  0.8795773337698  0.4845574449205 1.0
C      1  0.1689173176426  0.6929455310611  0.4579919255067 1.0
C      1  0.1904231952787  0.2699044887986  0.4832486295564 1.0
C      1  0.1797820107366  0.5812159649535  0.6601085045563 1.0
C      1  0.3347541127271  0.2363876314138  0.7229937556170 1.0
C      1  0.7145234726044  0.2795620377926  0.6991423482373 1.0
C      1  0.7822740915981  0.6479910517436  0.7180632536669 1.0
C      1  0.4663506442595  0.8231947032248  0.7115189834018 1.0
C      1  0.5772889383829  0.4643333625900  0.4666091872702 1.0
C      1  0.5552731997872  0.5612128442440  0.4986079610527 1.0
C      1  0.4510040961465  0.5695082270379  0.4566304390514 1.0
C      1  0.4118635279639  0.4633867287821  0.4587988124355 1.0
C      1  0.4886730687261  0.4118010231663  0.4994994885194 1.0
C      1  0.7777112152077  0.8102682362078  0.6491218064328 1.0
C      1  0.2589174159287  0.8209530008911  0.6572886995946 1.0
C      1  0.1062665227725  0.3902478909340  0.6640998200837 1.0
C      1  0.4850691497557  0.0687757005582  0.6434342892349 1.0
C      1  0.8985836303775  0.3593090682903  0.6713386941528 1.0
C      1  0.2318622880656  0.7134901116280  0.2928995815940 1.0
C      1  0.1952059984591  0.2947578822419  0.3107510305648 1.0
C      1  0.6218631611502  0.1511148658160  0.3043424387810 1.0
C      1  0.8852413858529  0.4880780867086  0.2919726997751 1.0
C      1  0.6217286695602  0.8332893923605  0.3118103849221 1.0
C      1  0.5237978950144  0.8178836805841  0.5117752290037 1.0
C      1  0.2302446910354  0.6142805162557  0.4857776063049 1.0
C      1  0.2822548890660  0.2639760876492  0.5181223386100 1.0
C      1  0.6954798009005  0.2563360118370  0.4899602318150 1.0
C      1  0.7942950560100  0.5480307249315  0.4922443818531 1.0
C      1  0.5709380295614  0.4808734469088  0.8090037462969 1.0
C      1  0.5390672483582  0.5721231661311  0.8123933407385 1.0
C      1  0.4431543106528  0.5707055337396  0.8103290348729 1.0
C      1  0.4148269134623  0.4791853527692  0.8091771262693 1.0
C      1  0.4920742486214  0.4234434100555  0.8039126554592 1.0
C      1  0.7248473652510  0.3884664926675  0.8291063417040 1.0
C      1  0.6668727311812  0.6887950833625  0.8450711884673 1.0
C      1  0.3565519648724  0.7207547051206  0.8384186868161 1.0
C      1  0.2398242293730  0.4712480618089  0.8393554783537 1.0
C      1  0.4609691992601  0.2537584853773  0.8288518003443 1.0
C      1  0.2642621820538  0.7339617342356  0.7117925882392 1.0
C      1  0.1939912932750  0.3748276718360  0.7165225748100 1.0
C      1  0.5584396770112  0.1987605524718  0.7117724363225 1.0
C      1  0.8079840676684  0.4709402496146  0.7176197451063 1.0
C      1  0.6318564683029  0.7962786293549  0.7266470384292 1.0
C      1  0.2615787106653  0.0467790363661  0.5689280576285 1.0
C      1  0.7989118224049  0.1344046995840  0.5507635877237 1.0
C      1  0.9562781350500  0.6543108735447  0.5481669276331 1.0
C      1  0.5949408155741  0.9602034318604  0.5357173287554 1.0
C      1  0.0470172587187  0.6348425204865  0.5555040263022 1.0
C      1  0.5503161375921  0.0478604210065  0.5132197981618 1.0
C      1  0.9960473117315  0.4588756509030  0.5230772805806 1.0
C      1  0.7515468277433  0.8868523441164  0.5147042871099 1.0
C      1  0.2161118256266  0.8355651284495  0.5051852102320 1.0
C      1  0.0596264202411  0.3321003389711  0.5196208901048 1.0
C      1  0.6395540168016  0.3300179524416  0.6523704832749 1.0
C      1  0.7130988599572  0.5884980578043  0.6605365039147 1.0
C      1  0.4919375131410  0.7373245363919  0.6623365173177 1.0
C      1  0.2783210973348  0.5790327013823  0.6425958343277 1.0
C      1  0.3521387060335  0.3218801759483  0.6668436956044 1.0
C      1  0.2694362456077  0.1053493699253  0.4857914002551 1.0
C      1  0.8050785012117  0.1294344981385  0.4580356151297 1.0
C      1  0.9259448526309  0.6380203460033  0.4586566923124 1.0
C      1  0.4383451580245  0.9383224582224  0.4601878392607 1.0
C      1  0.0937894274509  0.6208994733699  0.4634908414862 1.0
END
