TITL C-183645-9582-20 -2.902 3375.00 -485.74967676 0 0 60 (C2) n - 1
REM
REM Run started: at 2020.11.27 10:44:04 in /rds/project/t2_vol4/rds-t2-cs072/BORA/CARBON/AIRSS/Generating-Clusters/Str-Search/Higher-Symm/Only-C60
REM VASP from code version vasp.5.4.4.18Apr17-6-g9f103f2a35 (build Oct 11 2019 16:45:47) gamma-only
REM
REM
REM
REM
REM ./C.cell (5f7b7a0d59291d2373303da1f58b8d66)
REM AIRSS Version 0.9.1 bugfix July 2018 build 013d7b7c2542+ Fri, 06 Jul 2018 19:26:36 +0100
REM compiler GCC version 4.8.5 20150623 (Red Hat 4.8.5-39)
REM options -cpp -mtune=generic -march=x86-64 -g -O0
REM seed 1299439215 -298453057 -1310484689 -997230669 -1376163084 7338067 952262206 82525781 1346376498 -1574933251 1390697595 1951891871
REM
REM C.POTCAR (d86ddea03c3ceb6dc662c8ad6801f873)
REM 
CELL 1.54180   15.00000   15.00000   15.00000   90.00000   90.00000   90.00000
LATT -1
SFAC C  
C      1  0.6646548574264  0.6608600082869  0.4231789555573 1.0
C      1  0.6646548464847  0.3391399756309  0.5768211028133 1.0
C      1  0.4687161910526  0.3141295471560  0.6050387593774 1.0
C      1  0.4687162261254  0.6858704604274  0.3949612505226 1.0
C      1  0.4119543303496  0.5413734627005  0.7980104458379 1.0
C      1  0.4119543855841  0.4586265947986  0.2019894909803 1.0
C      1  0.4302853727031  0.6178063963935  0.3380984565758 1.0
C      1  0.4302853357485  0.3821936116964  0.6619015432015 1.0
C      1  0.5978525916722  0.4381180645243  0.3741691133868 1.0
C      1  0.5978525896258  0.5618819203984  0.6258309196236 1.0
C      1  0.3070865072997  0.3898130329194  0.5498255757584 1.0
C      1  0.3070865148516  0.6101869726025  0.4501743447844 1.0
C      1  0.5214162976797  0.7047322466976  0.5297737768018 1.0
C      1  0.5214162965043  0.2952677615936  0.4702262263300 1.0
C      1  0.6995620163091  0.5574742313177  0.6269773867915 1.0
C      1  0.6995620228121  0.4425257429543  0.3730226638578 1.0
C      1  0.5513391548588  0.6010580449245  0.5405947431352 1.0
C      1  0.5513391534869  0.3989419407235  0.4594052852849 1.0
C      1  0.7176117363053  0.6707243576833  0.5046211632672 1.0
C      1  0.7176117226082  0.3292756190499  0.4953788998385 1.0
C      1  0.5373363130341  0.7356462520052  0.6210928696694 1.0
C      1  0.5373362964327  0.2643537408003  0.3789071368055 1.0
C      1  0.7276994353258  0.4718093753938  0.6497551314637 1.0
C      1  0.7276994526617  0.5281906135730  0.3502449579539 1.0
C      1  0.3502911478636  0.3263816903546  0.4886233240133 1.0
C      1  0.3502911219214  0.6736183036334  0.5113765919029 1.0
C      1  0.3229628807225  0.6591742761535  0.6014464360698 1.0
C      1  0.3229628936199  0.3408257495191  0.3985535235831 1.0
C      1  0.5452835159894  0.5978785975984  0.7052375814563 1.0
C      1  0.5452835196578  0.4021214103044  0.2947624300930 1.0
C      1  0.5891944865498  0.4013780731043  0.5512955153508 1.0
C      1  0.5891944933032  0.5986219101612  0.4487045288372 1.0
C      1  0.4954715665559  0.4494238150813  0.6901582543876 1.0
C      1  0.4954715944353  0.5505761816955  0.3098417684704 1.0
C      1  0.4933951700628  0.5210450888881  0.5398750841303 1.0
C      1  0.4933951718960  0.4789548965599  0.4601249472576 1.0
C      1  0.3095655858318  0.5040873052938  0.6671119517585 1.0
C      1  0.3095656150033  0.4959127174633  0.3328879764059 1.0
C      1  0.3408141990198  0.4159946968558  0.6342397521702 1.0
C      1  0.3408142218125  0.5840053161296  0.3657601963153 1.0
C      1  0.7345221180373  0.3766046943484  0.4287509371006 1.0
C      1  0.7345221212274  0.6233952879442  0.5712491204991 1.0
C      1  0.7085929536676  0.6101749210296  0.3498412587299 1.0
C      1  0.7085929399272  0.3898250477368  0.6501587946178 1.0
C      1  0.5501876933732  0.5285161161226  0.3898164433773 1.0
C      1  0.5501876888978  0.4714838740669  0.6101835899794 1.0
C      1  0.4330191840265  0.7057876480743  0.4808693416151 1.0
C      1  0.4330191673593  0.2942123548718  0.5191306437285 1.0
C      1  0.2679877460530  0.5445643384995  0.5105829988495 1.0
C      1  0.2679877638422  0.4554356521874  0.4894169125364 1.0
C      1  0.4909775722132  0.5292044225178  0.7430402506054 1.0
C      1  0.4909776040873  0.4707955942007  0.2569597406992 1.0
C      1  0.3455761710337  0.4691782837192  0.2514632289474 1.0
C      1  0.3455761047092  0.5308217560976  0.7485367109422 1.0
C      1  0.2873451430921  0.5708564177576  0.6015155524614 1.0
C      1  0.2873452040529  0.4291435820297  0.3984843416705 1.0
C      1  0.5652317759518  0.6969382405209  0.4292694052967 1.0
C      1  0.5652317546291  0.3030617460292  0.5707306411544 1.0
C      1  0.5340663423133  0.6903001864529  0.6918488886591 1.0
C      1  0.5340663203186  0.3096998327451  0.3081511367095 1.0
END
