TITL C-183645-9582-3 -2.805 3375.00 -475.50408150 0 0 60 (C2) n - 1
REM
REM Run started: at 2020.11.27 05:07:18 in /rds/project/t2_vol4/rds-t2-cs072/BORA/CARBON/AIRSS/Generating-Clusters/Str-Search/Higher-Symm/Only-C60
REM VASP from code version vasp.5.4.4.18Apr17-6-g9f103f2a35 (build Oct 11 2019 16:45:47) gamma-only
REM
REM
REM
REM
REM ./C.cell (5f7b7a0d59291d2373303da1f58b8d66)
REM AIRSS Version 0.9.1 bugfix July 2018 build 013d7b7c2542+ Fri, 06 Jul 2018 19:26:36 +0100
REM compiler GCC version 4.8.5 20150623 (Red Hat 4.8.5-39)
REM options -cpp -mtune=generic -march=x86-64 -g -O0
REM seed 622294578 -348204156 -1012760362 747262115 1787748264 -1691783583 -1202317066 -157974837 181395979 -1944859184 1464876076 2128339085
REM
REM C.POTCAR (d86ddea03c3ceb6dc662c8ad6801f873)
REM 
CELL 1.54180   15.00000   15.00000   15.00000   90.00000   90.00000   90.00000
LATT -1
SFAC C  
C      1  0.3255624869155  0.1877240098155  0.6431029329853 1.0
C      1  0.3255520764557  0.8122807842752  0.3568831562432 1.0
C      1  0.7254118702879  0.5022610196465  0.5986012368432 1.0
C      1  0.7254188061940  0.4977389111955  0.4014031750843 1.0
C      1  0.6032199047360  0.5114888033564  0.2573003504912 1.0
C      1  0.6032142436364  0.4885150395911  0.7427020269936 1.0
C      1  0.5711860797684  0.4291538919792  0.3926991370627 1.0
C      1  0.5711811252747  0.5708445671162  0.6073045310222 1.0
C      1  0.6677724534680  0.6516639164810  0.5294259462057 1.0
C      1  0.6677728415454  0.3483398004182  0.4705741660729 1.0
C      1  0.5617470054880  0.5587495890806  0.7879281556324 1.0
C      1  0.5617510105453  0.4412578329407  0.2120722895304 1.0
C      1  0.4134626684580  0.4160821717179  0.6722051994321 1.0
C      1  0.4134685639997  0.5839153003383  0.3277929349322 1.0
C      1  0.4312007168659  0.4494458981266  0.4816881255449 1.0
C      1  0.4312008664511  0.5505528227613  0.5183122385675 1.0
C      1  0.5785775734084  0.6095261666210  0.5162222864914 1.0
C      1  0.5785805160070  0.3904728188576  0.4837780113851 1.0
C      1  0.5012790491527  0.3957410224350  0.6330685318113 1.0
C      1  0.5012842139219  0.6042598478821  0.3669331690262 1.0
C      1  0.5805701341679  0.4268228762163  0.6789713568032 1.0
C      1  0.5805750202226  0.5731810542271  0.3210338123751 1.0
C      1  0.3299129503305  0.7263558983127  0.3590969408894 1.0
C      1  0.3298922094406  0.2736236510380  0.6409221434798 1.0
C      1  0.6373044105650  0.5035555260903  0.6478575024149 1.0
C      1  0.6373137961491  0.4964464009001  0.3521479719463 1.0
C      1  0.3243742687353  0.5550996871793  0.6620595340907 1.0
C      1  0.3243763501758  0.4449002730816  0.3379377148532 1.0
C      1  0.3379914753700  0.6365777697351  0.3639344181284 1.0
C      1  0.3379839843417  0.3634262587330  0.6360700188674 1.0
C      1  0.7481420086820  0.4222207347285  0.5524945133435 1.0
C      1  0.7481457270754  0.5777792279880  0.4475121603795 1.0
C      1  0.4697970715178  0.5642398523866  0.6187373490946 1.0
C      1  0.4698012525942  0.4357613910702  0.3812633144879 1.0
C      1  0.3257780062559  0.4175164586228  0.4721615580119 1.0
C      1  0.3257746702296  0.5824790777177  0.5278396288756 1.0
C      1  0.2935995812139  0.5797080165179  0.4327185309415 1.0
C      1  0.2935974129675  0.4202874599637  0.5672815189855 1.0
C      1  0.4874963465223  0.3071637947475  0.2769244746966 1.0
C      1  0.4874909906119  0.6928428185204  0.7230626411296 1.0
C      1  0.5318866021488  0.6365375930585  0.7830081966255 1.0
C      1  0.5318900396456  0.3634687068083  0.2169777771596 1.0
C      1  0.5184628834205  0.2821300601078  0.3598044405152 1.0
C      1  0.5184582064853  0.7178703641959  0.6401877248137 1.0
C      1  0.5950896439007  0.3285207726752  0.4022852730440 1.0
C      1  0.5950862557126  0.6714776361168  0.5977128371932 1.0
C      1  0.7336976183260  0.6730313075546  0.4545894647178 1.0
C      1  0.7336995473461  0.3269674283830  0.5454155824104 1.0
C      1  0.4077413225107  0.4919009733417  0.3212903283158 1.0
C      1  0.4077368243550  0.5080967279241  0.6787074532269 1.0
C      1  0.2844290340743  0.4906916845042  0.4139857451800 1.0
C      1  0.2844313986723  0.5093058643819  0.5860134171870 1.0
C      1  0.5011081586411  0.6007545791236  0.4606570505468 1.0
C      1  0.5011078591490  0.3992448088181  0.5393460850312 1.0
C      1  0.3426855732834  0.6372623601157  0.6164459916345 1.0
C      1  0.3426884218282  0.3627358247046  0.3835479965293 1.0
C      1  0.7333462509580  0.5767967218613  0.5424507166667 1.0
C      1  0.7333492692202  0.4232032568456  0.4575527592594 1.0
C      1  0.4371723619471  0.3389783088359  0.3586499933525 1.0
C      1  0.4371709886263  0.6610225782307  0.6413464614381 1.0
END
