TITL C-185379-5508-2 -8.449 3375.00 -1552.32288480 0 0 187 (C1) n - 1
REM
REM Run started: at 2020.12.19 14:27:44 in /rds/project/t2_vol4/rds-t2-cs072/BORA/CARBON/AIRSS/Generating-Clusters/Str-Search/Higher-Symm/C100-200
REM VASP from code version vasp.5.4.4.18Apr17-6-g9f103f2a35 (build Oct 11 2019 16:45:47) gamma-only
REM
REM
REM
REM
REM ./C.cell (533062f00bc710175b3da973d35f2034)
REM AIRSS Version 0.9.1 bugfix July 2018 build 013d7b7c2542+ Fri, 06 Jul 2018 19:26:36 +0100
REM compiler GCC version 4.8.5 20150623 (Red Hat 4.8.5-39)
REM options -cpp -mtune=generic -march=x86-64 -g -O0
REM seed 352655496 -1925134797 -712425152 -810390173 1019583062 856482424 96707589 -1066141304 2116944702 1154943210 1430996777 1572847250
REM
REM C.POTCAR (d86ddea03c3ceb6dc662c8ad6801f873)
REM 
CELL 1.54180   15.00000   15.00000   15.00000   90.00000   90.00000   90.00000
LATT -1
SFAC C  
C      1  0.5159544563887  0.4400836701256  0.6790108983270 1.0
C      1  0.3394733742129  0.4753353975262  0.4787254866234 1.0
C      1  0.6147352958668  0.4460037396084  0.3374609393444 1.0
C      1  0.7215772961305  0.2830360749840  0.2414209551728 1.0
C      1  0.5753051988718  0.2544892718929  0.7942009591285 1.0
C      1  0.2070029845363  0.3082168829875  0.4074529494422 1.0
C      1  0.8601644532987  0.5339169056282  0.3939846736726 1.0
C      1  0.4155773792081  0.5355910551781  0.8749144571228 1.0
C      1  0.2775867945726  0.5761911510861  0.1750811346443 1.0
C      1  0.2053469411110  0.3382558764774  0.6591796303259 1.0
C      1  0.4946622715516  0.3218627768641  0.1466879896979 1.0
C      1  0.7722699497439  0.2925521493664  0.6374702641576 1.0
C      1  0.5145893833335  0.5977142116520  0.7220845564253 1.0
C      1  0.3260761654616  0.6401169174301  0.4918494400503 1.0
C      1  0.6199940943445  0.6043945518950  0.3682131417712 1.0
C      1  0.7952793638985  0.6667038352824  0.6806777828615 1.0
C      1  0.1986554999008  0.7268855610531  0.6861036415615 1.0
C      1  0.5261755206644  0.6842406716061  0.1951882386008 1.0
C      1  0.5560409317143  0.3541375797803  0.5246541904344 1.0
C      1  0.4082075948618  0.3344356106415  0.5193807827203 1.0
C      1  0.4718739079953  0.4425259520723  0.4011565013761 1.0
C      1  0.7358675165317  0.2530516299814  0.5552877356486 1.0
C      1  0.2787964563676  0.2756815785283  0.6726712853822 1.0
C      1  0.4451928537548  0.2640683433526  0.2019128698346 1.0
C      1  0.5653280909782  0.7934670313473  0.4952504774515 1.0
C      1  0.5133174370961  0.7734713804983  0.5930042866914 1.0
C      1  0.4626534056174  0.7756946138264  0.4803587155569 1.0
C      1  0.2604678831702  0.3564495745398  0.3472652963931 1.0
C      1  0.7651543521044  0.3509708145378  0.2947166123943 1.0
C      1  0.5149443468481  0.3227827569193  0.8289887971046 1.0
C      1  0.3572287810703  0.8195123332935  0.3265160388303 1.0
C      1  0.7533515302564  0.7980364656949  0.4663080508734 1.0
C      1  0.4315556767257  0.8149120496739  0.7391507249458 1.0
C      1  0.6728169257241  0.8098332578634  0.6202109100074 1.0
C      1  0.3476063200502  0.8182011726795  0.6012970962320 1.0
C      1  0.5322204491948  0.8045471771481  0.3358810880424 1.0
C      1  0.4332935991049  0.9274021186768  0.6359757181289 1.0
C      1  0.5051383911387  0.8934677271339  0.3704919011914 1.0
C      1  0.6673069327680  0.8986814468266  0.5711693716291 1.0
C      1  0.2230598446071  0.5072765967980  0.3183395204904 1.0
C      1  0.8003975710256  0.4335883409799  0.2668258294301 1.0
C      1  0.5322222233558  0.4054009399100  0.8746264064241 1.0
C      1  0.7150131230575  0.2327368582805  0.6945248259730 1.0
C      1  0.2415253105289  0.2156556227130  0.5219504566753 1.0
C      1  0.5987839543685  0.1924148836634  0.2333161420586 1.0
C      1  0.6219757143406  0.4441333497912  0.8892336538924 1.0
C      1  0.1608890064798  0.5156900190632  0.3952035657359 1.0
C      1  0.7680345183311  0.4678698361827  0.1827352940618 1.0
C      1  0.5047846529164  0.2060310129091  0.2530485303047 1.0
C      1  0.6796320259234  0.2000924739663  0.6139328406549 1.0
C      1  0.2918917737706  0.2126792566548  0.6028130774745 1.0
C      1  0.6921235263368  0.7672160102982  0.3337571716336 1.0
C      1  0.5782092588431  0.7635899507731  0.7457436038221 1.0
C      1  0.2817027215387  0.7976691844790  0.4538307228395 1.0
C      1  0.1400195996238  0.6726530376226  0.4750088896786 1.0
C      1  0.7249319784246  0.6370128544206  0.1434054465707 1.0
C      1  0.6957656333247  0.5940544563481  0.8671144329519 1.0
C      1  0.3432995526961  0.6794955223555  0.7887485623267 1.0
C      1  0.3870876834001  0.6668757803671  0.2619297959896 1.0
C      1  0.8064079925517  0.6417530361087  0.5059311331050 1.0
C      1  0.8542447044850  0.5667301102502  0.4798832476558 1.0
C      1  0.3611041845549  0.5798028783191  0.8062435057149 1.0
C      1  0.3567569072983  0.6368057140941  0.1776670719206 1.0
C      1  0.2515788108298  0.6863048748353  0.7563483593721 1.0
C      1  0.4824559226469  0.6388354590583  0.2724176047678 1.0
C      1  0.7698433986090  0.6598151036349  0.5925152516431 1.0
C      1  0.5632502345120  0.5231693919333  0.6726995468090 1.0
C      1  0.3025149629251  0.5490963946683  0.5154598367823 1.0
C      1  0.5979343169225  0.5291135425315  0.3004856862895 1.0
C      1  0.1302161425872  0.5846220856548  0.4492614725670 1.0
C      1  0.7371270141876  0.5461118139322  0.1404788779504 1.0
C      1  0.6428763160986  0.5346903980432  0.8918220595670 1.0
C      1  0.5195273590825  0.6400977652375  0.3729680659104 1.0
C      1  0.6752644112228  0.6704239761406  0.5491004150602 1.0
C      1  0.3760172076437  0.6646402973760  0.5688892121472 1.0
C      1  0.4444546999925  0.0161678988033  0.6296968988074 1.0
C      1  0.3882013912575  0.0439515988867  0.4339698486068 1.0
C      1  0.6190941501756  0.1029896041863  0.4611790459277 1.0
C      1  0.3061939356928  0.4420786486870  0.3236813134771 1.0
C      1  0.6691564385436  0.4589305713786  0.4227090544711 1.0
C      1  0.4239519290261  0.4612446929132  0.7023128831274 1.0
C      1  0.3730939954708  0.8629521220440  0.6825510874158 1.0
C      1  0.4463091733208  0.8516983312355  0.3133117927900 1.0
C      1  0.7358155604541  0.8416804744017  0.5484039416112 1.0
C      1  0.7751596128333  0.3933956153982  0.8052331885168 1.0
C      1  0.1354048935828  0.4467797029246  0.5660735083377 1.0
C      1  0.6113599556539  0.4203959490140  0.1096598506288 1.0
C      1  0.3874284214393  0.1884713737331  0.5963603829853 1.0
C      1  0.4952272815161  0.2278886370838  0.3424039717869 1.0
C      1  0.5854694249927  0.1792157009734  0.6064562512729 1.0
C      1  0.1323749381565  0.4945908798718  0.4852890595609 1.0
C      1  0.6947981354147  0.4611804404990  0.1256322247286 1.0
C      1  0.7002257454809  0.3970773858894  0.8653928719662 1.0
C      1  0.3040278405990  0.8623240214814  0.3915712252368 1.0
C      1  0.7418193257824  0.8339229531513  0.3824506588253 1.0
C      1  0.5242253819267  0.8357712256277  0.7198497220920 1.0
C      1  0.5013101216079  0.5625081219449  0.0955570928907 1.0
C      1  0.8529011886030  0.5166941725938  0.7172116054312 1.0
C      1  0.1481901044003  0.5764906194088  0.6896855771931 1.0
C      1  0.4402105255809  0.1122715808100  0.6280005432018 1.0
C      1  0.3276426148906  0.0995709523054  0.4336947041000 1.0
C      1  0.6322866656015  0.1116676710997  0.3799542189473 1.0
C      1  0.2688209664036  0.8122619230963  0.5501536746360 1.0
C      1  0.6144389510518  0.7863028400665  0.2791206173169 1.0
C      1  0.6684679390427  0.7667438359404  0.7137788687137 1.0
C      1  0.2003586384677  0.7713924293015  0.5988937442697 1.0
C      1  0.6011100138263  0.7422108118042  0.2019795786585 1.0
C      1  0.7318243819754  0.7074445122271  0.7408947865760 1.0
C      1  0.5199896335405  0.9406681234933  0.4518797537467 1.0
C      1  0.5763002544639  0.8974031630417  0.5281979827012 1.0
C      1  0.5172320527975  0.8734403933422  0.6182474746734 1.0
C      1  0.5163550415016  0.6851595265093  0.7592487621599 1.0
C      1  0.3082137926670  0.7052769643383  0.4196777099573 1.0
C      1  0.6889327243456  0.6826095376253  0.3739391641300 1.0
C      1  0.5303173514526  0.4711375320102  0.0962576715575 1.0
C      1  0.8185474715248  0.4285686205407  0.7291120772714 1.0
C      1  0.1436243528075  0.4850544442339  0.6575064971522 1.0
C      1  0.4673663382275  0.4396208952139  0.2468019829898 1.0
C      1  0.6275760294148  0.4124183469004  0.5633005521444 1.0
C      1  0.3470643012801  0.4434313269957  0.6320990604355 1.0
C      1  0.6554141684326  0.1585510972293  0.3057287361313 1.0
C      1  0.5179320639939  0.1516491572410  0.6790916885762 1.0
C      1  0.2688496971840  0.1699943084618  0.4381623659856 1.0
C      1  0.5055422492825  0.3089482286655  0.3749462573903 1.0
C      1  0.5381384417787  0.2749483664515  0.5836900048877 1.0
C      1  0.4392397538473  0.2605017668209  0.5721180747952 1.0
C      1  0.8985998276924  0.5305694007467  0.6352050405593 1.0
C      1  0.2110924466230  0.5972295599011  0.7613245009819 1.0
C      1  0.4073727252887  0.5807348004990  0.1128962387689 1.0
C      1  0.7149569697912  0.4019031160045  0.5009898283144 1.0
C      1  0.3464358638451  0.4054432843365  0.7298318899802 1.0
C      1  0.3653909385451  0.4077842988535  0.2445518406143 1.0
C      1  0.4953468325194  0.0573113218239  0.5539870833681 1.0
C      1  0.4651705729267  0.0112676997385  0.4723177973137 1.0
C      1  0.5743917145956  0.1081837856931  0.5394023512103 1.0
C      1  0.6509531775308  0.5456525456013  0.4449190307353 1.0
C      1  0.4193991767482  0.5625329344902  0.7197418000042 1.0
C      1  0.3779512020474  0.4776947641413  0.3899434911527 1.0
C      1  0.6430820869436  0.2667594139650  0.1883378182491 1.0
C      1  0.6702138283551  0.2550799412191  0.7740518186321 1.0
C      1  0.1922773994893  0.2961637161532  0.5015327086766 1.0
C      1  0.3421459664622  0.7200380502885  0.3309368007672 1.0
C      1  0.7338772054028  0.6958620640964  0.4624204654014 1.0
C      1  0.4235920836014  0.7266917076468  0.7726178980538 1.0
C      1  0.3656816300945  0.3035901968861  0.2446749195937 1.0
C      1  0.7342973794244  0.3060010019636  0.4704187454771 1.0
C      1  0.3567283089844  0.3068580598977  0.7333966439184 1.0
C      1  0.7248852177679  0.2217897800914  0.3140047530061 1.0
C      1  0.5042453920942  0.2072028180879  0.7508672904911 1.0
C      1  0.2473886584184  0.2268076585880  0.3684126553229 1.0
C      1  0.2252426636850  0.5553203445024  0.2433422179588 1.0
C      1  0.8444608116182  0.4893598796638  0.3265865006685 1.0
C      1  0.4635257491354  0.4694808161303  0.8849709421410 1.0
C      1  0.6435392149430  0.6775414441063  0.1370823218484 1.0
C      1  0.7490848610226  0.6361649129263  0.8062636031545 1.0
C      1  0.1402023870319  0.7036140078395  0.5606962344854 1.0
C      1  0.3573435187819  0.4055061737810  0.5428769341402 1.0
C      1  0.5249119578286  0.3960535040719  0.3243449034051 1.0
C      1  0.5596845069535  0.3661290531132  0.6285757251985 1.0
C      1  0.4356720784385  0.2759288514772  0.7761061513836 1.0
C      1  0.2955721959818  0.2798097857850  0.2993698830520 1.0
C      1  0.7525876562286  0.2910981878511  0.3787471027906 1.0
C      1  0.4629147998154  0.4154705021332  0.1406491451536 1.0
C      1  0.8016029998690  0.3798066020214  0.6444792490508 1.0
C      1  0.1905226708878  0.4190834513736  0.7099876503415 1.0
C      1  0.8194942462830  0.5999322103630  0.7488426907770 1.0
C      1  0.1362834770704  0.6614257349782  0.6498283676954 1.0
C      1  0.5528242758335  0.6388147397591  0.1180536945381 1.0
C      1  0.6187409685171  0.5122057151079  0.5937605965646 1.0
C      1  0.3149883729638  0.5336059613303  0.6098132234428 1.0
C      1  0.4975242423464  0.5355525077256  0.2795650100715 1.0
C      1  0.6089265148283  0.7450981527847  0.5712538854144 1.0
C      1  0.4216146434218  0.7498470239481  0.5645808090931 1.0
C      1  0.5167504989709  0.7358362952118  0.4128963997062 1.0
C      1  0.3338056102020  0.5167876878722  0.1179032936258 1.0
C      1  0.8562647432264  0.5027575630331  0.5565219549761 1.0
C      1  0.2716159129783  0.5344806310483  0.7936273548310 1.0
C      1  0.3699712034575  0.6000808810319  0.6393505469659 1.0
C      1  0.4626722313799  0.5395903941018  0.3774853279929 1.0
C      1  0.6487062397468  0.5759802490855  0.5351162574803 1.0
C      1  0.2633951878153  0.4471933169019  0.7656807422923 1.0
C      1  0.3662895968981  0.4372842354224  0.1484921565768 1.0
C      1  0.7955207457596  0.4311705818190  0.5614513588295 1.0
C      1  0.5898650178370  0.3294557710553  0.1392824434031 1.0
C      1  0.7186626217734  0.3203684945658  0.8203436904896 1.0
C      1  0.1699483584163  0.3551090431616  0.5713862354181 1.0
C      1  0.4829567863345  0.3609968292521  0.4589033676078 1.0
END
