TITL C-183645-9582-21 -2.908 3375.00 -505.08741029 0 0 60 (Cs) n - 1
REM
REM Run started: at 2020.11.27 11:02:46 in /rds/project/t2_vol4/rds-t2-cs072/BORA/CARBON/AIRSS/Generating-Clusters/Str-Search/Higher-Symm/Only-C60
REM VASP from code version vasp.5.4.4.18Apr17-6-g9f103f2a35 (build Oct 11 2019 16:45:47) gamma-only
REM
REM
REM
REM
REM ./C.cell (5f7b7a0d59291d2373303da1f58b8d66)
REM AIRSS Version 0.9.1 bugfix July 2018 build 013d7b7c2542+ Fri, 06 Jul 2018 19:26:36 +0100
REM compiler GCC version 4.8.5 20150623 (Red Hat 4.8.5-39)
REM options -cpp -mtune=generic -march=x86-64 -g -O0
REM seed -87940106 -124631185 2023922853 -21837975 -74869039 -2035789463 -1120652797 -1750766355 384155952 -772101166 -1520197131 161853254
REM
REM C.POTCAR (d86ddea03c3ceb6dc662c8ad6801f873)
REM 
CELL 1.54180   15.00000   15.00000   15.00000   90.00000   90.00000   90.00000
LATT -1
SFAC C  
C      1  0.5082530224749  0.7006711314692  0.3483942441843 1.0
C      1  0.4955649666165  0.7548006337342  0.5627133494479 1.0
C      1  0.4976352702167  0.6108710717718  0.7319478719227 1.0
C      1  0.5037921150508  0.3827793801100  0.7319086562834 1.0
C      1  0.5001413070862  0.2479249188583  0.5477121832086 1.0
C      1  0.4987385549459  0.2988407821906  0.3314145128422 1.0
C      1  0.5096888412545  0.5039237523642  0.2488930045594 1.0
C      1  0.3137943453432  0.5888930160383  0.5661571633142 1.0
C      1  0.3133162007964  0.5001784832190  0.6011365901873 1.0
C      1  0.3138518201741  0.4166379423507  0.5588561791566 1.0
C      1  0.3150489156094  0.3921846134636  0.4666070636307 1.0
C      1  0.3202819798724  0.4545876839848  0.3944942075121 1.0
C      1  0.3226131645022  0.5503137731614  0.3981960146511 1.0
C      1  0.3192251001290  0.6098800748604  0.4731561823738 1.0
C      1  0.3946867888546  0.4980610280906  0.6631689234431 1.0
C      1  0.3955732457136  0.3688012840123  0.5976803637013 1.0
C      1  0.3785084374502  0.3216696519595  0.4502654397129 1.0
C      1  0.3832070211440  0.4239072452804  0.3296614328586 1.0
C      1  0.3867823331956  0.5822211291372  0.3361521890856 1.0
C      1  0.3814553317148  0.6809877219446  0.4599481426132 1.0
C      1  0.3764129965613  0.6444163983681  0.6137281696511 1.0
C      1  0.5680368484908  0.5425247585777  0.7452660343607 1.0
C      1  0.5731404033938  0.3328164437709  0.6816230596707 1.0
C      1  0.5685265957924  0.2439598561620  0.4791110457943 1.0
C      1  0.5698936822247  0.3458476511400  0.2840822258931 1.0
C      1  0.5813178805251  0.5679153743833  0.2669278368783 1.0
C      1  0.5713542798388  0.7462514495585  0.4081783300277 1.0
C      1  0.5629472784100  0.7331654491961  0.6316597504279 1.0
C      1  0.6676962170272  0.5607274805903  0.6075638969319 1.0
C      1  0.6671982499476  0.4524634851803  0.5966451514168 1.0
C      1  0.6689551193771  0.3798601940423  0.5157433838277 1.0
C      1  0.6731743112758  0.3857172995365  0.4131050358529 1.0
C      1  0.6745238655612  0.4707873769260  0.3681063096055 1.0
C      1  0.6735736724355  0.6261598070829  0.4469735545075 1.0
C      1  0.6716155694844  0.6401211498340  0.5422665379623 1.0
C      1  0.5808062721430  0.6490581976612  0.3081108394518 1.0
C      1  0.5668445644610  0.7661750798691  0.4972678261593 1.0
C      1  0.5655352321483  0.6694392590908  0.6950273011037 1.0
C      1  0.5723001727614  0.4535542675864  0.7426870832322 1.0
C      1  0.5697724935935  0.2785267613701  0.6110767476379 1.0
C      1  0.5663160338304  0.2571692596488  0.3902369787466 1.0
C      1  0.5736240875961  0.4296116999786  0.2477854805210 1.0
C      1  0.6401171607270  0.6835860953955  0.3801691005048 1.0
C      1  0.6282149187265  0.7235115704609  0.5617235470142 1.0
C      1  0.6275512642717  0.5925192566687  0.6883677899449 1.0
C      1  0.6309422520988  0.4115234704937  0.6767036109081 1.0
C      1  0.6295878065629  0.2955102579920  0.5375406833652 1.0
C      1  0.6310976266635  0.3200322260694  0.3570526908792 1.0
C      1  0.6413313220056  0.4900991853858  0.2821795697670 1.0
C      1  0.4182679927169  0.3372453148816  0.3602390477859 1.0
C      1  0.4254550766977  0.5040298778295  0.2903470106955 1.0
C      1  0.4243470920090  0.6659443099660  0.3723171237826 1.0
C      1  0.4157078970116  0.7080216204705  0.5481483465766 1.0
C      1  0.4190817243296  0.5932316120349  0.6850874085815 1.0
C      1  0.4224283607683  0.4023636406686  0.6922420369459 1.0
C      1  0.4210992641639  0.2951608554110  0.5339269335346 1.0
C      1  0.6425488880792  0.5366480728862  0.4304949524243 1.0
C      1  0.5640049080576  0.5160293087332  0.4701911112830 1.0
C      1  0.4473155395320  0.4581381453293  0.5819595556646 1.0
C      1  0.5018821165543  0.4896623617683  0.5202875859921 1.0
END
