TITL C-183645-9582-8 -2.881 3375.00 -475.33535084 0 0 60 (Ci) n - 1
REM
REM Run started: at 2020.11.27 06:56:42 in /rds/project/t2_vol4/rds-t2-cs072/BORA/CARBON/AIRSS/Generating-Clusters/Str-Search/Higher-Symm/Only-C60
REM VASP from code version vasp.5.4.4.18Apr17-6-g9f103f2a35 (build Oct 11 2019 16:45:47) gamma-only
REM
REM
REM
REM
REM ./C.cell (5f7b7a0d59291d2373303da1f58b8d66)
REM AIRSS Version 0.9.1 bugfix July 2018 build 013d7b7c2542+ Fri, 06 Jul 2018 19:26:36 +0100
REM compiler GCC version 4.8.5 20150623 (Red Hat 4.8.5-39)
REM options -cpp -mtune=generic -march=x86-64 -g -O0
REM seed -744035439 -41130142 -403246529 -999583971 2062266960 849752296 -979090155 287521093 -1136984603 -1941274443 -421791957 898325347
REM
REM C.POTCAR (d86ddea03c3ceb6dc662c8ad6801f873)
REM 
CELL 1.54180   15.00000   15.00000   15.00000   90.00000   90.00000   90.00000
LATT -1
SFAC C  
C      1  0.5169265710537  0.3254294271515  0.5806787018130 1.0
C      1  0.5568277178218  0.6446863715639  0.5696415547006 1.0
C      1  0.5817286201582  0.3575813464710  0.5088036505187 1.0
C      1  0.5835776914102  0.6785688251023  0.4768992392234 1.0
C      1  0.5391088273281  0.3641209792287  0.4240401832475 1.0
C      1  0.4830734243925  0.6745705151692  0.4193212233009 1.0
C      1  0.4431723381727  0.3553136269868  0.4303584693942 1.0
C      1  0.4182713809563  0.6424186372846  0.4911963361507 1.0
C      1  0.4164224680882  0.3214311012388  0.5231007567230 1.0
C      1  0.4608912221666  0.6358789693967  0.5759598327357 1.0
C      1  0.4864657862346  0.7757870984311  0.4178305098093 1.0
C      1  0.4620377691103  0.1611121801402  0.4682971226188 1.0
C      1  0.4441330724810  0.8382286972605  0.4721254150641 1.0
C      1  0.4248105761953  0.2203223207657  0.5308627836529 1.0
C      1  0.4745561334877  0.9052061576539  0.5246950962845 1.0
C      1  0.5135342241142  0.2242128505043  0.5821694958984 1.0
C      1  0.5379622534042  0.8388878086296  0.5317028731775 1.0
C      1  0.5558669246852  0.1617712904127  0.5278745992464 1.0
C      1  0.5751894299490  0.7796776267810  0.4691372134010 1.0
C      1  0.5254438708370  0.0947938480713  0.4753049104514 1.0
C      1  0.6063301630521  0.5527769859289  0.2965076959238 1.0
C      1  0.4637899474253  0.4746711742743  0.2670055082918 1.0
C      1  0.3326455909490  0.5448696971851  0.3336658842812 1.0
C      1  0.2714552451823  0.4593176071495  0.4577914959694 1.0
C      1  0.2906930564407  0.5257639029155  0.6057565528824 1.0
C      1  0.3936697737354  0.4472229869741  0.7034922860465 1.0
C      1  0.5362101025319  0.5253288030283  0.7329945045710 1.0
C      1  0.6673544293339  0.4551302814468  0.6663341511327 1.0
C      1  0.7285447781573  0.5406823839764  0.5422084628735 1.0
C      1  0.7093069415979  0.4742360860874  0.3942435003250 1.0
C      1  0.2932608465424  0.5457226979467  0.4207827557899 1.0
C      1  0.2889963717781  0.4444320732786  0.5508039909422 1.0
C      1  0.3580013267220  0.5315564984462  0.6727491343791 1.0
C      1  0.4883417531834  0.4414745729443  0.7168717899108 1.0
C      1  0.6209426694158  0.5362916916351  0.6913034446915 1.0
C      1  0.7067391382314  0.4542772957766  0.5792172436024 1.0
C      1  0.7110036602006  0.5555677776092  0.4491959903286 1.0
C      1  0.6419986676703  0.4684435733536  0.3272509466608 1.0
C      1  0.5116583316905  0.5585253211370  0.2831281501409 1.0
C      1  0.3790573636439  0.4637082985833  0.3086965569956 1.0
C      1  0.6253284124276  0.6120112960900  0.6278593201452 1.0
C      1  0.6740810979154  0.3872656903526  0.5164355894404 1.0
C      1  0.6564324288958  0.6294496837102  0.4237899415717 1.0
C      1  0.5772357917848  0.3957817179402  0.3382508501537 1.0
C      1  0.4648496441459  0.6278646464693  0.3279614987836 1.0
C      1  0.3746715941304  0.3879887097509  0.3721407263499 1.0
C      1  0.3259188919820  0.6127343049912  0.4835643785441 1.0
C      1  0.3435675385741  0.3705503525568  0.5762100947298 1.0
C      1  0.4227642152198  0.6042182614730  0.6617491664511 1.0
C      1  0.5351503725762  0.3721353297149  0.6720384554090 1.0
C      1  0.6388017039369  0.6324953787620  0.3324900682719 1.0
C      1  0.5106165299621  0.3934415313803  0.2735068803086 1.0
C      1  0.3733462136600  0.6275535667076  0.3162985496205 1.0
C      1  0.2874075840510  0.3803045346918  0.4096525176021 1.0
C      1  0.2821727594916  0.6104688688162  0.5667303667036 1.0
C      1  0.3611980029197  0.3675049838000  0.6675098648073 1.0
C      1  0.4893835122919  0.6065584529092  0.7264931110880 1.0
C      1  0.6266536770731  0.3724466036906  0.6837016244452 1.0
C      1  0.7125923425855  0.6196955912351  0.5903473695912 1.0
C      1  0.7178272268450  0.3895311070375  0.4332696128317 1.0
END
