TITL C-181654-4274-1 -11.173 3375.00 -2478.33127492 0 0 300 (C1) n - 1
REM
REM Run started: at 2020.11.28 09:06:43 in /rds/project/t2_vol4/rds-t2-cs072/BORA/CARBON/AIRSS/Generating-Clusters/Str-Search/Higher-Symm
REM VASP from code version vasp.5.4.4.18Apr17-6-g9f103f2a35 (build Oct 11 2019 16:45:47) gamma-only
REM
REM
REM
REM
REM ./C.cell (e5ae0387ce4d49c7c0135a1433873289)
REM AIRSS Version 0.9.1 bugfix July 2018 build 013d7b7c2542+ Fri, 06 Jul 2018 19:26:36 +0100
REM compiler GCC version 4.8.5 20150623 (Red Hat 4.8.5-39)
REM options -cpp -mtune=generic -march=x86-64 -g -O0
REM seed -1113925647 -950894146 277375547 -1214888078 -1746704781 1772627332 -683779985 1457694401 -770809969 -157504113 585784082 379146665
REM
REM C.POTCAR (d86ddea03c3ceb6dc662c8ad6801f873)
REM 
CELL 1.54180   15.00000   15.00000   15.00000   90.00000   90.00000   90.00000
LATT -1
SFAC C  
C      1  0.6489867766150  0.1067553039118  0.4453015452426 1.0
C      1  0.6091208535083  0.0654321301114  0.3580330950085 1.0
C      1  0.4075301237056  0.1203267259235  0.3940634577337 1.0
C      1  0.3353564507983  0.1203128365162  0.4755135972215 1.0
C      1  0.3787758071292  0.1305565471026  0.6382525200930 1.0
C      1  0.4753950083066  0.1135234223954  0.6416839449005 1.0
C      1  0.6040854792859  0.1044613478154  0.5403594900576 1.0
C      1  0.7529091067009  0.7156385719116  0.5286483876029 1.0
C      1  0.7224825701829  0.7756887277812  0.2918610597956 1.0
C      1  0.4737513820750  0.7472961767350  0.2339004356782 1.0
C      1  0.2509901500882  0.7217662579433  0.3468902800266 1.0
C      1  0.2231999920011  0.6876728406857  0.5716367746624 1.0
C      1  0.4158053861092  0.7105769282611  0.7197969735977 1.0
C      1  0.6317819227019  0.6905985294980  0.7352702516656 1.0
C      1  0.6975468172571  0.3794947394455  0.4030606833657 1.0
C      1  0.6097063193134  0.3441212774140  0.2538842708506 1.0
C      1  0.3749905566080  0.3799016668793  0.3408346599635 1.0
C      1  0.3110564608783  0.4296219662287  0.4050929840610 1.0
C      1  0.3283375756526  0.4523308930637  0.6323962733550 1.0
C      1  0.5092753665075  0.3993449568475  0.7180428178750 1.0
C      1  0.6834915558725  0.4053599031057  0.6397667949600 1.0
C      1  0.2147630961191  0.3974139563619  0.4549716949642 1.0
C      1  0.2408119142047  0.4487555077480  0.6960496598156 1.0
C      1  0.5594529132521  0.3968828534689  0.8124939401744 1.0
C      1  0.7797851314828  0.3808903913194  0.6624711622903 1.0
C      1  0.7783948342615  0.4043587838725  0.3749759379903 1.0
C      1  0.6118075485620  0.4159444812541  0.1896469843202 1.0
C      1  0.3760220676391  0.3894416777372  0.2377344743138 1.0
C      1  0.0369242042971  0.4646659763219  0.5728752799177 1.0
C      1  0.2723639187409  0.4969329512902  0.9389821979603 1.0
C      1  0.6498352664031  0.4983406540669  0.9995080457749 1.0
C      1  0.9591516834570  0.4865424728281  0.6259888737519 1.0
C      1  0.9014027921908  0.5269935401437  0.2284099028138 1.0
C      1  0.5340855066932  0.5816062262925  0.0701975582368 1.0
C      1  0.1821739349414  0.5165069920200  0.1261432571659 1.0
C      1  0.7649182936319  0.1962016725925  0.2731475242174 1.0
C      1  0.5263428109849  0.1697942747708  0.1817526983378 1.0
C      1  0.2069156958325  0.1433079378031  0.2676754635300 1.0
C      1  0.1272147879525  0.2269968230866  0.5763963522620 1.0
C      1  0.3406828780152  0.2298788323519  0.7878639565240 1.0
C      1  0.6211067350987  0.2090718492895  0.7853212291221 1.0
C      1  0.8123503716337  0.2215920519603  0.5684164653472 1.0
C      1  0.3874134420474  0.6804475141571  0.8069542829645 1.0
C      1  0.6862595302127  0.6584828484608  0.8161394319255 1.0
C      1  0.8120709290609  0.6539450672283  0.5794173188930 1.0
C      1  0.8060546077473  0.7128887179171  0.2893413492050 1.0
C      1  0.4825625965557  0.7152510023608  0.1458355957427 1.0
C      1  0.1738892683386  0.6796941921207  0.3004271388256 1.0
C      1  0.1299830813589  0.6732707005493  0.6061550028318 1.0
C      1  0.3501648011457  0.8377647335364  0.6141886146604 1.0
C      1  0.5629760146837  0.8362645726642  0.6780409958172 1.0
C      1  0.6237359569398  0.8276498081690  0.5911021508881 1.0
C      1  0.6382123894313  0.8377861335843  0.4275010886011 1.0
C      1  0.5596985560241  0.8664524842619  0.3578387167686 1.0
C      1  0.4727856210322  0.8573002364861  0.4122284665779 1.0
C      1  0.2984105326715  0.8465248777239  0.5384810799351 1.0
C      1  0.8386981433235  0.4813979398231  0.3871025704877 1.0
C      1  0.6435511520015  0.5007370527505  0.1753598775722 1.0
C      1  0.3672742232606  0.4637481550250  0.1740252344657 1.0
C      1  0.1630396018325  0.4841503687304  0.4647689912123 1.0
C      1  0.2406290002590  0.5113350227540  0.7767159053098 1.0
C      1  0.5365000762198  0.4897396894545  0.8524180241023 1.0
C      1  0.8098195550270  0.4817111485811  0.6863080111783 1.0
C      1  0.8748136449595  0.5177637406751  0.6098884229836 1.0
C      1  0.8648233697061  0.5594316214656  0.3125153962788 1.0
C      1  0.6058550398128  0.5299025097976  0.0887812550689 1.0
C      1  0.2450156091841  0.5623926173216  0.0792837157090 1.0
C      1  0.0883512106135  0.5161945473930  0.5139210287876 1.0
C      1  0.2548006977849  0.5496662888405  0.8601027388628 1.0
C      1  0.5771202432792  0.5254769355718  0.9359211251145 1.0
C      1  0.4008085625152  0.7106630133993  0.2879314078534 1.0
C      1  0.2748935167449  0.7123855098702  0.4411119245952 1.0
C      1  0.2951159264240  0.6822412342828  0.6368753441187 1.0
C      1  0.4849638454483  0.6696123328197  0.6734682980759 1.0
C      1  0.6864274088159  0.6921760312612  0.6583896432918 1.0
C      1  0.7363105587766  0.7060882217402  0.4414168370473 1.0
C      1  0.6341292476987  0.7314567915952  0.2730831271993 1.0
C      1  0.7529566844517  0.2157434901253  0.3695753782960 1.0
C      1  0.6143948028897  0.1791396609745  0.2313457387922 1.0
C      1  0.2803521417569  0.1269836827692  0.2319484559769 1.0
C      1  0.1911049687249  0.2192696320454  0.4953173309198 1.0
C      1  0.2874781290540  0.2240895591792  0.7070240072189 1.0
C      1  0.5349746366453  0.2295570725207  0.7527487835938 1.0
C      1  0.7665595783423  0.2156743004138  0.6467429754167 1.0
C      1  0.3186137953973  0.9135185368214  0.4662464385186 1.0
C      1  0.3995582249344  0.9140988071599  0.6548468337698 1.0
C      1  0.4868319212217  0.9095825146318  0.6884738514318 1.0
C      1  0.6447406226511  0.9209595086265  0.5626482603344 1.0
C      1  0.6625898110506  0.9337487647527  0.4663436466975 1.0
C      1  0.6117833336543  0.9577934417948  0.3689665184517 1.0
C      1  0.3942659098152  0.9110486504941  0.4079235147110 1.0
C      1  0.2560050264042  0.9364784250434  0.7260548973162 1.0
C      1  0.5335390977445  0.9431992439029  0.8355057035267 1.0
C      1  0.7359950507901  0.9402141027166  0.6942522938573 1.0
C      1  0.8291863120883  0.9425565596950  0.4783685166454 1.0
C      1  0.7174951047888  0.8750044124428  0.2507812108831 1.0
C      1  0.3397823893537  0.9214828151423  0.2534417547649 1.0
C      1  0.1640342069622  0.9362410300606  0.4310468503631 1.0
C      1  0.2360491793706  0.1383733691832  0.6870145351527 1.0
C      1  0.4865396675278  0.1468004918831  0.7932093788134 1.0
C      1  0.6939622114987  0.1471232986895  0.6613044735825 1.0
C      1  0.8000444999913  0.1464282929498  0.4288880937939 1.0
C      1  0.6988662986967  0.1222190290077  0.2292830336401 1.0
C      1  0.3690870980765  0.1019070342473  0.2315570110755 1.0
C      1  0.1864932863168  0.1414551271249  0.4296720594441 1.0
C      1  0.7857275502763  0.3661526258435  0.8679603266421 1.0
C      1  0.9725604841943  0.3205268717969  0.3828229622327 1.0
C      1  0.7986253602739  0.3879336338271  0.0990550898159 1.0
C      1  0.4260447314634  0.3833472048588  0.0516909655854 1.0
C      1  0.9410022551242  0.3307302961809  0.2993244399025 1.0
C      1  0.0250310644896  0.3884900063194  0.7339998159433 1.0
C      1  0.5549736438287  0.3382492000979  0.9575101479203 1.0
C      1  0.5615253836809  0.7611802588237  0.1096027636312 1.0
C      1  0.1827248734198  0.7182005443725  0.2061432960165 1.0
C      1  0.0768600824360  0.7281634003700  0.5361681120999 1.0
C      1  0.2992488646411  0.7122483626393  0.8275289951805 1.0
C      1  0.6413385445359  0.7136994343554  0.8821426055699 1.0
C      1  0.8532953621045  0.7205165355196  0.6499864886089 1.0
C      1  0.8740496188013  0.7470242099676  0.3521112611199 1.0
C      1  0.5399406371819  0.5917365882370  0.2990550308360 1.0
C      1  0.3762123549261  0.5738852474875  0.3398438800298 1.0
C      1  0.3313372789628  0.5833376177888  0.4933015788027 1.0
C      1  0.3896117954135  0.5231710747745  0.6653351417324 1.0
C      1  0.5721793300793  0.5323045985773  0.6830361834465 1.0
C      1  0.6628141294241  0.5803239926232  0.5600811380495 1.0
C      1  0.6492161000268  0.5706033067679  0.4111441969189 1.0
C      1  0.1339197029562  0.7941908849375  0.5004474181636 1.0
C      1  0.2816976582928  0.7822774927895  0.7650002037372 1.0
C      1  0.5986081343048  0.7933078881482  0.8438175867872 1.0
C      1  0.7921076806347  0.7912388913471  0.6587299845362 1.0
C      1  0.8295993224351  0.8136609013993  0.4019406361306 1.0
C      1  0.5942741090217  0.8242740723817  0.1725923679590 1.0
C      1  0.2656883394954  0.7789144179995  0.2027385719614 1.0
C      1  0.1660427719883  0.1968818559181  0.6590491722431 1.0
C      1  0.4093094226576  0.1855942429852  0.8246845264373 1.0
C      1  0.6876725276716  0.1547880267418  0.7644765027142 1.0
C      1  0.8502965157436  0.1917643791941  0.4913592224903 1.0
C      1  0.7784312214176  0.1580977378960  0.1831442927461 1.0
C      1  0.4381550878326  0.1446950364858  0.1851042152289 1.0
C      1  0.1681494067220  0.1787057752186  0.3448141734267 1.0
C      1  0.7501508676828  0.2577286385968  0.1922090306599 1.0
C      1  0.4588993979483  0.2383842699781  0.1692054278888 1.0
C      1  0.1486640145107  0.2751073499422  0.3537905767603 1.0
C      1  0.2083765753131  0.2787134034834  0.6996550411355 1.0
C      1  0.4095708277884  0.2890547970145  0.8286296651275 1.0
C      1  0.7123657688003  0.2541972358617  0.7864386771245 1.0
C      1  0.8244228472833  0.2884873419768  0.4935018225981 1.0
C      1  0.3258805404384  0.2848715052616  0.4584165628643 1.0
C      1  0.3962864119676  0.2940056329421  0.6033581664799 1.0
C      1  0.4825144397189  0.2819579551145  0.6161859413651 1.0
C      1  0.6326819071936  0.2702050837498  0.5510673371227 1.0
C      1  0.6217920090923  0.2698496236640  0.4624314860740 1.0
C      1  0.5139812102015  0.2345418521951  0.3425704613898 1.0
C      1  0.3682215388513  0.2843063146012  0.3785971366713 1.0
C      1  0.7833328082758  0.8727206264617  0.7022144329754 1.0
C      1  0.8673215951206  0.8696293128257  0.4637203025662 1.0
C      1  0.6684602360177  0.8755779669085  0.1754759401028 1.0
C      1  0.2895152859029  0.8727855797986  0.2093500605921 1.0
C      1  0.1195173487743  0.8682020739693  0.4472854153345 1.0
C      1  0.2422123182378  0.8623214426753  0.7634141050062 1.0
C      1  0.5618119200889  0.8744819567106  0.8725663202549 1.0
C      1  0.2152547955693  0.5536911925063  0.6949769047625 1.0
C      1  0.4972332489609  0.5597680799880  0.7929698093282 1.0
C      1  0.7336441927834  0.5429492461823  0.7044086659216 1.0
C      1  0.7891781031842  0.5443096283646  0.4582106399717 1.0
C      1  0.6833076567564  0.5662235158410  0.2474812574223 1.0
C      1  0.4053757264690  0.5572045024584  0.1862398858714 1.0
C      1  0.2028194824428  0.5630197796672  0.4167629899447 1.0
C      1  0.3079439187573  0.5906927087691  0.6611622742932 1.0
C      1  0.5534752270904  0.6200874743944  0.7257381970186 1.0
C      1  0.7291088411061  0.6111825299422  0.6296924128298 1.0
C      1  0.7464829299054  0.6190970659680  0.3990566499925 1.0
C      1  0.6176135429077  0.6419530880474  0.2543331868381 1.0
C      1  0.3730386000600  0.6180119285479  0.2542454987084 1.0
C      1  0.2413854562022  0.6286549775829  0.4862116313050 1.0
C      1  0.2436659512332  0.7105123993836  0.1363372247019 1.0
C      1  0.0131631084239  0.6900881985715  0.4705881559068 1.0
C      1  0.2325749434450  0.6494973734224  0.8536937767171 1.0
C      1  0.5948129368414  0.6883755757681  0.9623946896979 1.0
C      1  0.9136991099125  0.7007661952631  0.7185452419746 1.0
C      1  0.9500365043033  0.6997392690252  0.3958525724365 1.0
C      1  0.6219176933604  0.7322928241537  0.0419947887630 1.0
C      1  0.0767380278247  0.3078393003982  0.5898026198923 1.0
C      1  0.3039081347943  0.3416863425367  0.9330916558808 1.0
C      1  0.6272736005896  0.3556965759128  0.8862489838502 1.0
C      1  0.8732522074142  0.3665978242050  0.6233387638841 1.0
C      1  0.8906528482757  0.3573986939186  0.2223728571909 1.0
C      1  0.5694139223284  0.3616459588682  0.1178743893046 1.0
C      1  0.1553356294704  0.3762075460570  0.2186853850765 1.0
C      1  0.4387760122071  0.5885019483196  0.9429714965168 1.0
C      1  0.8489811227116  0.5702606405034  0.8059809403773 1.0
C      1  0.9385042272953  0.5580930941331  0.4635018747866 1.0
C      1  0.7555464493550  0.6242195933897  0.0362785325075 1.0
C      1  0.3757802838702  0.6077181621212  0.0306008800024 1.0
C      1  0.0440598434741  0.5642957856112  0.3619072341895 1.0
C      1  0.0890598432576  0.6153372459671  0.7729317137065 1.0
C      1  0.6488443763536  0.4017343384786  0.9767639328625 1.0
C      1  0.9383294985662  0.4184912188595  0.6961692582968 1.0
C      1  0.9099651952498  0.4475482668997  0.2083215666918 1.0
C      1  0.6064018932788  0.3437864917182  0.0368035505145 1.0
C      1  0.1619575151281  0.4437563763942  0.1647929073687 1.0
C      1  0.0366610531016  0.3719180099863  0.5368216135801 1.0
C      1  0.2525380778541  0.4082568052069  0.9383705294880 1.0
C      1  0.8144853420657  0.3297627041268  0.1689136274725 1.0
C      1  0.4742035295578  0.3338983688524  0.1172963979237 1.0
C      1  0.1152342901498  0.3413436102336  0.2896869867934 1.0
C      1  0.0899032869108  0.3568042865576  0.6781445110609 1.0
C      1  0.3903581815128  0.3329401462564  0.9099511723055 1.0
C      1  0.7125983284764  0.3105040538915  0.8649315846617 1.0
C      1  0.8877288921276  0.3478515710820  0.5342493833127 1.0
C      1  0.4619038698152  0.3842368107714  0.9598905993908 1.0
C      1  0.8468392791480  0.4110077445711  0.8358041574073 1.0
C      1  0.9599099953997  0.3712560596932  0.4718519163500 1.0
C      1  0.7922808231673  0.4599316609341  0.0559064415489 1.0
C      1  0.3637311204466  0.4448320638734  0.0804391709898 1.0
C      1  0.0310680792858  0.3801111134469  0.3247069180544 1.0
C      1  0.0514002149415  0.4558561779594  0.7950962222002 1.0
C      1  0.2801434670196  0.6478931774828  0.0742013280792 1.0
C      1  0.0329438358107  0.5882604517501  0.4676357554308 1.0
C      1  0.1454176894877  0.6570676231481  0.8292988714301 1.0
C      1  0.5370318676719  0.6092620473632  0.9724106817232 1.0
C      1  0.8956878089650  0.6422867523787  0.7773861932342 1.0
C      1  0.9408406366728  0.6042512650152  0.3694748275426 1.0
C      1  0.7074136578280  0.6924673065821  0.0491292863719 1.0
C      1  0.5946973775681  0.7836202198974  0.7494365489610 1.0
C      1  0.7089179000022  0.7683184945908  0.6023291941360 1.0
C      1  0.7241081765405  0.7909964145715  0.3924684164733 1.0
C      1  0.5563154473035  0.7997471063210  0.2661174072358 1.0
C      1  0.3119030745952  0.7513940448787  0.2862301832402 1.0
C      1  0.2321111341808  0.7734732183742  0.5154647029186 1.0
C      1  0.3385340214585  0.7600978851783  0.6787655783161 1.0
C      1  0.8575170354936  0.5740489280997  0.5287300502879 1.0
C      1  0.7803971514077  0.6153165757991  0.3009995092968 1.0
C      1  0.4491550683565  0.6159696049739  0.1108021889711 1.0
C      1  0.1380876248201  0.6034359485761  0.3432415043155 1.0
C      1  0.1323635961010  0.6147549336468  0.6807992303745 1.0
C      1  0.4289040071861  0.6088364670030  0.8474123152742 1.0
C      1  0.7507566723160  0.5902496872714  0.7945570828244 1.0
C      1  0.6018531019839  0.3568751994061  0.4204089507601 1.0
C      1  0.5460690607589  0.3321967519826  0.3328862487459 1.0
C      1  0.4731390427395  0.3941320349005  0.3691299915720 1.0
C      1  0.3103598761072  0.3768342810708  0.4891420889099 1.0
C      1  0.3723506060445  0.3854729167037  0.5694334253038 1.0
C      1  0.5281609058073  0.3697201862489  0.6194996533186 1.0
C      1  0.6224468514488  0.3532380269913  0.6000157548600 1.0
C      1  0.6241244825590  0.5414293203207  0.3238248017037 1.0
C      1  0.4532669618260  0.5517797713364  0.2733780975979 1.0
C      1  0.3108894994844  0.5299443497543  0.4046733103156 1.0
C      1  0.3390926646298  0.5392902511518  0.5819469226745 1.0
C      1  0.4785262027314  0.4982923731120  0.7086852423607 1.0
C      1  0.6526657503670  0.4876504518061  0.6850823056663 1.0
C      1  0.6948598142937  0.5305383396571  0.4889093666444 1.0
C      1  0.6803973289683  0.0462984346049  0.2862962441240 1.0
C      1  0.3927084602991  0.0571853724774  0.3181191600800 1.0
C      1  0.2527495885942  0.0714555355349  0.4501230747442 1.0
C      1  0.3109165274423  0.0747338599129  0.6660166250657 1.0
C      1  0.4942983293391  0.0710284598875  0.7336459425877 1.0
C      1  0.6685451543324  0.0668394324941  0.6114852239734 1.0
C      1  0.7421201769403  0.0757585111725  0.4510772972845 1.0
C      1  0.0451541970429  0.5385599815090  0.8034290563248 1.0
C      1  0.4797951266741  0.4834285667471  0.9342572127121 1.0
C      1  0.8714169370589  0.4712381995429  0.7654783906919 1.0
C      1  0.9354418748247  0.4640601334478  0.4246194437535 1.0
C      1  0.7475085331654  0.5317046723360  0.0196145450012 1.0
C      1  0.3192294249524  0.5189405015631  0.0269974181261 1.0
C      1  0.0143119450190  0.4691516874522  0.3578324290692 1.0
C      1  0.6558106186091  0.2688814693045  0.2197536566779 1.0
C      1  0.4281774021565  0.3237872442533  0.1996560228245 1.0
C      1  0.1771671222071  0.3038845819465  0.4360361828082 1.0
C      1  0.1848190137567  0.3652660217140  0.6973952054107 1.0
C      1  0.4910765554381  0.3224763613916  0.7811339506924 1.0
C      1  0.7571303867218  0.2876215306181  0.7056450159126 1.0
C      1  0.7723113441047  0.3101535791981  0.4093524771716 1.0
C      1  0.5057471214389  0.9824654900034  0.7546850408769 1.0
C      1  0.6782062955577  0.9798330388421  0.6304264642435 1.0
C      1  0.7517829869078  0.9866806039136  0.4656394145414 1.0
C      1  0.6881267384372  0.9563044052761  0.2990254111412 1.0
C      1  0.3815511134947  0.9675286615061  0.3250262068711 1.0
C      1  0.2456606335501  0.9795682004548  0.4432819621535 1.0
C      1  0.3231503889758  0.9822349872921  0.6834475881131 1.0
C      1  0.5848181112442  0.1690868035621  0.3294158256035 1.0
C      1  0.4302185047923  0.2130868870323  0.3643207554974 1.0
C      1  0.2975888771101  0.2095424457588  0.5159512941375 1.0
C      1  0.3385773012459  0.2186532031594  0.6143215241833 1.0
C      1  0.5267674283620  0.2037539933210  0.6511804615967 1.0
C      1  0.6149050140114  0.1891920228932  0.6022414211235 1.0
C      1  0.6525060261026  0.1976131562342  0.4017635402440 1.0
C      1  0.3734713862670  0.6789575030819  0.4657149296927 1.0
C      1  0.4445535607259  0.7242961626680  0.5213318459579 1.0
C      1  0.5027673592166  0.6710421937596  0.5817781429285 1.0
C      1  0.5764367817182  0.6267132992369  0.5403598992020 1.0
C      1  0.5722082127345  0.6194166176457  0.4465176835646 1.0
C      1  0.5122588824145  0.6369074056589  0.3825748858418 1.0
C      1  0.4181653754141  0.6596720404223  0.3792274816793 1.0
C      1  0.4337699303527  0.0930967239276  0.4856225684150 1.0
C      1  0.5118057542186  0.4035658882778  0.4556231174955 1.0
C      1  0.4737573044210  0.4105824206024  0.5419682974949 1.0
C      1  0.5843154102136  0.8035711070780  0.5030348368077 1.0
C      1  0.4921177567948  0.7940108360115  0.4825384678841 1.0
C      1  0.5023467464483  0.0877935610154  0.5464491897288 1.0
END
