TITL C-188203-2033-8 -11.956 3375.00 -2516.34972681 0 0 306 (C1) n - 1
REM
REM Run started: at 2020.11.26 13:16:57 in /rds/project/t2_vol4/rds-t2-cs072/BORA/CARBON/AIRSS/Generating-Clusters/Str-Search/Higher-Symm
REM VASP from code version vasp.5.4.4.18Apr17-6-g9f103f2a35 (build Oct 11 2019 16:45:47) gamma-only
REM
REM
REM
REM
REM ./C.cell (e5ae0387ce4d49c7c0135a1433873289)
REM AIRSS Version 0.9.1 bugfix July 2018 build 013d7b7c2542+ Fri, 06 Jul 2018 19:26:36 +0100
REM compiler GCC version 4.8.5 20150623 (Red Hat 4.8.5-39)
REM options -cpp -mtune=generic -march=x86-64 -g -O0
REM seed -1234419982 1510650842 -193562174 747811762 -443023182 -1117292004 -1996575149 44893055 2017910925 1395759643 1801670906 -1532023019
REM
REM C.POTCAR (d86ddea03c3ceb6dc662c8ad6801f873)
REM 
CELL 1.54180   15.00000   15.00000   15.00000   90.00000   90.00000   90.00000
LATT -1
SFAC C  
C      1  0.2887754224330  0.8090426462647  0.2559709932133 1.0
C      1  0.2973877325743  0.3400302486701  0.1500662606880 1.0
C      1  0.3264663950897  0.1260447307984  0.5158256875043 1.0
C      1  0.3360354198602  0.3846433107858  0.8607513602784 1.0
C      1  0.2709621583050  0.8396016387508  0.7010752766655 1.0
C      1  0.8482187278540  0.6577319077830  0.4934483229850 1.0
C      1  0.8575077209262  0.5581408564159  0.3310300008308 1.0
C      1  0.8537321818845  0.3441495288984  0.3943654624396 1.0
C      1  0.7971707705041  0.3651303839080  0.5961880811114 1.0
C      1  0.8289489132573  0.5376274922427  0.6594757954125 1.0
C      1  0.2724171871500  0.3439793131538  0.4291525360864 1.0
C      1  0.3218124875117  0.4023728155907  0.6252224953028 1.0
C      1  0.3188526740701  0.5974985780505  0.6422845369656 1.0
C      1  0.2690058493773  0.6679383918136  0.4487422559249 1.0
C      1  0.2823159151837  0.5173978091112  0.3312327147615 1.0
C      1  0.5425936799990  0.3934147235425  0.2750551561861 1.0
C      1  0.5594636298433  0.3010695420474  0.4726496410884 1.0
C      1  0.6199935350450  0.4340650212999  0.7662676571072 1.0
C      1  0.5119554752634  0.6278677133725  0.6687223608255 1.0
C      1  0.5724090228245  0.6603368731476  0.3609243323630 1.0
C      1  0.4302820296208  0.6169834011861  0.1160316924134 1.0
C      1  0.3663358040401  0.1936809260547  0.1984138656528 1.0
C      1  0.4394829186224  0.1543883815097  0.7059139110890 1.0
C      1  0.4402492236775  0.6632241630086  0.8884439313947 1.0
C      1  0.4226580938760  0.8928044988737  0.5314467170506 1.0
C      1  0.6635002758021  0.2724371342890  0.7043732489122 1.0
C      1  0.6736534115887  0.6070292076496  0.8344866721925 1.0
C      1  0.6473665505800  0.8227804570805  0.6179586721126 1.0
C      1  0.6322355729135  0.6488130703887  0.2118021714125 1.0
C      1  0.6562541341721  0.1790835777492  0.2696779723732 1.0
C      1  0.0802811893764  0.4939301425624  0.5928016755653 1.0
C      1  0.0760801730245  0.5900690350547  0.5597118570115 1.0
C      1  0.0783199331802  0.5841372688257  0.4573888626497 1.0
C      1  0.0834963714626  0.4826819966553  0.4248267465482 1.0
C      1  0.1305234785231  0.4228776476353  0.4893191374845 1.0
C      1  0.6984369775528  0.5169135268496  0.4173685273818 1.0
C      1  0.7077074820804  0.4272441673096  0.4679559131190 1.0
C      1  0.7299592912610  0.4444742705461  0.5653231443403 1.0
C      1  0.6279693546461  0.5572009124216  0.5629779132903 1.0
C      1  0.6561105633939  0.5826916111738  0.4793712951086 1.0
C      1  0.7166303021173  0.5872539109548  0.9095987287519 1.0
C      1  0.7163004812629  0.8773940365039  0.5874824630632 1.0
C      1  0.7080988840697  0.6861795378219  0.1657775810339 1.0
C      1  0.7046450170117  0.1833582950940  0.1847368390673 1.0
C      1  0.7057605524294  0.1863234606125  0.6831769330184 1.0
C      1  0.9836650730420  0.4579629605547  0.4421236372037 1.0
C      1  0.9534147333672  0.4212274193493  0.5375883178526 1.0
C      1  0.9777339065180  0.4960535849199  0.5998274412341 1.0
C      1  0.9733960578870  0.5864247569948  0.5455500148981 1.0
C      1  0.9765053102986  0.5641920158565  0.4444962597149 1.0
C      1  0.3440663940234  0.6718551994524  0.8764962274055 1.0
C      1  0.3762527987279  0.8578893189413  0.4512361660190 1.0
C      1  0.3470975287039  0.5644999400996  0.1006862919196 1.0
C      1  0.3008437706120  0.1529485108816  0.2577796820011 1.0
C      1  0.3910432834617  0.2093203849327  0.7612680301421 1.0
C      1  0.2164908271460  0.3063004000183  0.1920193781770 1.0
C      1  0.2600935274305  0.1561478688789  0.5776518954455 1.0
C      1  0.3052012327861  0.4768770683160  0.8738709859278 1.0
C      1  0.2026056447070  0.8178411898279  0.6397562001069 1.0
C      1  0.2403278633019  0.7516992596216  0.1285628740806 1.0
C      1  0.7927167102361  0.3184352586474  0.2061133811921 1.0
C      1  0.8592849109539  0.2028885237344  0.6096016902115 1.0
C      1  0.8365705052135  0.5003737951633  0.8093017025282 1.0
C      1  0.8219277892797  0.7708240944372  0.6385519722164 1.0
C      1  0.8417330150879  0.7108058645378  0.2587030026945 1.0
C      1  0.7142429298933  0.2886971805854  0.9426346515099 1.0
C      1  0.6718163091913  0.8145108808416  0.8834602360260 1.0
C      1  0.6746020766514  0.9046385711217  0.4131295142953 1.0
C      1  0.7105449414080  0.4271646478801  0.0979560713388 1.0
C      1  0.6726576811996  0.1030133854303  0.3276903206603 1.0
C      1  0.2477591400113  0.2847850633593  0.7444640737232 1.0
C      1  0.1898293913132  0.7171476377465  0.8354559051530 1.0
C      1  0.1855762452017  0.8574827887533  0.4267055764876 1.0
C      1  0.1853384091946  0.5170869360657  0.1382100362225 1.0
C      1  0.1865126845278  0.1382733018342  0.3725192170624 1.0
C      1  0.5447539441190  0.1498723400922  0.5724392886345 1.0
C      1  0.5139934332639  0.5095721103487  0.8647164667875 1.0
C      1  0.5521670850857  0.8502411032310  0.6502575618703 1.0
C      1  0.5493453918251  0.6932391745181  0.1852696834315 1.0
C      1  0.5108633118233  0.2416171788224  0.1633891014346 1.0
C      1  0.3261155416204  0.0354760236240  0.5558847065383 1.0
C      1  0.3489649008493  0.3324759685579  0.9323080881424 1.0
C      1  0.3179123823116  0.9193718876020  0.7315728146262 1.0
C      1  0.3442747393185  0.8538770607543  0.1889892772864 1.0
C      1  0.3457336212874  0.3128057698562  0.0780422193913 1.0
C      1  0.7539366766955  0.3325150582376  0.8602328226764 1.0
C      1  0.7164746639929  0.8632018371208  0.8229017021661 1.0
C      1  0.7279001288114  0.8339029670249  0.3895846400095 1.0
C      1  0.7543893901126  0.3782979199593  0.1473580451880 1.0
C      1  0.7270880706988  0.1177190499699  0.4001488920726 1.0
C      1  0.6312071273359  0.8312555107832  0.1251242909756 1.0
C      1  0.6819165306189  0.2304120557404  0.0159060771434 1.0
C      1  0.7159040589614  0.0092648734633  0.6895417300019 1.0
C      1  0.6525976620391  0.4690006619936  0.0349466737322 1.0
C      1  0.6966674871378  0.9496054674973  0.7695462094089 1.0
C      1  0.6249917310400  0.8896248552121  0.2693779783523 1.0
C      1  0.5625808706956  0.3318233508195  0.0477642321604 1.0
C      1  0.6428003588891  0.0777960933787  0.4589162190106 1.0
C      1  0.6284084081871  0.3375828928491  0.9193868685048 1.0
C      1  0.6031663435888  0.8376557040593  0.8056193721920 1.0
C      1  0.8288344071478  0.2207910634836  0.2993209597521 1.0
C      1  0.8434950064035  0.2313549404376  0.7617565680088 1.0
C      1  0.8585507631280  0.6443664571236  0.8283341703788 1.0
C      1  0.8618711565863  0.8335872657577  0.5013389842109 1.0
C      1  0.8527801112827  0.6031780676479  0.1436376325227 1.0
C      1  0.6636989940089  0.1811106039551  0.1020266963877 1.0
C      1  0.6646347762786  0.0951136961071  0.6879496665681 1.0
C      1  0.6671653700675  0.5588821198260  0.9917573324047 1.0
C      1  0.7077355282935  0.9741952883742  0.6012861301354 1.0
C      1  0.6706062693066  0.7484157859716  0.1031960891126 1.0
C      1  0.4487204266786  0.0933990829410  0.8521048529148 1.0
C      1  0.3702400017543  0.6189977847979  0.9526442815946 1.0
C      1  0.4341741024471  0.0400114716388  0.3138019216918 1.0
C      1  0.3580250765815  0.6468030357006  0.0469387649902 1.0
C      1  0.3133638312282  0.0695294143121  0.1252602202557 1.0
C      1  0.5605186978827  0.7789971354874  0.7348032885140 1.0
C      1  0.6565579277596  0.8091585263227  0.3254795654323 1.0
C      1  0.5230949997301  0.3275738273344  0.1273335582821 1.0
C      1  0.5720725497546  0.1518297410611  0.4770846229280 1.0
C      1  0.6646122913545  0.3742813329105  0.8377981243671 1.0
C      1  0.9237408240868  0.5051036823509  0.6847004699361 1.0
C      1  0.9254182432591  0.6741992983699  0.5580692859222 1.0
C      1  0.9499109751674  0.6062764066097  0.3518886767846 1.0
C      1  0.9541462446667  0.3874813367732  0.3730385949627 1.0
C      1  0.9860000847461  0.3320877417337  0.5800133347877 1.0
C      1  0.0812416076029  0.2700626874415  0.4126054470889 1.0
C      1  0.1129734989255  0.3743879203949  0.6952544430250 1.0
C      1  0.1108697729157  0.6356616218740  0.7102449967147 1.0
C      1  0.0498703224303  0.7522738098225  0.4506338698867 1.0
C      1  0.0720720170089  0.5280287108096  0.2587194495980 1.0
C      1  0.6237617932202  0.3760327388674  0.4858068258146 1.0
C      1  0.6493476705435  0.4759789651181  0.6125966293342 1.0
C      1  0.5409554022759  0.5982664856718  0.5778267122271 1.0
C      1  0.6015352278421  0.6562899854566  0.4535621348581 1.0
C      1  0.6285870847650  0.4316371147873  0.2997918518734 1.0
C      1  0.9070413565323  0.6981912775307  0.3350290377400 1.0
C      1  0.9096744046255  0.4069713900523  0.2860403265818 1.0
C      1  0.9219260310422  0.2670244774212  0.5831287078837 1.0
C      1  0.9221897269974  0.4848334058023  0.7735291886333 1.0
C      1  0.8901155605244  0.6987382165613  0.6519541862485 1.0
C      1  0.8651238019723  0.5239248883933  0.1694421190321 1.0
C      1  0.7976608630190  0.1924490244973  0.3895374955013 1.0
C      1  0.8060130639554  0.3156998944079  0.7774332353139 1.0
C      1  0.8788821753641  0.6705923757733  0.7470834726514 1.0
C      1  0.8106293413087  0.8028611454197  0.4263707298724 1.0
C      1  0.2849495047144  0.7401837594353  0.8404477177238 1.0
C      1  0.2786450520072  0.8250795283698  0.4363042280015 1.0
C      1  0.2772242991736  0.5010800219978  0.1260420571080 1.0
C      1  0.2832870580940  0.1366250943639  0.3543886269569 1.0
C      1  0.3441950069635  0.2870049498363  0.7268052484989 1.0
C      1  0.1964889665015  0.5272577499410  0.8014989480849 1.0
C      1  0.0570255852532  0.7583128788164  0.6006988422356 1.0
C      1  0.1069638970162  0.6654975942831  0.3204595992363 1.0
C      1  0.1115491689783  0.3762261248250  0.3096267640557 1.0
C      1  0.1381648721399  0.2785035167644  0.5668196731511 1.0
C      1  0.4198396343890  0.4425906940769  0.2153668012139 1.0
C      1  0.4205072822815  0.2363913094962  0.4087975733379 1.0
C      1  0.4706762658310  0.3820529499403  0.7690410693730 1.0
C      1  0.4098976883271  0.7473936528459  0.7210297051591 1.0
C      1  0.4092571358403  0.8106692610125  0.3798287123688 1.0
C      1  0.4816155169118  0.7396468604018  0.5618768630867 1.0
C      1  0.4235426113373  0.6214209810721  0.2828186695341 1.0
C      1  0.4047850784602  0.3013406741680  0.3181710191252 1.0
C      1  0.4246041121989  0.2656480491461  0.5787991752645 1.0
C      1  0.4702780239090  0.5630223190014  0.7385492609930 1.0
C      1  0.5213580212983  0.4669154561046  0.7740151329332 1.0
C      1  0.4507939783455  0.7030063386177  0.6425908468485 1.0
C      1  0.4799468217869  0.6108214811350  0.3593105672884 1.0
C      1  0.4485426275905  0.4016058844474  0.3142302539155 1.0
C      1  0.4539795657225  0.2990637901206  0.4857731013105 1.0
C      1  0.7759678150185  0.4762520100405  0.7264932388855 1.0
C      1  0.7515775074609  0.7102873238881  0.6540982450858 1.0
C      1  0.8065933249321  0.6577936422943  0.3300654493705 1.0
C      1  0.8491331875530  0.3251573323908  0.2889846530418 1.0
C      1  0.8250616043452  0.2736367139890  0.5480064237019 1.0
C      1  0.1070442199256  0.3232496220799  0.4851638345588 1.0
C      1  0.1134578499375  0.4692300381012  0.6795814109847 1.0
C      1  0.0864968083581  0.6642052182740  0.6252031445307 1.0
C      1  0.0894037869509  0.6731407302964  0.4167999974230 1.0
C      1  0.0954763101955  0.4702408090552  0.3252300398924 1.0
C      1  0.4995650941569  0.1707868110907  0.4002763819831 1.0
C      1  0.5236611496438  0.3102460379178  0.7836883977040 1.0
C      1  0.4753765035017  0.7670304047373  0.7817184074692 1.0
C      1  0.5016310979095  0.8139594227351  0.3462933434555 1.0
C      1  0.4916284474522  0.4890803242200  0.1603095252990 1.0
C      1  0.8396182832660  0.7095858746721  0.4095103110746 1.0
C      1  0.8754257336044  0.4896611836736  0.2566548976474 1.0
C      1  0.8241287484604  0.2617171776020  0.4482179063871 1.0
C      1  0.7963659487064  0.3778868444700  0.7015791626306 1.0
C      1  0.8129807000695  0.6358444523283  0.6771584421525 1.0
C      1  0.5046335946940  0.2448304410207  0.8540229233126 1.0
C      1  0.4961601565812  0.7489182662708  0.8744979029408 1.0
C      1  0.5303415848388  0.9027005675590  0.3153462078512 1.0
C      1  0.5113353005461  0.5547652189741  0.1002698365840 1.0
C      1  0.5045638070045  0.0861680868477  0.3524839330840 1.0
C      1  0.5164238299779  0.4558342046323  0.9454529220248 1.0
C      1  0.5404856302817  0.9372903650743  0.7019627831771 1.0
C      1  0.5751920689455  0.7523824863832  0.1126729375709 1.0
C      1  0.5642102173333  0.1855963280002  0.0986326651099 1.0
C      1  0.6081982609683  0.0894070105237  0.6104444428049 1.0
C      1  0.5993734951799  0.6806320500534  0.7009638109975 1.0
C      1  0.5731582291539  0.7566883052279  0.3411868063798 1.0
C      1  0.5090785878392  0.4008888116200  0.1825370102365 1.0
C      1  0.5832821327111  0.2284706562114  0.4114685009497 1.0
C      1  0.6163999983237  0.3329789237947  0.7605565480804 1.0
C      1  0.4588301654329  0.6581755532928  0.2023341632941 1.0
C      1  0.4357715488392  0.2412788649787  0.2321427971628 1.0
C      1  0.4684074374500  0.1858359598484  0.6161514008125 1.0
C      1  0.4791463096736  0.5876767282413  0.8369223507962 1.0
C      1  0.4850771930735  0.8364756012104  0.5726103928745 1.0
C      1  0.2509461618826  0.7456560351352  0.5906641171333 1.0
C      1  0.1938384169944  0.6892695486909  0.2895416238865 1.0
C      1  0.2062968820225  0.3537692178610  0.2794160480581 1.0
C      1  0.2216574617395  0.2386441272854  0.5526399185907 1.0
C      1  0.2946268687622  0.5137307036124  0.7801678167215 1.0
C      1  0.8086788604523  0.1900426581989  0.6882587969366 1.0
C      1  0.8128606399955  0.5764424976617  0.8703068009580 1.0
C      1  0.8081216550894  0.8408411718528  0.5799239388665 1.0
C      1  0.8063110226780  0.6751346746012  0.1789184774409 1.0
C      1  0.7850449667501  0.2244744439296  0.2134604255191 1.0
C      1  0.6272734846272  0.6024384494069  0.2970130026943 1.0
C      1  0.6223404511523  0.3418180827913  0.3011248201385 1.0
C      1  0.6081008505007  0.3135140561005  0.5603635029261 1.0
C      1  0.6733475150050  0.4982897721691  0.7134340336980 1.0
C      1  0.5423550277477  0.6796076048568  0.5221449363680 1.0
C      1  0.6519227355378  0.6018898782414  0.7496430262121 1.0
C      1  0.6631944001014  0.7296202883905  0.6401669449598 1.0
C      1  0.6543667015898  0.5177070176958  0.3287673915226 1.0
C      1  0.6312699372047  0.2489147855216  0.3246317614779 1.0
C      1  0.6602384549535  0.2574629914888  0.6179221405578 1.0
C      1  0.2997388821637  0.3443861444203  0.3335108027819 1.0
C      1  0.3616225833578  0.3120915698494  0.6299239410683 1.0
C      1  0.3676766035376  0.5452017018830  0.7151403658278 1.0
C      1  0.2669837320013  0.7453850569791  0.4979568287593 1.0
C      1  0.3250088023521  0.6019043726702  0.3052791247494 1.0
C      1  0.2789092422058  0.4292702229079  0.2819279819033 1.0
C      1  0.2701355419472  0.2631362132153  0.4696920766750 1.0
C      1  0.3354661319389  0.4474290055404  0.7125718629294 1.0
C      1  0.2873310969301  0.6861063873243  0.6551158663455 1.0
C      1  0.2789103868497  0.6820652946896  0.3507484268557 1.0
C      1  0.3131963495224  0.8108052861959  0.1074916657165 1.0
C      1  0.3566046923909  0.2223723128623  0.0362412116926 1.0
C      1  0.4671157135968  0.9890888752254  0.7153534917961 1.0
C      1  0.4325601782146  0.4511438675745  0.9736589263785 1.0
C      1  0.3811974285910  0.9581954892124  0.6780165987206 1.0
C      1  0.5992111617473  0.0467436630612  0.3648792457167 1.0
C      1  0.5621886076260  0.2603885254187  0.9201035223287 1.0
C      1  0.5772465447089  0.7971182997718  0.8925222147412 1.0
C      1  0.6104339515286  0.9494126620091  0.3549927346973 1.0
C      1  0.5973047208605  0.5534575158614  0.0497690869335 1.0
C      1  0.5796648903050  0.2415409792852  0.0152486589379 1.0
C      1  0.6517744171096  0.0331664009143  0.5484274775321 1.0
C      1  0.5905741956557  0.4019524496709  0.9861096151309 1.0
C      1  0.6075304106471  0.9320594768532  0.7711739822374 1.0
C      1  0.6281795130922  0.9038232833816  0.1778159407871 1.0
C      1  0.1248714314295  0.1887570145513  0.3943430951296 1.0
C      1  0.1798015080142  0.3306894910071  0.7422960265464 1.0
C      1  0.1328976077711  0.6942886195944  0.7810741586135 1.0
C      1  0.1094657032034  0.8246877630066  0.4311460107851 1.0
C      1  0.1129047502860  0.5172730923236  0.1752009965286 1.0
C      1  0.3212240561214  0.4292154685259  0.1909975750197 1.0
C      1  0.3290398940045  0.1878738473445  0.4323470408369 1.0
C      1  0.3737017003160  0.3751837472153  0.7710456160689 1.0
C      1  0.3130623603511  0.7491750039377  0.7316422475097 1.0
C      1  0.3178550116904  0.7793743457292  0.3464391112128 1.0
C      1  0.9834228209691  0.7552031026645  0.5285719933974 1.0
C      1  0.0339281922476  0.6110202654661  0.2916687496562 1.0
C      1  0.0399446541753  0.3303461326724  0.3470296781921 1.0
C      1  0.0745516118048  0.3176296288310  0.6263347135569 1.0
C      1  0.1347846400793  0.5432219271202  0.7317079737582 1.0
C      1  0.3666108103518  0.3894716382398  0.0200903101640 1.0
C      1  0.3369972573566  0.0615678584587  0.3040994697146 1.0
C      1  0.3698687070996  0.2374805678741  0.9432694585334 1.0
C      1  0.3164553885591  0.9032779432902  0.8257183553944 1.0
C      1  0.4068331597205  0.9130033226669  0.2125205322730 1.0
C      1  0.2848614355013  0.5476858609371  0.5678798298633 1.0
C      1  0.2645144227269  0.5814644958813  0.4818872221143 1.0
C      1  0.2541385221960  0.5115517262949  0.4203441625437 1.0
C      1  0.2368301120575  0.4276277146624  0.4733234660020 1.0
C      1  0.2825758513107  0.4525745062334  0.5599380443102 1.0
C      1  0.3067246790777  0.7267845058687  0.0689061993485 1.0
C      1  0.3506453695546  0.1541433837136  0.1081355363204 1.0
C      1  0.4629190267486  0.0753428826241  0.7629365359303 1.0
C      1  0.3570321602604  0.5166504799172  0.9495594072705 1.0
C      1  0.3781035585626  0.9624338638161  0.5795399502773 1.0
C      1  0.8096717170644  0.5098333286193  0.5661297975853 1.0
C      1  0.8174090277053  0.5728915776064  0.4923001747955 1.0
C      1  0.8048490569989  0.5190589752121  0.4096938080079 1.0
C      1  0.8096703559554  0.4195527332285  0.4416472638539 1.0
C      1  0.8550647523924  0.4248594843875  0.5358347252713 1.0
C      1  0.4433196185495  0.3962983305040  0.4780169254764 1.0
C      1  0.4889986098321  0.4449521385169  0.5472958332360 1.0
C      1  0.4889879675123  0.5342936297371  0.5194444568451 1.0
C      1  0.4661971584876  0.5404073063910  0.4252275833123 1.0
C      1  0.4397255588512  0.4487254505131  0.4013003100224 1.0
C      1  0.2037293477111  0.4907807059037  0.8836776770998 1.0
C      1  0.1141008582705  0.8240615830785  0.6239415875324 1.0
C      1  0.2221997424846  0.7510356641872  0.2216612077214 1.0
C      1  0.1571546523700  0.2499510052401  0.1564711578288 1.0
C      1  0.2409059029529  0.0633597390973  0.5954116166097 1.0
C      1  0.2942936813128  0.0659080660647  0.2153176148637 1.0
C      1  0.4174533996394  0.1913933866733  0.8597834023679 1.0
C      1  0.3022601640858  0.8346114045830  0.8708711420706 1.0
C      1  0.4562440310584  0.9543143393555  0.2735939481620 1.0
C      1  0.3238880210089  0.4813839466600  0.0394340785537 1.0
C      1  0.5779846537744  0.4085397869728  0.5762470721863 1.0
END
