TITL C-183645-9582-10 -2.846 3375.00 -474.56237947 0 0 60 (D4) n - 1
REM
REM Run started: at 2020.11.27 07:36:30 in /rds/project/t2_vol4/rds-t2-cs072/BORA/CARBON/AIRSS/Generating-Clusters/Str-Search/Higher-Symm/Only-C60
REM VASP from code version vasp.5.4.4.18Apr17-6-g9f103f2a35 (build Oct 11 2019 16:45:47) gamma-only
REM
REM
REM
REM
REM ./C.cell (5f7b7a0d59291d2373303da1f58b8d66)
REM AIRSS Version 0.9.1 bugfix July 2018 build 013d7b7c2542+ Fri, 06 Jul 2018 19:26:36 +0100
REM compiler GCC version 4.8.5 20150623 (Red Hat 4.8.5-39)
REM options -cpp -mtune=generic -march=x86-64 -g -O0
REM seed -588589025 -572895911 2064589489 -873927889 761020190 2060462477 734110102 1871726259 171932629 -2031051873 1727184896 214596662
REM
REM C.POTCAR (d86ddea03c3ceb6dc662c8ad6801f873)
REM 
CELL 1.54180   15.00000   15.00000   15.00000   90.00000   90.00000   90.00000
LATT -1
SFAC C  
C      1  0.6043510605812  0.4027225630034  0.6947044359175 1.0
C      1  0.6279663297412  0.4836014835781  0.7388499479795 1.0
C      1  0.5969862061775  0.5704731637258  0.7159700338202 1.0
C      1  0.6043557222949  0.6947026586866  0.5972747167625 1.0
C      1  0.6279691634984  0.7388507906646  0.5163990941718 1.0
C      1  0.5969912523008  0.7159664524396  0.4295282043087 1.0
C      1  0.6043529379689  0.5972776459886  0.3052942998977 1.0
C      1  0.6279664666224  0.5163968689593  0.2611508914330 1.0
C      1  0.5969880435495  0.4295259133182  0.2840304143732 1.0
C      1  0.6043563536705  0.3052969870592  0.4027241354078 1.0
C      1  0.6279695463122  0.2611494637291  0.4836005278318 1.0
C      1  0.5969895567941  0.2840323102036  0.5704718145950 1.0
C      1  0.7114006582239  0.6856330135547  0.5137302114481 1.0
C      1  0.6850587974213  0.6634764966429  0.4209691461581 1.0
C      1  0.6919649214994  0.6021953206960  0.3514295504236 1.0
C      1  0.7114012927687  0.5137242003932  0.3143660299394 1.0
C      1  0.6850495223399  0.4209632119147  0.3365164424120 1.0
C      1  0.6919664797525  0.3514319315846  0.3978010726881 1.0
C      1  0.7114004758951  0.3143659126798  0.4862719293671 1.0
C      1  0.6850574620089  0.3365209881407  0.5790322984715 1.0
C      1  0.6919632556878  0.3978037716470  0.6485712214818 1.0
C      1  0.7113999782219  0.4862745332852  0.6856347651843 1.0
C      1  0.6850482581021  0.5790381899181  0.6634859413140 1.0
C      1  0.6919653118606  0.6485679855868  0.6022007014165 1.0
C      1  0.3079496359682  0.3201901350100  0.4842573366721 1.0
C      1  0.3150033030158  0.3349921076955  0.5758660261606 1.0
C      1  0.2887046146894  0.3923052610800  0.6522404097880 1.0
C      1  0.3079472601006  0.4842632128522  0.6797948317157 1.0
C      1  0.3150015856751  0.5758631409367  0.6649980258044 1.0
C      1  0.2887048171094  0.6522524195383  0.6076903700559 1.0
C      1  0.3079493314548  0.6798114098689  0.5157432514832 1.0
C      1  0.3150029585793  0.6650083217705  0.4241338923914 1.0
C      1  0.2887043311511  0.6076954470088  0.3477602496284 1.0
C      1  0.3079477162640  0.5157372435438  0.3202058986215 1.0
C      1  0.3150016619142  0.4241378427695  0.3350015935881 1.0
C      1  0.2887041436982  0.3477488640620  0.3923098365189 1.0
C      1  0.3956251475240  0.4512834946360  0.7127317258625 1.0
C      1  0.4030138501194  0.6218437844590  0.6914053309498 1.0
C      1  0.3720724083508  0.6951866491807  0.6392650608676 1.0
C      1  0.3956310933617  0.7127422883307  0.5487130001111 1.0
C      1  0.4030099077515  0.6914103707071  0.3781520115414 1.0
C      1  0.3720701400811  0.6392654289403  0.3048154615360 1.0
C      1  0.3956259846919  0.5487166119352  0.2872684981880 1.0
C      1  0.4030135329769  0.3781572760117  0.3085948569374 1.0
C      1  0.3720715019944  0.3048138309722  0.3607346523609 1.0
C      1  0.3956306971476  0.2872583245437  0.4512865648760 1.0
C      1  0.4030095286335  0.3085902059589  0.6218477075657 1.0
C      1  0.3720703638769  0.3607351967171  0.6951841333686 1.0
C      1  0.4724441895773  0.4805965712062  0.6715553899953 1.0
C      1  0.4999208213443  0.5812118138849  0.6723588480686 1.0
C      1  0.5275398404028  0.6444082352548  0.5938748871653 1.0
C      1  0.4724424559933  0.6715675394713  0.5194038686089 1.0
C      1  0.4999211751140  0.6723630778802  0.4187873200121 1.0
C      1  0.5275389567249  0.5938753515856  0.3555945502724 1.0
C      1  0.4724461202404  0.5194038578158  0.3284414528904 1.0
C      1  0.4999213506109  0.4187878795290  0.3276405051687 1.0
C      1  0.5275403654295  0.3555908986886  0.4061244329117 1.0
C      1  0.4724425441316  0.3284324130485  0.4805954612887 1.0
C      1  0.4999204630417  0.3276365539845  0.5812116880496 1.0
C      1  0.5275371479659  0.4061250817220  0.6444030421719 1.0
END
