TITL C-181654-4274-3 -11.571 3375.00 -2104.03389335 0 0 255 (C1) n - 1
REM
REM Run started: at 2020.11.28 13:09:02 in /rds/project/t2_vol4/rds-t2-cs072/BORA/CARBON/AIRSS/Generating-Clusters/Str-Search/Higher-Symm
REM VASP from code version vasp.5.4.4.18Apr17-6-g9f103f2a35 (build Oct 11 2019 16:45:47) gamma-only
REM
REM
REM
REM
REM ./C.cell (e5ae0387ce4d49c7c0135a1433873289)
REM AIRSS Version 0.9.1 bugfix July 2018 build 013d7b7c2542+ Fri, 06 Jul 2018 19:26:36 +0100
REM compiler GCC version 4.8.5 20150623 (Red Hat 4.8.5-39)
REM options -cpp -mtune=generic -march=x86-64 -g -O0
REM seed -978587712 941221354 1210619294 1011741833 1385208167 1231193645 204668356 -1642611624 -506901183 1016776401 -949947555 -804260638
REM
REM C.POTCAR (d86ddea03c3ceb6dc662c8ad6801f873)
REM 
CELL 1.54180   15.00000   15.00000   15.00000   90.00000   90.00000   90.00000
LATT -1
SFAC C  
C      1  0.0269877015097  0.4349476525329  0.2790861353098 1.0
C      1  0.9955033425699  0.2852175355939  0.4617233308408 1.0
C      1  0.0263255509377  0.4534009093242  0.7301421664925 1.0
C      1  0.0650936735535  0.7164809151602  0.5991955032540 1.0
C      1  0.0653860654156  0.6801977925154  0.3453498041573 1.0
C      1  0.7377907142998  0.3925270528349  0.8258668638476 1.0
C      1  0.7706636125720  0.8164227915855  0.6699516081133 1.0
C      1  0.7313961087037  0.7865600352434  0.2989507302954 1.0
C      1  0.7323929878211  0.4160030828255  0.1636999393218 1.0
C      1  0.7555389045194  0.1644233453530  0.4986395607279 1.0
C      1  0.2834205709421  0.5626733862757  0.1324430795503 1.0
C      1  0.2963521407006  0.1853792447683  0.3134770030611 1.0
C      1  0.2543519399852  0.2081537025180  0.7517346162549 1.0
C      1  0.2817264408655  0.6339158546307  0.8378445507751 1.0
C      1  0.2502177390091  0.8483276177317  0.4585713384531 1.0
C      1  0.0748755932229  0.2492870813263  0.4267540281229 1.0
C      1  0.0872520604494  0.3925745502885  0.7458748487013 1.0
C      1  0.1541716083372  0.7415988829004  0.6024064220861 1.0
C      1  0.1444289363432  0.7038497009954  0.3215846157929 1.0
C      1  0.0998747100545  0.4522287836767  0.2361545373997 1.0
C      1  0.5131559499613  0.3297553155042  0.2744771298631 1.0
C      1  0.5347149498510  0.2329602423273  0.5726093371595 1.0
C      1  0.5129161986207  0.4931589401664  0.7876915114228 1.0
C      1  0.5097932283860  0.7630596605527  0.6031023431040 1.0
C      1  0.4806837065345  0.6582116829376  0.2716485579711 1.0
C      1  0.6883618285892  0.2060478310079  0.4464552556719 1.0
C      1  0.6627782039127  0.3650092639891  0.7834351727188 1.0
C      1  0.6536761956131  0.7221057602084  0.7371512116842 1.0
C      1  0.6488907711279  0.7907366523490  0.3566722068870 1.0
C      1  0.6604028600037  0.4661061071023  0.1955982871382 1.0
C      1  0.6585803550757  0.6621502533335  0.0601124134110 1.0
C      1  0.7236975327928  0.1416489939305  0.2029642135761 1.0
C      1  0.6450821087380  0.1195275410351  0.6934182349776 1.0
C      1  0.6637395816118  0.6301897967348  0.9737136169553 1.0
C      1  0.6794251388756  0.9265358156079  0.6092791620299 1.0
C      1  0.6504377940313  0.7065720039056  0.4222443620340 1.0
C      1  0.6553237711145  0.4962449607753  0.2939724800922 1.0
C      1  0.6734256642665  0.3063281272316  0.4495653320839 1.0
C      1  0.6617213445351  0.3940298290749  0.6825020342080 1.0
C      1  0.6612330507524  0.6435178811789  0.6705545199166 1.0
C      1  0.2209978556435  0.3191236998511  0.3772733551717 1.0
C      1  0.1696735909519  0.2944482466124  0.6361450081697 1.0
C      1  0.2324691678334  0.5418974400296  0.7077744683372 1.0
C      1  0.2084260576172  0.7008680408941  0.4734811064340 1.0
C      1  0.2357860968298  0.5492749333774  0.2845344419369 1.0
C      1  0.3626592238071  0.0800833205759  0.4024169005445 1.0
C      1  0.2841395408788  0.3214712119568  0.8881220310201 1.0
C      1  0.3290294846358  0.7830685833485  0.8150416347225 1.0
C      1  0.2510182935952  0.8461415433585  0.2799530193098 1.0
C      1  0.2383865351049  0.4056711316519  0.0842681248072 1.0
C      1  0.5687205349834  0.3340181524679  0.4356966724452 1.0
C      1  0.5704377687539  0.3847911056665  0.6398142338622 1.0
C      1  0.5650156241114  0.6005804121950  0.6647071201041 1.0
C      1  0.5520913637768  0.6839536397315  0.4552182871954 1.0
C      1  0.5549008258754  0.5110743613879  0.3259600685812 1.0
C      1  0.5448374696195  0.1153632566509  0.3912508139134 1.0
C      1  0.4919178941271  0.2890844076238  0.8183497087450 1.0
C      1  0.5168621471734  0.7598472091075  0.8294293035422 1.0
C      1  0.4957660395663  0.8756828632630  0.3620932225487 1.0
C      1  0.5264776302090  0.4892032348593  0.0589235526762 1.0
C      1  0.6148610769378  0.3357886627809  0.0593857913788 1.0
C      1  0.6317636979846  0.0965242408602  0.6007639082263 1.0
C      1  0.5719286542874  0.4775807191835  0.9604150202496 1.0
C      1  0.6254260864356  0.8741059375562  0.6711477882087 1.0
C      1  0.5816468759812  0.7500841541396  0.1951875985798 1.0
C      1  0.5358124821587  0.4249548591961  0.4742906514661 1.0
C      1  0.5395837506103  0.4516863543259  0.5714422245700 1.0
C      1  0.5440149118817  0.5510393020452  0.5779026401696 1.0
C      1  0.5570446380588  0.5845173047513  0.4849338722624 1.0
C      1  0.5514514425186  0.5130828523231  0.4271730769581 1.0
C      1  0.5762124509530  0.7589162354864  0.5304821536533 1.0
C      1  0.5640832460359  0.6006238072089  0.2764118006046 1.0
C      1  0.5881415990992  0.3195008012351  0.3348323830798 1.0
C      1  0.5916060601684  0.2924605414694  0.6080278382831 1.0
C      1  0.5828899706646  0.5541175090363  0.7553970861418 1.0
C      1  0.6974869145820  0.6263844209492  0.3901787390229 1.0
C      1  0.7028451299459  0.4438688264146  0.3610670563149 1.0
C      1  0.7108217885367  0.3527592039643  0.5264204958441 1.0
C      1  0.7034368007598  0.4811837104498  0.6605198413068 1.0
C      1  0.7022916466277  0.6549557452111  0.5789956182005 1.0
C      1  0.0153049000281  0.3643797034909  0.5081879038859 1.0
C      1  0.0245884763793  0.4811160589737  0.6432439232016 1.0
C      1  0.0369874188937  0.6364357209345  0.5682573324311 1.0
C      1  0.0342498195647  0.6108938944881  0.3969281860527 1.0
C      1  0.0196190518596  0.4483624359684  0.3679732690165 1.0
C      1  0.6438240899209  0.1684560635461  0.2287123379081 1.0
C      1  0.5721378515105  0.1429031306106  0.7464074915087 1.0
C      1  0.5898982043649  0.5802615724552  0.9278343063233 1.0
C      1  0.6798836827954  0.0135472628047  0.5753707872182 1.0
C      1  0.5762126446296  0.6723862793918  0.1237208472517 1.0
C      1  0.3454155484979  0.2503421687819  0.7534201603971 1.0
C      1  0.3693665602169  0.6840125537773  0.8230337034072 1.0
C      1  0.3455384642561  0.8485677472294  0.4197548322468 1.0
C      1  0.3696689734158  0.5128781522189  0.1049855933546 1.0
C      1  0.3951719400826  0.1645179666688  0.3442522328942 1.0
C      1  0.5040621819090  0.4479553523459  0.8798652788332 1.0
C      1  0.5290449210078  0.8445392140952  0.6797014182578 1.0
C      1  0.4904700692359  0.7531781469370  0.2372029827670 1.0
C      1  0.5351653422811  0.3224296007811  0.1133880536014 1.0
C      1  0.5428085339591  0.1283423770785  0.5640289104274 1.0
C      1  0.8364002825190  0.2218214794443  0.5106876084730 1.0
C      1  0.8125153508969  0.4268554844973  0.7789130060192 1.0
C      1  0.8361771525193  0.7494728086825  0.6626356225673 1.0
C      1  0.8107509268377  0.7426711890912  0.3283719505319 1.0
C      1  0.8128858964204  0.4197627684294  0.2270059433105 1.0
C      1  0.2680925806371  0.5461450921226  0.8066391538299 1.0
C      1  0.1999545204873  0.7802137778220  0.5136362849007 1.0
C      1  0.2606570925328  0.6133977252636  0.2096698422874 1.0
C      1  0.2581413365671  0.2691496333007  0.2966319673354 1.0
C      1  0.1987386966334  0.2225008348264  0.6818057938760 1.0
C      1  0.4556498917466  0.6968266194506  0.8717328379251 1.0
C      1  0.4317460121459  0.8938183780098  0.4388585230958 1.0
C      1  0.4515976076073  0.5610156285501  0.0728128147238 1.0
C      1  0.4885699657660  0.1420656520953  0.3124714211522 1.0
C      1  0.4386323338355  0.2217341021659  0.7740616240557 1.0
C      1  0.3917027344172  0.2318970043359  0.4164143549949 1.0
C      1  0.3555394768426  0.3354976004180  0.7066372240137 1.0
C      1  0.3837879387074  0.6562251670961  0.7295599820440 1.0
C      1  0.3888924800221  0.7694069116793  0.3693946266105 1.0
C      1  0.4066302760623  0.4286492498131  0.1479253777844 1.0
C      1  0.7190209490441  0.0884873862496  0.5451907037856 1.0
C      1  0.6411991930755  0.4066283842943  0.9972730813032 1.0
C      1  0.6844693467231  0.8081205090131  0.7064672501482 1.0
C      1  0.6503170006031  0.7689519497351  0.2559993454981 1.0
C      1  0.6946763059298  0.3818110863836  0.0754553906209 1.0
C      1  0.4733675537153  0.3436077744340  0.4673100358912 1.0
C      1  0.4785718032110  0.4173007178468  0.6427824417596 1.0
C      1  0.4738255092472  0.6035988433909  0.6261474198706 1.0
C      1  0.4528525616628  0.6912222539757  0.4207211839430 1.0
C      1  0.4641563929098  0.4722961575187  0.3132364160721 1.0
C      1  0.2813000481325  0.7892721072424  0.2269504692529 1.0
C      1  0.2474760570590  0.3408353023356  0.1351685228398 1.0
C      1  0.4151645661332  0.0743082673138  0.4804650880533 1.0
C      1  0.3462674905045  0.3866623466203  0.8888655278969 1.0
C      1  0.3870772141146  0.8343418367619  0.7611670583378 1.0
C      1  0.4840229647767  0.4054436554861  0.1030381235378 1.0
C      1  0.5081712652831  0.0893194061996  0.4746880510830 1.0
C      1  0.4434709479764  0.3695773536456  0.8531827307328 1.0
C      1  0.4831855149097  0.8260693102773  0.7695191596385 1.0
C      1  0.4548779467713  0.8132397387491  0.3064386940783 1.0
C      1  0.5826262630533  0.6153416589175  0.8333558011513 1.0
C      1  0.5661870608017  0.8490354299212  0.4863518322453 1.0
C      1  0.5791936560737  0.5882063230528  0.1794658219183 1.0
C      1  0.6162746251204  0.2219648381477  0.3094787209116 1.0
C      1  0.6258122675584  0.2101355715120  0.7896555631040 1.0
C      1  0.9403213273927  0.4802532945301  0.4175663406152 1.0
C      1  0.9410537014047  0.4273202493665  0.5111162232572 1.0
C      1  0.9436848576787  0.4931042222143  0.5907541542796 1.0
C      1  0.9487787340548  0.5902466646747  0.5496985943743 1.0
C      1  0.9465025383691  0.5839245158218  0.4403217983473 1.0
C      1  0.3776676664299  0.8165146448485  0.6644072376055 1.0
C      1  0.3210252311319  0.6960381839470  0.2274210406124 1.0
C      1  0.2921813165008  0.3246244375368  0.2195127078762 1.0
C      1  0.3910456767336  0.1335582225067  0.5582031455908 1.0
C      1  0.3433542558180  0.4813201692895  0.8369371932378 1.0
C      1  0.4954753634679  0.6110503722908  0.8916511668062 1.0
C      1  0.4794340231273  0.8843082976439  0.5166997143968 1.0
C      1  0.4742712019923  0.6439333557528  0.1094166714348 1.0
C      1  0.5476806649034  0.1849644358953  0.2391080791465 1.0
C      1  0.4809777022736  0.1538435518775  0.7193875707296 1.0
C      1  0.4179613298019  0.6344082019248  0.3429518315383 1.0
C      1  0.4323346710557  0.3765416839928  0.3041671928615 1.0
C      1  0.4491560152778  0.2849657238949  0.5506555530795 1.0
C      1  0.4468135170662  0.4730833199829  0.7175039981969 1.0
C      1  0.4404298226917  0.6895732868529  0.5905026292875 1.0
C      1  0.5859607220417  0.8585703792458  0.3954281045152 1.0
C      1  0.5921437325266  0.5075049037044  0.1399519682906 1.0
C      1  0.6232256198671  0.1668343471452  0.3883565298789 1.0
C      1  0.5927773983058  0.2933860664521  0.8086082041063 1.0
C      1  0.5973124615758  0.7095679498696  0.8090417014591 1.0
C      1  0.3886487390093  0.2169410266969  0.5103238220819 1.0
C      1  0.3855738657617  0.4136346766893  0.7686529243345 1.0
C      1  0.3800596300846  0.7203629133709  0.6618531253152 1.0
C      1  0.3319279463225  0.6942703916224  0.3305347246536 1.0
C      1  0.3692780321949  0.3749154435754  0.2241840873494 1.0
C      1  0.6658987915515  0.7164684312112  0.5230195605543 1.0
C      1  0.6604547678258  0.5942745408600  0.3153769420599 1.0
C      1  0.6762381310666  0.3597236763340  0.3655884688440 1.0
C      1  0.6813729048127  0.3266538012329  0.6081386795113 1.0
C      1  0.6731450727700  0.5500475211198  0.7084060204620 1.0
C      1  0.5231733119789  0.2742757175761  0.1961163029061 1.0
C      1  0.4604690425703  0.1285956750959  0.6286915803766 1.0
C      1  0.4459790650987  0.5264037337084  0.8625719313308 1.0
C      1  0.4578764190290  0.8506886486851  0.6085167299275 1.0
C      1  0.4258426303468  0.6875438665714  0.1896708228284 1.0
C      1  0.8472599707749  0.7365072372918  0.4177890569276 1.0
C      1  0.8433998503044  0.5020501193745  0.2636175621144 1.0
C      1  0.8896794154176  0.2829024754191  0.4430101460972 1.0
C      1  0.8480601892887  0.3811772061227  0.7015277585507 1.0
C      1  0.8509706365402  0.6585056215303  0.6907452076770 1.0
C      1  0.2826548708829  0.6079484802362  0.5778644887694 1.0
C      1  0.2856427746673  0.5488521276846  0.4290676282708 1.0
C      1  0.2759766284772  0.4519553422741  0.4017249276363 1.0
C      1  0.2701399813462  0.3654908906647  0.5330323366782 1.0
C      1  0.2764672075197  0.4490754461661  0.6029265614330 1.0
C      1  0.2835508990797  0.1069156235563  0.3663168791233 1.0
C      1  0.2768328107968  0.2530198772524  0.8316232318558 1.0
C      1  0.2611321572128  0.7261352870598  0.8315539832494 1.0
C      1  0.2599815149876  0.8701497204631  0.3709340650917 1.0
C      1  0.2722369806047  0.4929909538196  0.0770975436052 1.0
C      1  0.4045616313507  0.6651443338758  0.4992091535062 1.0
C      1  0.4052052714963  0.5370276057636  0.3292406577491 1.0
C      1  0.3993140931843  0.3318018363609  0.4008987332433 1.0
C      1  0.4159844501376  0.3464537598768  0.6230834416598 1.0
C      1  0.4028161615717  0.5624110489428  0.6834983476921 1.0
C      1  0.7647591396282  0.8793436940551  0.5971319591606 1.0
C      1  0.7399222887021  0.6595606290277  0.1089522274132 1.0
C      1  0.7995698895225  0.1713654969705  0.2389177936014 1.0
C      1  0.7104451432017  0.1828681663012  0.7379673902444 1.0
C      1  0.7437383048969  0.6273524259926  0.9178955008409 1.0
C      1  0.8473676183622  0.6552091795686  0.3077249018731 1.0
C      1  0.8501285304824  0.3730267399843  0.3065731451827 1.0
C      1  0.8543808228751  0.2835440383186  0.5777681429253 1.0
C      1  0.8500575573020  0.5108211879204  0.7472410253403 1.0
C      1  0.8671242739682  0.7352223408004  0.5747874243207 1.0
C      1  0.8055946816220  0.8704879144587  0.5150130540552 1.0
C      1  0.7932497694881  0.6253992861592  0.1610354724508 1.0
C      1  0.8483445118393  0.2148080399744  0.2910132703736 1.0
C      1  0.7807550493771  0.2287751301951  0.7134679697133 1.0
C      1  0.7917386340108  0.6239527276604  0.8503504360960 1.0
C      1  0.1580294012729  0.3739473435225  0.6944159069802 1.0
C      1  0.2121792099896  0.6638924050539  0.6351413721193 1.0
C      1  0.2260365824340  0.6825295790593  0.3758494965831 1.0
C      1  0.1789457968400  0.4690246359617  0.2725890691479 1.0
C      1  0.1585771772271  0.2747150204787  0.4466552156698 1.0
C      1  0.1878490472815  0.4198437333318  0.3636071923362 1.0
C      1  0.1746236154964  0.3277780271426  0.5362731201572 1.0
C      1  0.1889931049326  0.4621061988883  0.6524544487544 1.0
C      1  0.1933710263499  0.6233551782204  0.5439690032433 1.0
C      1  0.2038428052829  0.5850879472479  0.3820865312323 1.0
C      1  0.7759231946544  0.5825696091273  0.4418176006001 1.0
C      1  0.7765263049463  0.4782850513675  0.4191815917939 1.0
C      1  0.7794552603353  0.4223852643223  0.5108149954496 1.0
C      1  0.7773077328197  0.4924269483668  0.5920611675387 1.0
C      1  0.7776299133719  0.5916353637046  0.5494444016370 1.0
C      1  0.8347753170409  0.2936894270240  0.6711438629000 1.0
C      1  0.8364194352356  0.6031342985262  0.7664531625145 1.0
C      1  0.8489600707287  0.7864977096153  0.4977687268802 1.0
C      1  0.8368497808016  0.5941042695391  0.2389632320415 1.0
C      1  0.8655015735540  0.2888507980293  0.3437137435589 1.0
C      1  0.8632956650227  0.6342710857142  0.4061039217216 1.0
C      1  0.8598000541092  0.4609237028777  0.3581185919709 1.0
C      1  0.8656190202530  0.3625547219003  0.5120915344007 1.0
C      1  0.8629144717531  0.4729604922257  0.6519259133510 1.0
C      1  0.8671404743512  0.6362713937365  0.5865965091512 1.0
C      1  0.3360126673261  0.6066320939689  0.4964066777182 1.0
C      1  0.3150805147703  0.5152290122658  0.3391589907983 1.0
C      1  0.3055813050116  0.3640762090830  0.4347730529570 1.0
C      1  0.3212759937438  0.3661561895808  0.6182001004410 1.0
C      1  0.3104567593464  0.5393225141550  0.6403061272765 1.0
C      1  0.1084259016995  0.4504035548247  0.4193076248144 1.0
C      1  0.1047142443310  0.4045903862297  0.5168783791678 1.0
C      1  0.1095719638134  0.4834236221752  0.5885158169645 1.0
C      1  0.1132209108079  0.5718263328751  0.5335393613996 1.0
C      1  0.1137438523031  0.5547480641971  0.4295004899058 1.0
END
