TITL C-187165-3728-8 -7.62 3375.00 -1320.09753801 0 0 160 (Cs) n - 1
REM
REM Run started: at 2020.12.29 00:19:26 in /rds/project/t2_vol4/rds-t2-cs072/BORA/CARBON/AIRSS/Generating-Clusters/Str-Search/Higher-Symm/C100-200
REM VASP from code version vasp.5.4.4.18Apr17-6-g9f103f2a35 (build Oct 11 2019 16:45:47) gamma-only
REM
REM
REM
REM
REM ./C.cell (533062f00bc710175b3da973d35f2034)
REM AIRSS Version 0.9.1 bugfix July 2018 build 013d7b7c2542+ Fri, 06 Jul 2018 19:26:36 +0100
REM compiler GCC version 4.8.5 20150623 (Red Hat 4.8.5-39)
REM options -cpp -mtune=generic -march=x86-64 -g -O0
REM seed -2133471717 -1801266640 625311024 1053925295 -1334064599 -571308769 944004234 -618829427 1850949017 2069942510 -2134855332 -780290683
REM
REM C.POTCAR (d86ddea03c3ceb6dc662c8ad6801f873)
REM 
CELL 1.54180   15.00000   15.00000   15.00000   90.00000   90.00000   90.00000
LATT -1
SFAC C  
C      1  0.2728714445632  0.5784491869933  0.2080650286348 1.0
C      1  0.3552559799091  0.3082261921474  0.2079168489404 1.0
C      1  0.6376174806477  0.3027282257762  0.2081467154619 1.0
C      1  0.7299518762577  0.5697799760136  0.2081672614813 1.0
C      1  0.5043672080434  0.7401533506510  0.2080282200464 1.0
C      1  0.2728716889383  0.5784488916244  0.7919353104385 1.0
C      1  0.3552558373667  0.3082260957587  0.7920831750788 1.0
C      1  0.6376167688870  0.3027284160366  0.7918525433606 1.0
C      1  0.7299519072664  0.5697799521373  0.7918326706574 1.0
C      1  0.5043672157207  0.7401532625906  0.7919717554240 1.0
C      1  0.6105041975018  0.6276447157275  0.5448795133201 1.0
C      1  0.4131133450530  0.6451668823122  0.5448878782153 1.0
C      1  0.3351774533611  0.4620973130578  0.5448782355618 1.0
C      1  0.4848616306019  0.3316327158541  0.5448797053705 1.0
C      1  0.6557490486202  0.4339736339870  0.5448757651320 1.0
C      1  0.6105041911731  0.6276446883705  0.4551204278809 1.0
C      1  0.4131133288875  0.6451668957876  0.4551121233909 1.0
C      1  0.3351774060160  0.4620971964670  0.4551215963151 1.0
C      1  0.4848615616579  0.3316327690738  0.4551200503584 1.0
C      1  0.6557490049479  0.4339735656705  0.4551239873954 1.0
C      1  0.4838555595980  0.5817838125440  0.1224858994226 1.0
C      1  0.4171850560348  0.5097574425147  0.1224366621592 1.0
C      1  0.4651493692086  0.4239955834777  0.1223112143661 1.0
C      1  0.5614906998140  0.4430540121925  0.1223422449366 1.0
C      1  0.5731129873045  0.5405669409146  0.1223590687567 1.0
C      1  0.4838555568775  0.5817838385074  0.8775142469525 1.0
C      1  0.4171852162922  0.5097575242258  0.8775635141704 1.0
C      1  0.4651493568650  0.4239958387512  0.8776882737752 1.0
C      1  0.5614906623058  0.4430541150497  0.8776568118211 1.0
C      1  0.5731129899323  0.5405670596057  0.8776406163355 1.0
C      1  0.4472559922005  0.5765511034823  0.2961355051581 1.0
C      1  0.4108935997297  0.4735015434986  0.2961137062893 1.0
C      1  0.4975870541147  0.4070861099890  0.2961757365694 1.0
C      1  0.5875429125741  0.4689179061710  0.2961593641858 1.0
C      1  0.5564540942099  0.5736448296858  0.2960717196072 1.0
C      1  0.4472560145469  0.5765510759407  0.7038644251312 1.0
C      1  0.4108937523349  0.4735014924337  0.7038861764400 1.0
C      1  0.4975869384465  0.4070862391910  0.7038239564726 1.0
C      1  0.5875430589377  0.4689178690656  0.7038403716108 1.0
C      1  0.5564541734368  0.5736448052980  0.7039282055102 1.0
C      1  0.1357710508592  0.5877878672275  0.6112238386699 1.0
C      1  0.3038186366593  0.1792673455034  0.6112012141354 1.0
C      1  0.7450766192650  0.2148105340482  0.6111438301464 1.0
C      1  0.8459429686240  0.6438800351263  0.6111428536843 1.0
C      1  0.4697353778915  0.8750633540547  0.6113354873515 1.0
C      1  0.1357711901466  0.5877886504915  0.3887788071932 1.0
C      1  0.3038187331629  0.1792676542229  0.3887986435944 1.0
C      1  0.7450767019215  0.2148106069173  0.3888559718594 1.0
C      1  0.8459429422107  0.6438800353722  0.3888572919334 1.0
C      1  0.4697352538435  0.8750635491695  0.3886644014999 1.0
C      1  0.5837368840520  0.4686833077580  0.6009800538641 1.0
C      1  0.5554528172419  0.5699423952035  0.6010797004148 1.0
C      1  0.4504984619414  0.5745711596698  0.6010395771238 1.0
C      1  0.4137839288563  0.4760963912849  0.6010212964215 1.0
C      1  0.4961364586871  0.4106481560648  0.6010057576355 1.0
C      1  0.5837368185924  0.4686832605251  0.3990196881179 1.0
C      1  0.5554527511598  0.5699423411125  0.3989202164031 1.0
C      1  0.4504983839996  0.5745711222743  0.3989604256794 1.0
C      1  0.4137838737418  0.4760963732914  0.3989784791070 1.0
C      1  0.4961364455942  0.4106480741293  0.3989940597453 1.0
C      1  0.2810900077193  0.3605720433220  0.7621556731481 1.0
C      1  0.5646817912249  0.2487479225094  0.7617345895992 1.0
C      1  0.7590498478679  0.4838291440476  0.7617471407875 1.0
C      1  0.5951576076010  0.7411674014123  0.7620672467411 1.0
C      1  0.2997097407449  0.6652335014342  0.7619205758075 1.0
C      1  0.2810899447861  0.3605721917953  0.2378443824410 1.0
C      1  0.5646824210008  0.2487480470439  0.2382649462683 1.0
C      1  0.7590498242021  0.4838292493360  0.2382528745037 1.0
C      1  0.5951576198916  0.7411673664023  0.2379327420672 1.0
C      1  0.2997096515305  0.6652336596221  0.2380798593995 1.0
C      1  0.6821376883774  0.7816038175804  0.4524977465373 1.0
C      1  0.2894491859605  0.7612521557698  0.4524809317161 1.0
C      1  0.1871429893814  0.3792378428917  0.4524950460128 1.0
C      1  0.5172603338144  0.1653151128001  0.4525286865090 1.0
C      1  0.8243739749041  0.4133844451025  0.4525176279500 1.0
C      1  0.6821376613948  0.7816038401119  0.5475022803562 1.0
C      1  0.2894492636174  0.7612520336731  0.5475190560162 1.0
C      1  0.1871429940478  0.3792377826964  0.5475050065117 1.0
C      1  0.5172602674224  0.1653150210809  0.5474710459035 1.0
C      1  0.8243739615570  0.4133844339232  0.5474823872921 1.0
C      1  0.6976005436334  0.6796442966385  0.5566588659678 1.0
C      1  0.3911152218505  0.7442610060964  0.5567449039796 1.0
C      1  0.2341453697873  0.4709853246140  0.5567008357055 1.0
C      1  0.4446480275569  0.2384838513813  0.5566570491732 1.0
C      1  0.7321575064022  0.3671182108802  0.5566801654736 1.0
C      1  0.6976005489488  0.6796442775145  0.4433411334281 1.0
C      1  0.3911152168452  0.7442610846120  0.4432551394631 1.0
C      1  0.2341454982026  0.4709852529977  0.4432994113632 1.0
C      1  0.4446480553156  0.2384839226601  0.4433426128921 1.0
C      1  0.7321575035801  0.3671182107141  0.4433197669055 1.0
C      1  0.4371972478180  0.7904966654597  0.3645276026270 1.0
C      1  0.2049682919971  0.5295578198792  0.3645942278655 1.0
C      1  0.3799755127434  0.2284114664537  0.3646905461095 1.0
C      1  0.7215852755568  0.3022884210808  0.3647817370744 1.0
C      1  0.7556859120912  0.6494461646297  0.3647690222871 1.0
C      1  0.4371972505881  0.7904966012078  0.6354724626862 1.0
C      1  0.2049682240901  0.5295573191899  0.6354066919753 1.0
C      1  0.3799752345032  0.2284114438758  0.6353091729716 1.0
C      1  0.7215851565377  0.3022882544095  0.6352181128706 1.0
C      1  0.7556859430607  0.6494462086325  0.6352309365817 1.0
C      1  0.2670946120672  0.1451806985646  0.5446664969012 1.0
C      1  0.7660077002818  0.1692918834869  0.5446662912491 1.0
C      1  0.8956124614573  0.6504314893012  0.5446540684934 1.0
C      1  0.4798921155301  0.9239349480229  0.5446727475138 1.0
C      1  0.0921437455603  0.6122499652010  0.5446930065454 1.0
C      1  0.2670946070822  0.1451808411879  0.4553332640346 1.0
C      1  0.7660077942126  0.1692918734273  0.4553334767953 1.0
C      1  0.8956124069374  0.6504315130046  0.4553459413811 1.0
C      1  0.4798921264276  0.9239350153652  0.4553271966759 1.0
C      1  0.0921456817509  0.6122491533856  0.4553108855667 1.0
C      1  0.6271200218471  0.3887835664920  0.8331958317176 1.0
C      1  0.6449186216562  0.5863254240551  0.8333103477307 1.0
C      1  0.4624034015372  0.6642904433674  0.8332205425456 1.0
C      1  0.3319869340283  0.5150899690940  0.8332571685112 1.0
C      1  0.4338775699263  0.3447456630628  0.8332919620525 1.0
C      1  0.6271203632790  0.3887837078775  0.1668035684204 1.0
C      1  0.6449185559031  0.5863251983456  0.1666895375520 1.0
C      1  0.4624032829088  0.6642906086219  0.1667794352788 1.0
C      1  0.3319866312426  0.5150901291189  0.1667430914452 1.0
C      1  0.4338778898587  0.3447456452960  0.1667079346715 1.0
C      1  0.6610085121461  0.8206931856642  0.6265802560392 1.0
C      1  0.2458184987579  0.7532488223804  0.6265790951126 1.0
C      1  0.1812455554692  0.3352397178040  0.6266268416790 1.0
C      1  0.5575292680921  0.1456903668013  0.6263846184278 1.0
C      1  0.8552531413103  0.4454773751023  0.6265475419857 1.0
C      1  0.6610085638700  0.8206931038743  0.3734197554882 1.0
C      1  0.2458181481457  0.7532487696871  0.3734211974440 1.0
C      1  0.1812452895532  0.3352398299625  0.3733731595068 1.0
C      1  0.5575294643546  0.1456906450820  0.3736150896285 1.0
C      1  0.8552531333701  0.4454774389821  0.3734525018158 1.0
C      1  0.6747851385941  0.4284956776127  0.7519719245479 1.0
C      1  0.6217502294089  0.6440289891579  0.7522689433282 1.0
C      1  0.4003726184639  0.6604355955925  0.7520468242477 1.0
C      1  0.3166762719559  0.4547663230374  0.7522308403350 1.0
C      1  0.4861543480170  0.3117410460330  0.7519536492586 1.0
C      1  0.6747849255382  0.4284960089481  0.2480278147087 1.0
C      1  0.6217501557204  0.6440288853591  0.2477309608284 1.0
C      1  0.4003725175360  0.6604357241932  0.2479532156282 1.0
C      1  0.3166758288621  0.4547665131221  0.2477694921267 1.0
C      1  0.4861547729487  0.3117405823697  0.2480456577684 1.0
C      1  0.2165897783296  0.3366479492412  0.7031947465375 1.0
C      1  0.5670390242837  0.1798817943064  0.7029051509339 1.0
C      1  0.8254500777494  0.4653825232023  0.7029388355318 1.0
C      1  0.6333334413539  0.7983369143602  0.7030681388179 1.0
C      1  0.2573061651912  0.7194646117643  0.7030197569550 1.0
C      1  0.2165896192014  0.3366479651947  0.2968052535013 1.0
C      1  0.5670400336412  0.1798818364904  0.2970944887435 1.0
C      1  0.8254500052100  0.4653825576882  0.2970612086377 1.0
C      1  0.6333334215021  0.7983368352067  0.2969319081111 1.0
C      1  0.2573061561849  0.7194650078837  0.2969801796589 1.0
C      1  0.2471916238674  0.5202604872211  0.7176755547675 1.0
C      1  0.4022214505860  0.2657340348418  0.7175809424709 1.0
C      1  0.6925254229054  0.3345571991361  0.7174578724773 1.0
C      1  0.7164165011612  0.6319652048642  0.7176358248873 1.0
C      1  0.4411927089624  0.7471288941415  0.7177657238729 1.0
C      1  0.2471913002773  0.5202608218935  0.2823249328633 1.0
C      1  0.4022219103132  0.2657338345389  0.2824186557757 1.0
C      1  0.6925258261467  0.3345575997643  0.2825418401589 1.0
C      1  0.7164164740290  0.6319651843771  0.2823641000432 1.0
C      1  0.4411927167039  0.7471289093333  0.2822343405841 1.0
END
