TITL C-183092-6344-1 -7.069 3375.00 -1220.73329390 0 0 150 (C1) n - 1
REM
REM Run started: at 2020.12.01 09:32:04 in /rds/project/t2_vol4/rds-t2-cs072/BORA/CARBON/AIRSS/Generating-Clusters/Str-Search/Higher-Symm/C100-200
REM VASP from code version vasp.5.4.4.18Apr17-6-g9f103f2a35 (build Oct 11 2019 16:45:47) gamma-only
REM
REM
REM
REM
REM ./C.cell (533062f00bc710175b3da973d35f2034)
REM AIRSS Version 0.9.1 bugfix July 2018 build 013d7b7c2542+ Fri, 06 Jul 2018 19:26:36 +0100
REM compiler GCC version 4.8.5 20150623 (Red Hat 4.8.5-39)
REM options -cpp -mtune=generic -march=x86-64 -g -O0
REM seed -1937679846 1802736952 1757513866 431824257 912714925 -1750201392 -1315466026 1755242617 305214500 -308061027 -1499545613 -420541150
REM
REM C.POTCAR (d86ddea03c3ceb6dc662c8ad6801f873)
REM 
CELL 1.54180   15.00000   15.00000   15.00000   90.00000   90.00000   90.00000
LATT -1
SFAC C  
C      1  0.4757573864412  0.8343568261446  0.4109521393638 1.0
C      1  0.2287766894245  0.7160423699420  0.5159387657574 1.0
C      1  0.7271184638502  0.7537611671510  0.3488355332068 1.0
C      1  0.4814526567535  0.7673297963186  0.5580027105912 1.0
C      1  0.4943102483087  0.6322460888854  0.7932772508581 1.0
C      1  0.5921439251333  0.1722541285966  0.3762060392806 1.0
C      1  0.7520304396587  0.6594641911275  0.5617099946957 1.0
C      1  0.6305711940825  0.1383361735910  0.4551319350854 1.0
C      1  0.4252179123085  0.8015278904195  0.6259926662620 1.0
C      1  0.7796171575518  0.2786683493223  0.6465782130278 1.0
C      1  0.6740891721645  0.1716707344812  0.5979225842433 1.0
C      1  0.4102476028601  0.2193735753061  0.4322845719819 1.0
C      1  0.7035003066455  0.4463560479335  0.8228933087884 1.0
C      1  0.6071010980369  0.6133166703687  0.2147120301848 1.0
C      1  0.4828512444295  0.4648823293855  0.6202293821279 1.0
C      1  0.4731011192454  0.4038455177500  0.3795028217326 1.0
C      1  0.5982264098840  0.1775812020117  0.5370723418226 1.0
C      1  0.3638470507309  0.5991232107298  0.1661202154808 1.0
C      1  0.2753226409250  0.2624513937091  0.5452438748192 1.0
C      1  0.7535529043612  0.8031295479200  0.5637399755568 1.0
C      1  0.7505696581894  0.4060674899829  0.3021538055824 1.0
C      1  0.7024849892616  0.7088724839573  0.2751628607454 1.0
C      1  0.1399934380651  0.4703099631278  0.5661929371225 1.0
C      1  0.3537041112081  0.5384653719772  0.7127044276261 1.0
C      1  0.1595180465561  0.4542032635026  0.6561124739548 1.0
C      1  0.4650936086393  0.5562217997636  0.4411288761016 1.0
C      1  0.2724446261306  0.5957694710063  0.4028404012741 1.0
C      1  0.7930554742703  0.6150868736313  0.3942644588220 1.0
C      1  0.5561084203425  0.4903474359374  0.8634896432589 1.0
C      1  0.3268417898418  0.5717653228374  0.3177768129193 1.0
C      1  0.4194613192595  0.6244437024911  0.3065431072815 1.0
C      1  0.6676354262676  0.8492762957977  0.5675288444269 1.0
C      1  0.3021784087794  0.2741981661843  0.2334747699774 1.0
C      1  0.6554609616764  0.6339975001763  0.6692261836061 1.0
C      1  0.6452219090827  0.5669532575176  0.7436903432892 1.0
C      1  0.4259675189538  0.4006580929265  0.8073354217627 1.0
C      1  0.2737478930014  0.7732891253374  0.5776825635241 1.0
C      1  0.1985009877829  0.4481160718956  0.4177835121657 1.0
C      1  0.5951529439159  0.6478964635930  0.4055557261507 1.0
C      1  0.1454738247381  0.5893676143862  0.3258661488440 1.0
C      1  0.4954969904310  0.3237175666731  0.5481025482749 1.0
C      1  0.4227891244879  0.7504205684738  0.7068456112153 1.0
C      1  0.4427080030221  0.2749241271589  0.5972412076711 1.0
C      1  0.6150090264399  0.3737609598732  0.6583398275774 1.0
C      1  0.5633160567209  0.4143363913363  0.3439940255939 1.0
C      1  0.8151872200482  0.3327307050103  0.5940821209253 1.0
C      1  0.7826587692227  0.7321320144973  0.5071129901100 1.0
C      1  0.1797361967790  0.5493082987734  0.4137212473103 1.0
C      1  0.7795591978014  0.7072530877313  0.4162673756755 1.0
C      1  0.6528235410160  0.3904507260775  0.5738577169904 1.0
C      1  0.3218489707719  0.5297623966525  0.6232377385702 1.0
C      1  0.3435738775096  0.4626099116599  0.4583682976397 1.0
C      1  0.4120960994770  0.5225383261962  0.6384447335604 1.0
C      1  0.2188680571750  0.3797156140139  0.6851696121576 1.0
C      1  0.4062564790474  0.1943963782807  0.6042192774633 1.0
C      1  0.2496796341349  0.4358874185162  0.7614149312945 1.0
C      1  0.5448316559452  0.7516015806792  0.2821405167855 1.0
C      1  0.2921830026397  0.3507533432981  0.2020337836102 1.0
C      1  0.3563435691380  0.8163490054115  0.5619493025544 1.0
C      1  0.4334472675265  0.1530319122990  0.6891775229651 1.0
C      1  0.5132936678550  0.3270250473614  0.3612653324223 1.0
C      1  0.7036988612021  0.6235437609290  0.2367815612422 1.0
C      1  0.6664523536555  0.6205046354953  0.5636704576758 1.0
C      1  0.6557280970766  0.1963850647525  0.3106229903886 1.0
C      1  0.3208610792846  0.5583750227376  0.4805021184014 1.0
C      1  0.4964309344817  0.2531629732770  0.1816763311658 1.0
C      1  0.2414356878882  0.3153257169175  0.6197768163085 1.0
C      1  0.3268636069264  0.1293895858800  0.4390853525086 1.0
C      1  0.2639920252342  0.7338094535837  0.6659819322893 1.0
C      1  0.5054714253111  0.5960084214718  0.3626338751723 1.0
C      1  0.3561332186676  0.2058269001529  0.2702998760899 1.0
C      1  0.5569943921782  0.3112254358114  0.1610320179375 1.0
C      1  0.3815923827773  0.7062352313193  0.4405070247232 1.0
C      1  0.1634475930621  0.5580765731413  0.5235394653306 1.0
C      1  0.3137413035723  0.4395602417798  0.2181311574598 1.0
C      1  0.7066160324379  0.1738782350498  0.5045937885560 1.0
C      1  0.5619556513818  0.2673794593784  0.5006549760284 1.0
C      1  0.7383297613565  0.2468224164390  0.3097193635729 1.0
C      1  0.3490964809296  0.1979492562821  0.5161261887693 1.0
C      1  0.7285349601174  0.2675995189951  0.4785707729957 1.0
C      1  0.5969652569838  0.6551928043608  0.5079548890313 1.0
C      1  0.6245076716280  0.2883411136645  0.7019661622616 1.0
C      1  0.6800570458519  0.2494918274770  0.2374370005051 1.0
C      1  0.2194786928873  0.6001792146231  0.7399233416754 1.0
C      1  0.8286571465960  0.3810285578427  0.5125332689015 1.0
C      1  0.6751796758736  0.4076326094839  0.2361182947828 1.0
C      1  0.6413677987556  0.4209794886660  0.4894964934094 1.0
C      1  0.6534531611328  0.7930446327560  0.6508634506326 1.0
C      1  0.6336202162260  0.4412292473377  0.8690651577225 1.0
C      1  0.3373925620800  0.7143555238466  0.7219237570514 1.0
C      1  0.2636906364740  0.5641631523386  0.5577559951962 1.0
C      1  0.7800110507569  0.3235074618898  0.3472853234173 1.0
C      1  0.4914092396821  0.3568816701474  0.7489043978062 1.0
C      1  0.5460806968246  0.7054793559799  0.5698678606089 1.0
C      1  0.7171545148482  0.5016801042882  0.7499526870735 1.0
C      1  0.5427522387901  0.5371797653459  0.2054895366954 1.0
C      1  0.3081021184785  0.7590900850824  0.3649660363674 1.0
C      1  0.3418676213085  0.4602194412222  0.7903690458929 1.0
C      1  0.7559551678496  0.6702261785925  0.6611593641250 1.0
C      1  0.6090385098282  0.8798690827772  0.5045591039396 1.0
C      1  0.5170492247631  0.2398470740967  0.4100691969610 1.0
C      1  0.6251625780357  0.4656355303905  0.4102492225081 1.0
C      1  0.5325414340137  0.4130826270412  0.6864244832764 1.0
C      1  0.2890999139994  0.4284153839035  0.3881464227976 1.0
C      1  0.8006579406718  0.3225952426919  0.4422983048902 1.0
C      1  0.7803188871290  0.4864576280215  0.3438518669765 1.0
C      1  0.7446706856539  0.7687844501691  0.6593876300484 1.0
C      1  0.4699086370841  0.7850619467225  0.3309399520351 1.0
C      1  0.8363438317733  0.4799669465480  0.5129980942777 1.0
C      1  0.5687639623225  0.5665520015463  0.8026652193664 1.0
C      1  0.4555390711421  0.6156981472000  0.2096968563035 1.0
C      1  0.1711726290934  0.4069507090400  0.4974270046077 1.0
C      1  0.6271844947008  0.7329432459765  0.3375391090252 1.0
C      1  0.2705555766445  0.6957989633544  0.4278057415633 1.0
C      1  0.3901288031918  0.5215944457616  0.8619747649890 1.0
C      1  0.3506298846237  0.1869946318863  0.3678090075539 1.0
C      1  0.4419077376599  0.4580570217741  0.4544424387833 1.0
C      1  0.6435232747732  0.5591892291377  0.3714085946127 1.0
C      1  0.6481245352774  0.3205782724978  0.4977087017902 1.0
C      1  0.5857310929140  0.7112729152267  0.6657502353906 1.0
C      1  0.6430436891218  0.3267078534524  0.1959222980772 1.0
C      1  0.1862851577813  0.6100504416582  0.2555244143407 1.0
C      1  0.1915534230016  0.5090849273296  0.7349508634940 1.0
C      1  0.4809352084472  0.4199118822770  0.5395739422393 1.0
C      1  0.2023714415117  0.6613522206052  0.6684888033399 1.0
C      1  0.5733796155863  0.5539852300336  0.3016570984168 1.0
C      1  0.6966510441639  0.2348616715452  0.6623412895253 1.0
C      1  0.4026194650459  0.6074384531896  0.8297602713054 1.0
C      1  0.7935884257875  0.5121660149496  0.6884178280898 1.0
C      1  0.5475441253836  0.8807113928590  0.4478992187475 1.0
C      1  0.5847235039176  0.4578217780799  0.2549128730976 1.0
C      1  0.5036840893191  0.7028461563418  0.7316291258175 1.0
C      1  0.4187402973960  0.7891623412556  0.4838411099477 1.0
C      1  0.3949764128327  0.7195009195392  0.3367102133577 1.0
C      1  0.4899753061301  0.1947274538461  0.7365025793892 1.0
C      1  0.4361821877034  0.2113228657794  0.2274714089003 1.0
C      1  0.5427225040672  0.2716233105360  0.7498725926958 1.0
C      1  0.2127593245973  0.3277661878635  0.5296499147425 1.0
C      1  0.3145950991867  0.5237507439587  0.1672617626414 1.0
C      1  0.4023251914720  0.6130717093533  0.4748265746998 1.0
C      1  0.4631645598190  0.4609273975046  0.8697569454625 1.0
C      1  0.3247484741019  0.6259201304948  0.7651825018413 1.0
C      1  0.8233560421608  0.5958653859767  0.6646087259130 1.0
C      1  0.2806664448398  0.5981646177318  0.2285498717814 1.0
C      1  0.8311014904988  0.5189353888579  0.5995373023838 1.0
C      1  0.1904555186121  0.6416106603931  0.5696548296280 1.0
C      1  0.5363510432790  0.6847734564105  0.2156326971862 1.0
C      1  0.8202579068504  0.5246214080892  0.4245192534055 1.0
C      1  0.7353883325082  0.5729758815706  0.3222977287720 1.0
C      1  0.3235665230654  0.4683079273179  0.3071105856227 1.0
END
