TITL C-194466-1201-16 -2.134 3375.00 -356.66720480 0 0 44 (C1) n - 1
REM
REM Run started: at 2020.11.27 08:05:02 in /rds/project/t2_vol4/rds-t2-cs072/BORA/CARBON/AIRSS/Generating-Clusters/Str-Search/Higher-Symm/C10-100
REM VASP from code version vasp.5.4.4.18Apr17-6-g9f103f2a35 (build Oct 11 2019 16:45:47) gamma-only
REM
REM
REM
REM
REM ./C.cell (f39ce9773e2efe3fa5bbdf770a4156b8)
REM AIRSS Version 0.9.1 bugfix July 2018 build 013d7b7c2542+ Fri, 06 Jul 2018 19:26:36 +0100
REM compiler GCC version 4.8.5 20150623 (Red Hat 4.8.5-39)
REM options -cpp -mtune=generic -march=x86-64 -g -O0
REM seed 1694121455 1805726196 -135674604 -1951380692 -643836160 -826956595 -776324699 513640203 1779467950 -508865264 -1300744714 -1340949028
REM
REM C.POTCAR (d86ddea03c3ceb6dc662c8ad6801f873)
REM 
CELL 1.54180   15.00000   15.00000   15.00000   90.00000   90.00000   90.00000
LATT -1
SFAC C  
C      1  0.4943239419170  0.6850107794458  0.6268553144036 1.0
C      1  0.5605623575528  0.6830136030322  0.5570986278175 1.0
C      1  0.3953521922517  0.3689346225636  0.3856929658985 1.0
C      1  0.6230573894223  0.6139231570520  0.5784163433038 1.0
C      1  0.3987797262090  0.4354597417740  0.3140448644622 1.0
C      1  0.5458406917039  0.3972135226294  0.2606976880194 1.0
C      1  0.4084203171483  0.3377484034361  0.5428501141662 1.0
C      1  0.6655607468365  0.5856207442152  0.4980765305265 1.0
C      1  0.5763852754680  0.4670022257744  0.6557232705944 1.0
C      1  0.4691981657601  0.6609665513784  0.4235456157364 1.0
C      1  0.5516786643536  0.6809331952044  0.4602826011420 1.0
C      1  0.5887410900316  0.5624277625754  0.6541404685323 1.0
C      1  0.4986477423235  0.4522754444026  0.4971405631563 1.0
C      1  0.5172410156930  0.6162054978178  0.6926321225322 1.0
C      1  0.3544427824062  0.4879734737357  0.5676095118761 1.0
C      1  0.6089465537397  0.2720846950259  0.4957121274310 1.0
C      1  0.5205177189238  0.5481801223656  0.3106398435390 1.0
C      1  0.5185925763439  0.4445645931731  0.7253108164489 1.0
C      1  0.3656477732741  0.6105818983979  0.6912830562238 1.0
C      1  0.4000558796605  0.6823475964822  0.6258923194281 1.0
C      1  0.4551791974265  0.3752332437625  0.4590550316735 1.0
C      1  0.3496364666125  0.6443896302707  0.5557593377874 1.0
C      1  0.3278518529577  0.3982888715294  0.5320631381169 1.0
C      1  0.4606221430836  0.4886683460690  0.7668363129342 1.0
C      1  0.5602624132588  0.3125281360348  0.5670637953502 1.0
C      1  0.3696408085053  0.5722880992958  0.3844049297746 1.0
C      1  0.3373569928333  0.4863376734863  0.3678734096583 1.0
C      1  0.3234494913802  0.4102606150891  0.4360053444569 1.0
C      1  0.3253207018844  0.5677140072204  0.6150573338111 1.0
C      1  0.6569153001849  0.4218483749806  0.5114806434247 1.0
C      1  0.4540292318496  0.6063994870360  0.3469275818799 1.0
C      1  0.6678778003353  0.4815558601507  0.3789265191937 1.0
C      1  0.6148836486214  0.3600851393831  0.2883862154078 1.0
C      1  0.5782473051933  0.4152824799243  0.5708953079899 1.0
C      1  0.6207143332779  0.6242360635273  0.4223202593595 1.0
C      1  0.6597955040797  0.3836050293772  0.3666024680839 1.0
C      1  0.4406468836147  0.5752416394106  0.7373260187238 1.0
C      1  0.3960546941617  0.6130385861613  0.4740375301356 1.0
C      1  0.4709808615197  0.2899872074669  0.5853803677146 1.0
C      1  0.6561148947882  0.3430621095228  0.4539073162228 1.0
C      1  0.6903833329049  0.4992052584901  0.4723898161635 1.0
C      1  0.4837191153756  0.4630464149133  0.2780838006068 1.0
C      1  0.6096753522918  0.5554491224786  0.3522158265972 1.0
C      1  0.4286490728396  0.5197810739377  0.5133567296953 1.0
END
