TITL C-193723-9928-44 -2.907 3375.00 -466.68926431 0 0 60 (C1) n - 1
REM
REM Run started: at 2020.12.17 14:40:27 in /rds/project/t2_vol4/rds-t2-cs072/BORA/CARBON/AIRSS/Generating-Clusters/Str-Search/Higher-Symm/Only-C60
REM VASP from code version vasp.5.4.4.18Apr17-6-g9f103f2a35 (build Oct 11 2019 16:45:47) gamma-only
REM
REM
REM
REM
REM ./C.cell (5f7b7a0d59291d2373303da1f58b8d66)
REM AIRSS Version 0.9.1 bugfix July 2018 build 013d7b7c2542+ Fri, 06 Jul 2018 19:26:36 +0100
REM compiler GCC version 4.8.5 20150623 (Red Hat 4.8.5-39)
REM options -cpp -mtune=generic -march=x86-64 -g -O0
REM seed -1771201271 -1257689404 -685092348 1327422029 -1068659977 -1641428898 -1503435962 -1963293460 -120432036 414221459 184457121 539543245
REM
REM C.POTCAR (d86ddea03c3ceb6dc662c8ad6801f873)
REM 
CELL 1.54180   15.00000   15.00000   15.00000   90.00000   90.00000   90.00000
LATT -1
SFAC C  
C      1  0.2498989953816  0.4436707961146  0.4833008412082 1.0
C      1  0.1700926419449  0.4393142276478  0.4322979093529 1.0
C      1  0.1970457623353  0.5366980658853  0.4202393333571 1.0
C      1  0.1661961866704  0.6157906271215  0.4666371821196 1.0
C      1  0.1772911132433  0.5840475393662  0.5473607525587 1.0
C      1  0.2328381739534  0.5391503793350  0.5994422829725 1.0
C      1  0.2825182881580  0.4682334984896  0.5746934081017 1.0
C      1  0.5059082379950  0.6965112127103  0.2969267630410 1.0
C      1  0.5552994012417  0.7373005466572  0.5876877301516 1.0
C      1  0.5525203890327  0.6050971492599  0.7675516451402 1.0
C      1  0.5397386393617  0.3811295562858  0.7638338175014 1.0
C      1  0.5476740793445  0.2230090835588  0.5923751390740 1.0
C      1  0.5802567177295  0.2762566404695  0.3661130815299 1.0
C      1  0.5579113863748  0.4623997791322  0.2189798652895 1.0
C      1  0.4819655113055  0.7569868450019  0.5518307315669 1.0
C      1  0.4680898258258  0.6186255456206  0.7448443775522 1.0
C      1  0.4516118623292  0.3868176760135  0.7410204977810 1.0
C      1  0.4632532079109  0.2400171257291  0.5742252543640 1.0
C      1  0.4957095920906  0.2804127996558  0.3467445447289 1.0
C      1  0.4715451458020  0.4695660911478  0.2461303979371 1.0
C      1  0.4322832212824  0.7169439925660  0.3332814592726 1.0
C      1  0.3789051636779  0.4489357755942  0.6003033309093 1.0
C      1  0.4279851776432  0.3834751908350  0.5258832231163 1.0
C      1  0.4060853004893  0.3988666880501  0.4237554958753 1.0
C      1  0.3780213177864  0.4926203832347  0.3814265364293 1.0
C      1  0.4356129188709  0.5747338127426  0.4233000898740 1.0
C      1  0.4447054730793  0.6006664125861  0.5281762814899 1.0
C      1  0.4284026020431  0.5410740823078  0.6147398076946 1.0
C      1  0.6188463764983  0.4665296604974  0.2866044664503 1.0
C      1  0.5694834733173  0.6346962692557  0.3134284057528 1.0
C      1  0.6050842497286  0.6553364365538  0.6033726668809 1.0
C      1  0.5960412271037  0.5826755256245  0.6815911618456 1.0
C      1  0.5955958390482  0.4059419013909  0.7004362014161 1.0
C      1  0.5948444519066  0.3003533418559  0.5628962038167 1.0
C      1  0.6368519249483  0.3252627906797  0.4165862086122 1.0
C      1  0.5320681551738  0.5286056042345  0.6189352743514 1.0
C      1  0.5656163897756  0.4400720011152  0.6086714823581 1.0
C      1  0.5365022120416  0.3866940151938  0.5307629531878 1.0
C      1  0.5829891569814  0.4070031559156  0.4406593034867 1.0
C      1  0.5735177631595  0.4707632593818  0.3768266753478 1.0
C      1  0.5348913704630  0.5650590887072  0.3874343160089 1.0
C      1  0.5434415940782  0.5947202943015  0.5433021484128 1.0
C      1  0.4008718216934  0.5854674022490  0.7013916984689 1.0
C      1  0.3901928755611  0.4042659496342  0.6880239640522 1.0
C      1  0.3954718820050  0.2907427600526  0.5568957068550 1.0
C      1  0.4295916736402  0.3292361031644  0.3723168855996 1.0
C      1  0.3990237856425  0.4895715615094  0.2841178349981 1.0
C      1  0.4084676986464  0.6775068653368  0.4145946038142 1.0
C      1  0.4239550305306  0.6976107857390  0.5042276955387 1.0
C      1  0.6811323622049  0.5376143259872  0.6400930534135 1.0
C      1  0.6666049710877  0.4337844088695  0.6375240609507 1.0
C      1  0.6830727640265  0.3493466878347  0.5812406653162 1.0
C      1  0.6790207150592  0.3068545741339  0.5027850654297 1.0
C      1  0.6922945364462  0.5300348530040  0.3007678601611 1.0
C      1  0.6647430151558  0.6203836880205  0.3056998068828 1.0
C      1  0.6895185624427  0.6026777045031  0.5720618301375 1.0
C      1  0.2827996848134  0.5003598895025  0.4109383236453 1.0
C      1  0.5921727589226  0.5905184211287  0.4626932477056 1.0
C      1  0.6833672093314  0.5942688517381  0.4703723054302 1.0
C      1  0.7175917356632  0.5855145997654  0.3785176436829 1.0
END
