TITL C-194466-1201-27 -2.76 3375.00 -460.54883251 0 0 55 (C1) n - 1
REM
REM Run started: at 2020.11.27 11:53:35 in /rds/project/t2_vol4/rds-t2-cs072/BORA/CARBON/AIRSS/Generating-Clusters/Str-Search/Higher-Symm/C10-100
REM VASP from code version vasp.5.4.4.18Apr17-6-g9f103f2a35 (build Oct 11 2019 16:45:47) gamma-only
REM
REM
REM
REM
REM ./C.cell (f39ce9773e2efe3fa5bbdf770a4156b8)
REM AIRSS Version 0.9.1 bugfix July 2018 build 013d7b7c2542+ Fri, 06 Jul 2018 19:26:36 +0100
REM compiler GCC version 4.8.5 20150623 (Red Hat 4.8.5-39)
REM options -cpp -mtune=generic -march=x86-64 -g -O0
REM seed -1602383962 -250656751 708053633 1535562356 1583833032 900537773 -2057870156 675138299 -1117542272 -1395243510 1944142775 -1071085803
REM
REM C.POTCAR (d86ddea03c3ceb6dc662c8ad6801f873)
REM 
CELL 1.54180   15.00000   15.00000   15.00000   90.00000   90.00000   90.00000
LATT -1
SFAC C  
C      1  0.3058419584659  0.4397942662618  0.4555726277345 1.0
C      1  0.3688038083572  0.6802045340343  0.4484484514774 1.0
C      1  0.5663773247137  0.7313928123299  0.5100338395582 1.0
C      1  0.7090984048825  0.5456357701757  0.4513582433773 1.0
C      1  0.6178592421245  0.3071195272927  0.4486084825293 1.0
C      1  0.4173139094609  0.2224241690139  0.4074079374099 1.0
C      1  0.6866370050140  0.4496074024598  0.4580714661806 1.0
C      1  0.6517345100975  0.6923363632317  0.4794622602299 1.0
C      1  0.4238540548398  0.7521727035346  0.4283681525469 1.0
C      1  0.3027369414353  0.5371258025529  0.4553428634153 1.0
C      1  0.3741843008570  0.2966146927267  0.4437401060437 1.0
C      1  0.5802720116793  0.2306129392863  0.4119333689439 1.0
C      1  0.5287831085124  0.6944128125107  0.5918998121710 1.0
C      1  0.7470307246351  0.5798220848429  0.5308262014878 1.0
C      1  0.6094470394876  0.3391868848141  0.5397215864278 1.0
C      1  0.4389533674209  0.3178512578667  0.6026180331533 1.0
C      1  0.3085080939565  0.3953320194098  0.5433383464167 1.0
C      1  0.3654568867795  0.6549141053950  0.5420789670813 1.0
C      1  0.4371665429555  0.6610924929067  0.6053029982991 1.0
C      1  0.3066023842300  0.5791350243015  0.5438828004903 1.0
C      1  0.3716325414054  0.3207008010194  0.5378553313919 1.0
C      1  0.5406104336789  0.3305287258891  0.6022394351959 1.0
C      1  0.6648210003607  0.4180560635492  0.5471808322203 1.0
C      1  0.7122615514303  0.6705821849021  0.5473341418070 1.0
C      1  0.3695888317655  0.5345667424767  0.6880306783950 1.0
C      1  0.5860312277153  0.6422798970827  0.6496913589936 1.0
C      1  0.7172892253202  0.5501495608891  0.6182101505501 1.0
C      1  0.5786541859178  0.4789224841007  0.6756932405308 1.0
C      1  0.4348117180314  0.3803729238547  0.6776540175990 1.0
C      1  0.2947826338698  0.4384792995720  0.6239156056981 1.0
C      1  0.6772514566419  0.6382272457144  0.6310098101384 1.0
C      1  0.4434416728872  0.5885835516171  0.6731116963789 1.0
C      1  0.2966821667190  0.5339839364840  0.6235590076074 1.0
C      1  0.3638813889660  0.4359313814950  0.6939091690340 1.0
C      1  0.5293820268925  0.3981682775238  0.6711827434467 1.0
C      1  0.6620895359005  0.4754215464048  0.6239871881834 1.0
C      1  0.3671645274178  0.6022691739232  0.3036668825735 1.0
C      1  0.5322436357824  0.6396980060292  0.2992436786783 1.0
C      1  0.6481466764615  0.5416101805587  0.2720571416638 1.0
C      1  0.6264057990696  0.3884683563865  0.3063824793058 1.0
C      1  0.4629096869512  0.3523174383302  0.2835238403726 1.0
C      1  0.3449949984934  0.4552477148484  0.2554780603516 1.0
C      1  0.6185428528284  0.6143828250026  0.3231782600773 1.0
C      1  0.4503176699694  0.6399557346098  0.2851576444313 1.0
C      1  0.3294083229268  0.5363362865929  0.2466990887948 1.0
C      1  0.3771165680951  0.3824836516100  0.3034970925988 1.0
C      1  0.5464681860662  0.3461390627745  0.2833616444994 1.0
C      1  0.6598686488916  0.4614486638133  0.2556724379693 1.0
C      1  0.6556229627001  0.3793476074461  0.3975911053055 1.0
C      1  0.6610046919195  0.6226289812287  0.4094796480276 1.0
C      1  0.5006325465675  0.7668381440192  0.4560208609749 1.0
C      1  0.4993566474206  0.2036728257544  0.4287669994302 1.0
C      1  0.3421735220281  0.3714965600418  0.3937736060606 1.0
C      1  0.3358075640638  0.6083975566019  0.3947589581813 1.0
C      1  0.5382061749393  0.5667504429062  0.6850655185587 1.0
END
