TITL C-197371-4258-14 -2.736 3375.00 -475.48455981 0 0 60 (C3h) n - 1
REM
REM Run started: at 2020.11.28 11:14:17 in /rds/project/t2_vol4/rds-t2-cs072/BORA/CARBON/AIRSS/Generating-Clusters/Str-Search/Higher-Symm/C10-100
REM VASP from code version vasp.5.4.4.18Apr17-6-g9f103f2a35 (build Oct 11 2019 16:45:47) gamma-only
REM
REM
REM
REM
REM ./C.cell (f39ce9773e2efe3fa5bbdf770a4156b8)
REM AIRSS Version 0.9.1 bugfix July 2018 build 013d7b7c2542+ Fri, 06 Jul 2018 19:26:36 +0100
REM compiler GCC version 4.8.5 20150623 (Red Hat 4.8.5-39)
REM options -cpp -mtune=generic -march=x86-64 -g -O0
REM seed -1850641808 130643806 1673339108 1811908448 -456509656 -1090714368 -1799608402 381258623 2006317701 1307699577 121037824 -1213111084
REM
REM C.POTCAR (d86ddea03c3ceb6dc662c8ad6801f873)
REM 
CELL 1.54180   15.00000   15.00000   15.00000   90.00000   90.00000   90.00000
LATT -1
SFAC C  
C      1  0.4575677464182  0.6261087665781  0.7262307346720 1.0
C      1  0.6301118028591  0.4732665937804  0.7261067646489 1.0
C      1  0.4117632946109  0.4005455085966  0.7262760115666 1.0
C      1  0.4575677511475  0.6261087557276  0.2737692615752 1.0
C      1  0.6301117905035  0.4732665901943  0.2738931510208 1.0
C      1  0.4117632709408  0.4005454854640  0.2737240569946 1.0
C      1  0.4303082536195  0.3223654278990  0.6810191620106 1.0
C      1  0.3806187698676  0.6492209609135  0.6809497276357 1.0
C      1  0.6886404785216  0.5285944327880  0.6810958705259 1.0
C      1  0.4303082404040  0.3223654220685  0.3189809324626 1.0
C      1  0.3806187639789  0.6492209498575  0.3190502394589 1.0
C      1  0.6886404644886  0.5285944100350  0.3189040798443 1.0
C      1  0.4134848210770  0.3209038176923  0.5878185707843 1.0
C      1  0.3883563702917  0.6646175900791  0.5878099144058 1.0
C      1  0.6985898482133  0.5147284128880  0.5878701560534 1.0
C      1  0.4134848348279  0.3209037950725  0.4121815149192 1.0
C      1  0.3883563869964  0.6646175854900  0.4121900528640 1.0
C      1  0.6985898514363  0.5147284107421  0.4121297961283 1.0
C      1  0.5471237393893  0.6247085423883  0.3146485213814 1.0
C      1  0.5842689256137  0.3964528112027  0.3147515717336 1.0
C      1  0.3682603658692  0.4786804148862  0.3147074650366 1.0
C      1  0.5471237427016  0.6247085460353  0.6853514807442 1.0
C      1  0.5842689272651  0.3964528178580  0.6852483748430 1.0
C      1  0.3682603720695  0.4786804103752  0.6852925795977 1.0
C      1  0.5411725138698  0.5868522650484  0.5841175921693 1.0
C      1  0.5547245068815  0.4209585716023  0.5840565353250 1.0
C      1  0.4043405874998  0.4922166442203  0.5841195062257 1.0
C      1  0.5411725220654  0.5868522714267  0.4158824396548 1.0
C      1  0.5547245056353  0.4209585726662  0.4159434506018 1.0
C      1  0.4043405953188  0.4922166422544  0.4158805044218 1.0
C      1  0.4407901433460  0.5807418149483  0.5521558545530 1.0
C      1  0.5996304124266  0.5109930535484  0.5521715027274 1.0
C      1  0.4597579426453  0.4083499091919  0.5521463165752 1.0
C      1  0.4407901451128  0.5807418146429  0.4478441583131 1.0
C      1  0.5996304195342  0.5109930556090  0.4478284697392 1.0
C      1  0.4597579469702  0.4083499059049  0.4478537065749 1.0
C      1  0.3099459094579  0.4724254602623  0.3969807533649 1.0
C      1  0.5714912004474  0.6783391983161  0.3968786667646 1.0
C      1  0.6189146815551  0.3489324071193  0.3970337258767 1.0
C      1  0.3099459144573  0.4724254492648  0.6030192775064 1.0
C      1  0.5714911866390  0.6783392031540  0.6031213197971 1.0
C      1  0.6189146878960  0.3489323941585  0.6029662369688 1.0
C      1  0.4249489773290  0.7442269772974  0.4523648566228 1.0
C      1  0.7491399812550  0.4432247359591  0.4523409385156 1.0
C      1  0.3263573476764  0.3126649277984  0.4523928386138 1.0
C      1  0.4249489761009  0.7442269876037  0.5476351545770 1.0
C      1  0.7491399705943  0.4432247319597  0.5476590042428 1.0
C      1  0.3263573396159  0.3126649195361  0.5476072228468 1.0
C      1  0.2776270258187  0.4030488559842  0.5489204240353 1.0
C      1  0.5276025009235  0.7410702700849  0.5489388561004 1.0
C      1  0.6952456184860  0.3559644919537  0.5489560245674 1.0
C      1  0.2776270283934  0.4030488638472  0.4510796156989 1.0
C      1  0.5276024989403  0.7410702752095  0.4510611082489 1.0
C      1  0.6952456150259  0.3559644919796  0.4510439274599 1.0
C      1  0.5017652124055  0.3615901712761  0.2706810614203 1.0
C      1  0.3788113485741  0.5676010699389  0.2706813829879 1.0
C      1  0.6186396479254  0.5706062360499  0.2707464750223 1.0
C      1  0.5017652527002  0.3615901836334  0.7293190171642 1.0
C      1  0.3788113585009  0.5676010811675  0.7293185638316 1.0
C      1  0.6186396648646  0.5706062367697  0.7292535199767 1.0
END
