TITL C-194466-1201-38 -1.295 3375.00 -197.17701037 0 0 25 (D5h) n - 1
REM
REM Run started: at 2020.11.27 14:47:28 in /rds/project/t2_vol4/rds-t2-cs072/BORA/CARBON/AIRSS/Generating-Clusters/Str-Search/Higher-Symm/C10-100
REM VASP from code version vasp.5.4.4.18Apr17-6-g9f103f2a35 (build Oct 11 2019 16:45:47) gamma-only
REM
REM
REM
REM
REM ./C.cell (f39ce9773e2efe3fa5bbdf770a4156b8)
REM AIRSS Version 0.9.1 bugfix July 2018 build 013d7b7c2542+ Fri, 06 Jul 2018 19:26:36 +0100
REM compiler GCC version 4.8.5 20150623 (Red Hat 4.8.5-39)
REM options -cpp -mtune=generic -march=x86-64 -g -O0
REM seed -851007236 -2012745905 1079855057 1596921861 1729251981 1668377013 881258519 -2115389112 643992973 42524833 -950388162 -411463232
REM
REM C.POTCAR (d86ddea03c3ceb6dc662c8ad6801f873)
REM 
CELL 1.54180   15.00000   15.00000   15.00000   90.00000   90.00000   90.00000
LATT -1
SFAC C  
C      1  0.4843738841829  0.6268378049983  0.5832095182842 1.0
C      1  0.4162296992464  0.6272570105181  0.5110126597546 1.0
C      1  0.4637518991565  0.6271115614043  0.4237934952364 1.0
C      1  0.5613838253669  0.6268870694061  0.4419080031067 1.0
C      1  0.5742133651991  0.6268147396189  0.5406725319465 1.0
C      1  0.4841525367923  0.3637206142635  0.5828910233788 1.0
C      1  0.4163237027373  0.3634505449490  0.5103216673365 1.0
C      1  0.4643729061946  0.3633125990061  0.4232871291514 1.0
C      1  0.5619480286581  0.3633430576847  0.4419433528948 1.0
C      1  0.5743160431121  0.3635203626967  0.5408681266048 1.0
C      1  0.4308201799459  0.5769106411333  0.3560677139918 1.0
C      1  0.6154510637753  0.5766035134171  0.3899549661799 1.0
C      1  0.6397624068813  0.5763739835088  0.5767381057464 1.0
C      1  0.4698756432389  0.5768503149806  0.6571365931604 1.0
C      1  0.3418907621059  0.5765944818999  0.5199666737352 1.0
C      1  0.4318011585004  0.4137898346726  0.3555324469828 1.0
C      1  0.6161261119172  0.4140593810109  0.3903789785475 1.0
C      1  0.6395001736654  0.4143965770027  0.5770553231662 1.0
C      1  0.4694424182389  0.4137708881093  0.6567975249972 1.0
C      1  0.3421138975670  0.4143837720975  0.5189832911426 1.0
C      1  0.4658299454562  0.4952800131069  0.6840999774916 1.0
C      1  0.3136796752281  0.4954214519601  0.5244230209790 1.0
C      1  0.6370231385250  0.4953667038091  0.3715161797785 1.0
C      1  0.6653187825914  0.4953532428539  0.5906230628269 1.0
C      1  0.4202987517168  0.4953598358919  0.3308187335795 1.0
END
