TITL C-194466-1201-31 -1.425 3375.00 -222.00945215 0 0 28 (C1) n - 1
REM
REM Run started: at 2020.11.27 13:04:23 in /rds/project/t2_vol4/rds-t2-cs072/BORA/CARBON/AIRSS/Generating-Clusters/Str-Search/Higher-Symm/C10-100
REM VASP from code version vasp.5.4.4.18Apr17-6-g9f103f2a35 (build Oct 11 2019 16:45:47) gamma-only
REM
REM
REM
REM
REM ./C.cell (f39ce9773e2efe3fa5bbdf770a4156b8)
REM AIRSS Version 0.9.1 bugfix July 2018 build 013d7b7c2542+ Fri, 06 Jul 2018 19:26:36 +0100
REM compiler GCC version 4.8.5 20150623 (Red Hat 4.8.5-39)
REM options -cpp -mtune=generic -march=x86-64 -g -O0
REM seed -473756865 240447313 1179136921 2132436524 -998686673 -1359242864 -652482523 1769551052 -442695577 -1681227776 2082912408 -1292944824
REM
REM C.POTCAR (d86ddea03c3ceb6dc662c8ad6801f873)
REM 
CELL 1.54180   15.00000   15.00000   15.00000   90.00000   90.00000   90.00000
LATT -1
SFAC C  
C      1  0.4150933730683  0.4822999933842  0.3246798502847 1.0
C      1  0.4058553047773  0.3989571076746  0.3677117172333 1.0
C      1  0.4976298539689  0.3585089050120  0.3766756317861 1.0
C      1  0.5604050950930  0.4136800071262  0.3314464476968 1.0
C      1  0.6354837987176  0.4504391988831  0.3784857564691 1.0
C      1  0.6246718998117  0.5494139641811  0.3737254802154 1.0
C      1  0.5446944731961  0.5716871687901  0.3278449306223 1.0
C      1  0.4739200785566  0.6184644020694  0.3785534508966 1.0
C      1  0.3947589289727  0.5639158530281  0.3766811699732 1.0
C      1  0.5746606873963  0.6309515367462  0.4946758073354 1.0
C      1  0.5089766667683  0.6645341112598  0.4531959438346 1.0
C      1  0.3390004910699  0.5453835773643  0.4507035256893 1.0
C      1  0.3438987024454  0.4706286519931  0.4896754846073 1.0
C      1  0.3894856602170  0.3945687997591  0.4629911564037 1.0
C      1  0.4866898278700  0.3697432528112  0.4709055982648 1.0
C      1  0.5518282751967  0.4188125511630  0.5236144703716 1.0
C      1  0.6221725495464  0.4639327216231  0.4730206179781 1.0
C      1  0.6327147965426  0.5637222521884  0.4695230395795 1.0
C      1  0.3944088235573  0.4700865210059  0.8158587106008 1.0
C      1  0.4206196033600  0.4375307560924  0.7348808489171 1.0
C      1  0.4546403213363  0.4165479188026  0.6610561212895 1.0
C      1  0.5309825119114  0.4441734733358  0.6118099833143 1.0
C      1  0.5817211326878  0.5060788817191  0.6629244557751 1.0
C      1  0.6054053298779  0.5591336552440  0.7230511987446 1.0
C      1  0.5685291683021  0.5829894416738  0.8012082178885 1.0
C      1  0.5135734966034  0.5863711154005  0.8658181936013 1.0
C      1  0.4447479142591  0.5290264541294  0.8501163449011 1.0
C      1  0.5083176348898  0.4878430275394  0.2960593457260 1.0
END
