TITL C-1990-2551-15 -5.001 3375.00 -849.38853250 0 0 104 (C2) n - 1
REM
REM Run started: at 2020.12.31 20:34:27 in /gpfs/home/chem/mssmkc/CARBON/AIRSS/Generating-Clusters/Str-Search/Higher-Symm/C100-200
REM VASP from code version vasp.5.4.4.18Apr17-6-g9f103f2a35 (build Oct 11 2019 16:45:47) gamma-only
REM
REM
REM
REM
REM ./C.cell (533062f00bc710175b3da973d35f2034)
REM AIRSS Version 0.9.1 bugfix July 2018 build 013d7b7c2542+ Fri, 06 Jul 2018 19:26:36 +0100
REM compiler GCC version 6.3.0
REM options -cpp -iprefix /gpfs/warwick/csc/orac/software/Core/GCCcore/6.3.0/bin/../lib/gcc/x86_64-pc-linux-gnu/6.3.0/ -mtune=generic -march=x86-64 -g -O0
REM seed -1521578845 -363577249 -1595088140 -1025436458 -979456026 1087966822 -307706281 -1760342291 -428009036 849332365 1651406717 497114278
REM
REM C.POTCAR (d86ddea03c3ceb6dc662c8ad6801f873)
REM 
CELL 1.54180   15.00000   15.00000   15.00000   90.00000   90.00000   90.00000
LATT -1
SFAC C  
C      1  0.1888679877984  0.4701840718632  0.3903224574374 1.0
C      1  0.8111319564281  0.4701841547533  0.6096774839026 1.0
C      1  0.5927036244451  0.2637869115181  0.5799694196257 1.0
C      1  0.4072963724991  0.2637868913135  0.4200305166152 1.0
C      1  0.2507093663016  0.6482638675527  0.4179280025868 1.0
C      1  0.7492906160024  0.6482639487374  0.5820719775475 1.0
C      1  0.5637645994319  0.2743305930259  0.3954175732440 1.0
C      1  0.4362354122728  0.2743306113213  0.6045823712027 1.0
C      1  0.3858929222956  0.4031392956604  0.2720638308829 1.0
C      1  0.6141070506118  0.4031392446168  0.7279361424448 1.0
C      1  0.6437303829939  0.7669032041963  0.6075799769987 1.0
C      1  0.3562695279632  0.7669031600366  0.3924200537505 1.0
C      1  0.6425149416635  0.4239496694283  0.6351907100453 1.0
C      1  0.3574850598726  0.4239496786107  0.3648092619198 1.0
C      1  0.5757943991552  0.4939665434895  0.5943081932709 1.0
C      1  0.4242055979382  0.4939665391440  0.4056918059973 1.0
C      1  0.6480014517303  0.7215915925192  0.4633710723317 1.0
C      1  0.3519984947137  0.7215915855948  0.5366289745586 1.0
C      1  0.2374657203032  0.2759049476329  0.4832381288677 1.0
C      1  0.7625343310129  0.2759050241067  0.5167618876278 1.0
C      1  0.4303889346793  0.8103056932600  0.4349497864169 1.0
C      1  0.5696109981088  0.8103056978350  0.5650501928121 1.0
C      1  0.2607539903700  0.4186683415208  0.3940475679504 1.0
C      1  0.7392459697861  0.4186684225525  0.6059523725989 1.0
C      1  0.8098005375153  0.5995320771505  0.5240941539736 1.0
C      1  0.1901994305513  0.5995320080210  0.4759058586095 1.0
C      1  0.6177053612315  0.3323912136822  0.3315112126835 1.0
C      1  0.3822946664345  0.3323912151956  0.6684887500416 1.0
C      1  0.7474218648128  0.2150736306674  0.5714939034345 1.0
C      1  0.2525780657524  0.2150736054566  0.4285060031772 1.0
C      1  0.7393582761329  0.5143266199699  0.3981385072285 1.0
C      1  0.2606416935550  0.5143265382665  0.6018614283520 1.0
C      1  0.1465357143039  0.5300724356755  0.4334617139418 1.0
C      1  0.8534643356392  0.5300725495893  0.5665382686522 1.0
C      1  0.6202656553525  0.4726787554110  0.4587122934816 1.0
C      1  0.3797342828178  0.4726787696548  0.5412876134104 1.0
C      1  0.5514802921803  0.4325554799055  0.5167666440303 1.0
C      1  0.4485196800434  0.4325554651497  0.4832333511484 1.0
C      1  0.5727446747946  0.4568812549731  0.2256175841855 1.0
C      1  0.4272553759518  0.4568812550225  0.7743824121235 1.0
C      1  0.2608788147622  0.6422602580239  0.7234125491059 1.0
C      1  0.7391211044923  0.6422603111199  0.2765875657093 1.0
C      1  0.3083417540412  0.3856706644163  0.6487204153020 1.0
C      1  0.6916582382379  0.3856706904085  0.3512795419528 1.0
C      1  0.4714300432741  0.3279424104250  0.2746722517474 1.0
C      1  0.5285699827799  0.3279423900976  0.7253276795591 1.0
C      1  0.4534818666875  0.2432999398890  0.5087514084609 1.0
C      1  0.5465181232874  0.2432999412744  0.4912485463199 1.0
C      1  0.2014225309156  0.5928221095342  0.5770644201369 1.0
C      1  0.7985774210867  0.5928221751363  0.4229356246454 1.0
C      1  0.6414380797155  0.7079287227551  0.6796317416672 1.0
C      1  0.3585618660341  0.7079287677645  0.3203682961479 1.0
C      1  0.2924407556988  0.4224199255617  0.5582996944766 1.0
C      1  0.7075591861694  0.4224199344311  0.4417002521536 1.0
C      1  0.4772808386417  0.5938571221601  0.8290684960450 1.0
C      1  0.5227193615035  0.5938572718406  0.1709314993896 1.0
C      1  0.5456626052065  0.5810391786825  0.6114026436627 1.0
C      1  0.4543374180258  0.5810391833589  0.3885974335855 1.0
C      1  0.4394492660090  0.3688972350037  0.7379332926682 1.0
C      1  0.5605507655572  0.3688972551614  0.2620666966005 1.0
C      1  0.4876389066134  0.6243732426800  0.5457495553317 1.0
C      1  0.5123610548927  0.6243732656530  0.4542504373088 1.0
C      1  0.3512248736367  0.5543858334473  0.5708695016805 1.0
C      1  0.6487750132814  0.5543858571973  0.4291304042244 1.0
C      1  0.3275864956648  0.2500353661881  0.2828356804990 1.0
C      1  0.6724134774585  0.2500353898197  0.7171642569032 1.0
C      1  0.5985472141833  0.4911127538940  0.7705885232597 1.0
C      1  0.4014528274866  0.4911128728637  0.2294115151140 1.0
C      1  0.3908972411440  0.6385869038658  0.5645978036914 1.0
C      1  0.6091027014170  0.6385869616677  0.4354021828409 1.0
C      1  0.5955723177959  0.6333440841659  0.1804172810354 1.0
C      1  0.4044273761269  0.6333441427350  0.8195826450554 1.0
C      1  0.3530352663626  0.5691649045183  0.2649871304056 1.0
C      1  0.6469656660903  0.5691647102786  0.7350132686545 1.0
C      1  0.2925201289171  0.6316639046170  0.3248277977066 1.0
C      1  0.7074798353091  0.6316638604169  0.6751722325578 1.0
C      1  0.3821355657960  0.3590738568115  0.4400102641072 1.0
C      1  0.6178644202825  0.3590738599859  0.5599897319032 1.0
C      1  0.7133801771132  0.4666917015087  0.3085795666696 1.0
C      1  0.2866198154634  0.4666916559600  0.6914204121024 1.0
C      1  0.3292340999155  0.6028035664539  0.7724314186384 1.0
C      1  0.6707658571547  0.6028036217600  0.2275686256417 1.0
C      1  0.4099461744255  0.6279038416503  0.3149462968151 1.0
C      1  0.5900541825465  0.6279035950650  0.6850540225578 1.0
C      1  0.4812022366791  0.2771704613168  0.3575168976939 1.0
C      1  0.5187977756115  0.2771705025925  0.6424830152795 1.0
C      1  0.7010395772983  0.7215213314479  0.5449094641411 1.0
C      1  0.2989603403302  0.7215212966251  0.4550905766379 1.0
C      1  0.4830761779895  0.8106061124609  0.5933285276468 1.0
C      1  0.5169237716144  0.8106061337658  0.4066715051454 1.0
C      1  0.3258863100547  0.2214494352555  0.3684482480628 1.0
C      1  0.6741136716433  0.2214494550071  0.6315517135857 1.0
C      1  0.2792959844984  0.3652025041199  0.4783177656075 1.0
C      1  0.7207039604965  0.3652025436934  0.5216822304350 1.0
C      1  0.6565162492043  0.5047245173082  0.2436300680826 1.0
C      1  0.3434837328279  0.5047244919130  0.7563699130427 1.0
C      1  0.3781247790647  0.3104738807297  0.2411266940951 1.0
C      1  0.6218752072663  0.3104738706754  0.7588732682047 1.0
C      1  0.4157495242893  0.7956953768717  0.5343109465044 1.0
C      1  0.5842504021273  0.7956953508548  0.4656890955741 1.0
C      1  0.2123648716290  0.6432835115924  0.6539753339779 1.0
C      1  0.7876350915083  0.6432835962589  0.3460246598570 1.0
C      1  0.4912593053912  0.5100891863908  0.1986388095505 1.0
C      1  0.5087407038252  0.5100892367908  0.8013612037245 1.0
END
