TITL C-194466-1201-32 -4.616 3375.00 -800.32923446 0 0 98 (C1) n - 1
REM
REM Run started: at 2020.11.27 13:32:23 in /rds/project/t2_vol4/rds-t2-cs072/BORA/CARBON/AIRSS/Generating-Clusters/Str-Search/Higher-Symm/C10-100
REM VASP from code version vasp.5.4.4.18Apr17-6-g9f103f2a35 (build Oct 11 2019 16:45:47) gamma-only
REM
REM
REM
REM
REM ./C.cell (f39ce9773e2efe3fa5bbdf770a4156b8)
REM AIRSS Version 0.9.1 bugfix July 2018 build 013d7b7c2542+ Fri, 06 Jul 2018 19:26:36 +0100
REM compiler GCC version 4.8.5 20150623 (Red Hat 4.8.5-39)
REM options -cpp -mtune=generic -march=x86-64 -g -O0
REM seed -1040678168 1842783412 2092874915 322996313 263065381 519544818 792261431 -141176395 -281713095 1733805443 1374032576 -163320188
REM
REM C.POTCAR (d86ddea03c3ceb6dc662c8ad6801f873)
REM 
CELL 1.54180   15.00000   15.00000   15.00000   90.00000   90.00000   90.00000
LATT -1
SFAC C  
C      1  0.6427985939547  0.7486232597246  0.6369393318128 1.0
C      1  0.7708834038079  0.3512460293836  0.5939541983604 1.0
C      1  0.5121786215582  0.7796359444778  0.5620178184320 1.0
C      1  0.6787020760715  0.5954012626924  0.7191575288762 1.0
C      1  0.4034891302170  0.7269212861975  0.3276395521670 1.0
C      1  0.5412433821391  0.2354932583795  0.3921724983001 1.0
C      1  0.4057488456153  0.4978456641698  0.2360809544743 1.0
C      1  0.3675496895421  0.7248821614481  0.5666209658793 1.0
C      1  0.6663580946730  0.4984260254423  0.7330319448061 1.0
C      1  0.1746471607928  0.4409475880613  0.3838761125454 1.0
C      1  0.7729940983532  0.5223632813109  0.5720092760442 1.0
C      1  0.4612652432087  0.3997129320651  0.5328969705728 1.0
C      1  0.4916272305534  0.5291887957977  0.2153955874425 1.0
C      1  0.5761174721421  0.4880804698439  0.7760404881971 1.0
C      1  0.4217727154539  0.4486397289345  0.6117815706673 1.0
C      1  0.4822732155931  0.3538686966740  0.2672427633574 1.0
C      1  0.5749326540569  0.7207250600600  0.6980132605578 1.0
C      1  0.2927494291115  0.6695562170575  0.5451118161915 1.0
C      1  0.4241474246253  0.6042195968103  0.6555286920666 1.0
C      1  0.5744795361591  0.4849547651355  0.2204083248644 1.0
C      1  0.4774281791379  0.2766682478665  0.3234340641301 1.0
C      1  0.3972883909599  0.5452835864973  0.5833870223991 1.0
C      1  0.3418042986719  0.2344970409674  0.5633393264079 1.0
C      1  0.6734178227993  0.6314056391008  0.3972620211767 1.0
C      1  0.6289572217957  0.3718038820143  0.3246589686131 1.0
C      1  0.6387625278412  0.5590726436244  0.2486179631479 1.0
C      1  0.4677430496351  0.3562205855070  0.7327589009159 1.0
C      1  0.4015603409757  0.4092961947426  0.2710964409736 1.0
C      1  0.6066564402034  0.7885261021725  0.5543152498626 1.0
C      1  0.2480216305046  0.6217657552011  0.6083253121762 1.0
C      1  0.3457104183309  0.3936332658410  0.3469966372701 1.0
C      1  0.7016931670472  0.4898653616554  0.3919865276620 1.0
C      1  0.5481491934973  0.5748129693208  0.5143875819261 1.0
C      1  0.7339007950288  0.3103878917493  0.5172249676672 1.0
C      1  0.3472653349979  0.5613841832160  0.3729167818838 1.0
C      1  0.6923640054249  0.5640318694833  0.3268654754313 1.0
C      1  0.6446404863540  0.5408895382434  0.6383887168535 1.0
C      1  0.4514823530135  0.5575806414806  0.4988991834377 1.0
C      1  0.2983719961140  0.3630440955224  0.6676396857365 1.0
C      1  0.4457502559299  0.1926224976753  0.4274498185596 1.0
C      1  0.3212040162308  0.3031488596550  0.3740369753746 1.0
C      1  0.4077941028369  0.7049207850647  0.6571962826307 1.0
C      1  0.2647062222869  0.5733536777018  0.3198135945614 1.0
C      1  0.4248314777382  0.6128598499309  0.4181234004303 1.0
C      1  0.2470510388225  0.3050916074883  0.4278766914307 1.0
C      1  0.4793860514092  0.3025865746506  0.5235958198019 1.0
C      1  0.5397406527122  0.4024931937478  0.7609701402171 1.0
C      1  0.6109232749316  0.4427978408167  0.3839064951390 1.0
C      1  0.7003035755334  0.6936240234258  0.5861785884706 1.0
C      1  0.6261064295138  0.3132637624774  0.6358843536327 1.0
C      1  0.7504985117182  0.3343606769749  0.4251054225589 1.0
C      1  0.2024797509863  0.5046153780040  0.3358947626306 1.0
C      1  0.3037748979743  0.5681204848184  0.5461076483021 1.0
C      1  0.5251547042815  0.4873973579358  0.3893198202770 1.0
C      1  0.4494071654935  0.4636053629436  0.4537089515693 1.0
C      1  0.6689067734761  0.7577176730579  0.3311628863113 1.0
C      1  0.1981854668044  0.3779053095783  0.4539267699413 1.0
C      1  0.3068716329074  0.2855891825507  0.6181463331979 1.0
C      1  0.4088770036856  0.6603421325452  0.2656831263812 1.0
C      1  0.5638896930190  0.2829894440533  0.4847304568641 1.0
C      1  0.2766026736200  0.5108339737073  0.7083777277968 1.0
C      1  0.3502752152724  0.5750504977604  0.2681181268965 1.0
C      1  0.3865440730632  0.4047107750255  0.7017759700642 1.0
C      1  0.3969942510861  0.2411666134599  0.3585223933347 1.0
C      1  0.3609389505497  0.4896768330044  0.7469802965667 1.0
C      1  0.2277116914215  0.4322963040381  0.5389957965271 1.0
C      1  0.5105273295429  0.5864077538900  0.3659506260648 1.0
C      1  0.3493370137799  0.4690268843439  0.4138330158366 1.0
C      1  0.5855004665417  0.6088269141947  0.4353732062536 1.0
C      1  0.5213724910336  0.4393368401788  0.6044826684698 1.0
C      1  0.5680940276940  0.3924443817869  0.2492955320354 1.0
C      1  0.5914374723611  0.6398930942995  0.7459365969462 1.0
C      1  0.7078487214011  0.3443847351388  0.6688704359453 1.0
C      1  0.5006550036609  0.6186860482220  0.2588149463059 1.0
C      1  0.7319575988242  0.4293860391848  0.7069707798135 1.0
C      1  0.6385976874273  0.2216521822524  0.3794138941071 1.0
C      1  0.4200489484009  0.2302017519225  0.5127577937350 1.0
C      1  0.4955083623520  0.7498372874492  0.6550150683975 1.0
C      1  0.5476306043207  0.3637967757360  0.6692545389878 1.0
C      1  0.4206867727297  0.7157132497086  0.4153648764083 1.0
C      1  0.2698809200588  0.6057674474660  0.6986275033700 1.0
C      1  0.4322766476608  0.7560184338386  0.5072041761906 1.0
C      1  0.5935066562892  0.6461270886538  0.2341982743001 1.0
C      1  0.6399373123526  0.2897381335203  0.5420473324094 1.0
C      1  0.2440592090425  0.4355609874760  0.6448504985315 1.0
C      1  0.6872285280474  0.3000084741972  0.3594420231436 1.0
C      1  0.7712351934570  0.4278143266897  0.4233240286281 1.0
C      1  0.5285725967795  0.5714569913214  0.7765869679917 1.0
C      1  0.3574007700362  0.6472161016815  0.7245405019530 1.0
C      1  0.6341132705417  0.7204820705308  0.2631797716495 1.0
C      1  0.7221090398740  0.6030339711858  0.6192448634224 1.0
C      1  0.2845560611308  0.4882422353174  0.4945046057924 1.0
C      1  0.5741368434052  0.5204854681499  0.5868578046220 1.0
C      1  0.4246676305598  0.5712164978446  0.7506633855256 1.0
C      1  0.7855229319024  0.4433324664454  0.6250541629675 1.0
C      1  0.7612413513665  0.5004449773463  0.4795638453256 1.0
C      1  0.6949527616447  0.7235926395654  0.4148919162889 1.0
C      1  0.6793146525142  0.7458251604974  0.5038751258261 1.0
END
