TITL C-1990-2551-3 -7.065 3375.00 -1185.82099070 0 0 147 (C1) n - 1
REM
REM Run started: at 2020.12.31 07:31:27 in /gpfs/home/chem/mssmkc/CARBON/AIRSS/Generating-Clusters/Str-Search/Higher-Symm/C100-200
REM VASP from code version vasp.5.4.4.18Apr17-6-g9f103f2a35 (build Oct 11 2019 16:45:47) gamma-only
REM
REM
REM
REM
REM ./C.cell (533062f00bc710175b3da973d35f2034)
REM AIRSS Version 0.9.1 bugfix July 2018 build 013d7b7c2542+ Fri, 06 Jul 2018 19:26:36 +0100
REM compiler GCC version 6.3.0
REM options -cpp -iprefix /gpfs/warwick/csc/orac/software/Core/GCCcore/6.3.0/bin/../lib/gcc/x86_64-pc-linux-gnu/6.3.0/ -mtune=generic -march=x86-64 -g -O0
REM seed 1472546066 -1694444001 254948613 1341619766 -1462428401 -1488261920 -881049029 474420336 -1224308800 -1508959490 -1490153234 319434281
REM
REM C.POTCAR (d86ddea03c3ceb6dc662c8ad6801f873)
REM 
CELL 1.54180   15.00000   15.00000   15.00000   90.00000   90.00000   90.00000
LATT -1
SFAC C  
C      1  0.5303926835458  0.7970929560119  0.2723568759967 1.0
C      1  0.2574906757256  0.3878642715729  0.2623014594715 1.0
C      1  0.6860198221566  0.4030348886452  0.1719773080879 1.0
C      1  0.5488651136545  0.7970988394097  0.7315412686982 1.0
C      1  0.2374867739878  0.3920855682505  0.7350310814951 1.0
C      1  0.6905798831183  0.3855428798893  0.8187380389503 1.0
C      1  0.1826923374849  0.5519518491627  0.6896005507790 1.0
C      1  0.5862319893554  0.1592279313854  0.6919277672467 1.0
C      1  0.7125786474228  0.7507999740004  0.6845406332993 1.0
C      1  0.2003089720422  0.5393656662025  0.3090303156197 1.0
C      1  0.5922216774441  0.1760224496945  0.3245999560655 1.0
C      1  0.6904768598642  0.7667681813615  0.3041746081236 1.0
C      1  0.6156323404618  0.4764476290147  0.7310276941754 1.0
C      1  0.4677286892773  0.6240745914550  0.7384378124974 1.0
C      1  0.4241713624626  0.4156104649171  0.7448448828666 1.0
C      1  0.6210825609111  0.4882473361281  0.2748216855260 1.0
C      1  0.4530447602492  0.6436859329932  0.2835236126309 1.0
C      1  0.4302439734283  0.3997552138593  0.2770796255120 1.0
C      1  0.2997325610843  0.7664206579161  0.3216423950905 1.0
C      1  0.3899944921956  0.1939958272227  0.3164336543363 1.0
C      1  0.7965268059087  0.5715896811391  0.2820975648714 1.0
C      1  0.3125111064245  0.7506384664305  0.6859884323805 1.0
C      1  0.3886906688062  0.2046690340990  0.6881873122125 1.0
C      1  0.7904883762370  0.5412032948333  0.6790127215752 1.0
C      1  0.1897917109856  0.4657688272311  0.7119879157661 1.0
C      1  0.6248873185925  0.2353843977135  0.6938918580260 1.0
C      1  0.6370712945289  0.7936791483618  0.7088340269674 1.0
C      1  0.1996490465081  0.4587059233680  0.2783683297522 1.0
C      1  0.6410044730331  0.2452071647663  0.3188007326163 1.0
C      1  0.6218648418635  0.8104659156852  0.2764030006650 1.0
C      1  0.7688364304990  0.6599022631008  0.5375696592079 1.0
C      1  0.2253445968198  0.6539312961964  0.5499651927136 1.0
C      1  0.4919629264803  0.1373274320184  0.5534742856124 1.0
C      1  0.7672159726619  0.6687503434040  0.4359013021393 1.0
C      1  0.2280782038520  0.6548109514802  0.4502790266008 1.0
C      1  0.4916569542366  0.1394280163266  0.4566720409497 1.0
C      1  0.7831916327292  0.4226850995822  0.3340628866900 1.0
C      1  0.4222336859416  0.8394331043985  0.3908385504136 1.0
C      1  0.2614667818245  0.2654753407158  0.3754508424114 1.0
C      1  0.7770835213894  0.3881349986968  0.6347455172875 1.0
C      1  0.4333556828286  0.8232336423933  0.6148122390446 1.0
C      1  0.2654674589112  0.2750552040794  0.6193300233140 1.0
C      1  0.5780731425966  0.1408214870009  0.4108076145331 1.0
C      1  0.7249800624739  0.7484211384908  0.3921451041481 1.0
C      1  0.1919838896546  0.5763790333929  0.3979993153698 1.0
C      1  0.5759796543461  0.1332381692692  0.6020836891756 1.0
C      1  0.7333524843415  0.7387099558904  0.5907252502643 1.0
C      1  0.1809534843082  0.5785762428610  0.5973920467815 1.0
C      1  0.2417012799756  0.3454454185150  0.4411070328530 1.0
C      1  0.7552470822726  0.3026935914450  0.4616127872784 1.0
C      1  0.5047471076945  0.8166097472429  0.4491341984338 1.0
C      1  0.2397597485531  0.3471556630172  0.5506235961262 1.0
C      1  0.7570024183976  0.3047439868670  0.5627537480817 1.0
C      1  0.5102051056331  0.8120802106123  0.5521135548400 1.0
C      1  0.5063830113761  0.7224289084187  0.4128365217756 1.0
C      1  0.3248288846866  0.3948454432252  0.4061272985225 1.0
C      1  0.7214691253551  0.3759068877000  0.3996293311881 1.0
C      1  0.5401279331913  0.7208172411537  0.5848189011300 1.0
C      1  0.3037134321666  0.4184851745896  0.5856423278325 1.0
C      1  0.6846959455285  0.3610205897820  0.5960024988080 1.0
C      1  0.3445337440930  0.5383870310040  0.1980275966632 1.0
C      1  0.5982205568471  0.3577452385988  0.1947690846734 1.0
C      1  0.5849113637083  0.6364142595596  0.1859504093096 1.0
C      1  0.3278886521911  0.5402125403761  0.8068150345438 1.0
C      1  0.5918975616365  0.3494214380770  0.8110273478872 1.0
C      1  0.6101872918756  0.6304777299980  0.8114111372744 1.0
C      1  0.3386509627398  0.4171351018262  0.3127332573456 1.0
C      1  0.6553274484882  0.3313948687387  0.3389465321069 1.0
C      1  0.5184299303018  0.7099342279436  0.3190314597274 1.0
C      1  0.2930827269399  0.4496015467322  0.6726393428154 1.0
C      1  0.6317993348268  0.3196736934347  0.6649091256933 1.0
C      1  0.5715702163427  0.7168185828404  0.6721767096747 1.0
C      1  0.3527490324226  0.6143821974381  0.8367489615339 1.0
C      1  0.5090965258619  0.3256644024016  0.8379664163238 1.0
C      1  0.6381545868598  0.5651021839139  0.8544661321880 1.0
C      1  0.3478801484245  0.6191877048369  0.1743323026138 1.0
C      1  0.5189359722985  0.3226042722265  0.1731091603300 1.0
C      1  0.6125275946720  0.5719718591862  0.1409969589939 1.0
C      1  0.6023855034237  0.8585061056631  0.5453134460873 1.0
C      1  0.1546995500481  0.4050874353886  0.5402873753380 1.0
C      1  0.7405583953422  0.2011986099056  0.5607263282025 1.0
C      1  0.5990728666077  0.8621128866190  0.4514571530811 1.0
C      1  0.1570523960668  0.4054135414664  0.4471152304463 1.0
C      1  0.7359704969447  0.2109195424781  0.4630196052232 1.0
C      1  0.4229346113976  0.5742001230586  0.4305265153023 1.0
C      1  0.4917774139184  0.3902307419552  0.4309864277076 1.0
C      1  0.6192799208190  0.5333418930836  0.4262771473227 1.0
C      1  0.4419250537530  0.5762567330744  0.5887908489564 1.0
C      1  0.4760707592664  0.4029065638394  0.5872299834921 1.0
C      1  0.6083950039699  0.5184273739353  0.5823583976171 1.0
C      1  0.5614309676340  0.6331292824132  0.2792855285744 1.0
C      1  0.3800564806041  0.4992796082615  0.2782436439818 1.0
C      1  0.5946825458974  0.3933584191660  0.2935001897792 1.0
C      1  0.5675377779740  0.6323019184637  0.7220423033276 1.0
C      1  0.3633912685124  0.4952833503458  0.7260711109632 1.0
C      1  0.5801427791915  0.3843661222545  0.7156829929774 1.0
C      1  0.7598373122045  0.4258566381161  0.2375334197599 1.0
C      1  0.4387709378116  0.8284990043096  0.2949692043517 1.0
C      1  0.2780300786943  0.2933049318985  0.2825783211466 1.0
C      1  0.7574420470339  0.3994673625829  0.7418787983123 1.0
C      1  0.4545896534385  0.8140943133199  0.7090552273481 1.0
C      1  0.2746231287780  0.3037661656554  0.7132625099004 1.0
C      1  0.4152867958574  0.5691650756672  0.3373058846560 1.0
C      1  0.5066895734235  0.3925418725698  0.3391790157148 1.0
C      1  0.6015125559418  0.5566708165434  0.3318292586605 1.0
C      1  0.4242941326430  0.5644512097249  0.6805431187400 1.0
C      1  0.4894856142505  0.4002119904713  0.6795062843000 1.0
C      1  0.5966115876020  0.5440153964863  0.6738705053972 1.0
C      1  0.3599096755476  0.2700140925534  0.7517476550260 1.0
C      1  0.7644507605769  0.4944187330227  0.7561642534251 1.0
C      1  0.3837688195539  0.7615670248025  0.7515150883938 1.0
C      1  0.3674795106463  0.2578066990754  0.2509162567574 1.0
C      1  0.7646518961410  0.5206152676190  0.2105469413031 1.0
C      1  0.3669266822751  0.7756399432016  0.2536183528141 1.0
C      1  0.3354568846861  0.8004710027290  0.4042961833525 1.0
C      1  0.3293405191839  0.2008685671962  0.3921293870892 1.0
C      1  0.8128341365498  0.5095827509617  0.3550756031818 1.0
C      1  0.3473099190852  0.7837299669150  0.6026822892068 1.0
C      1  0.3333780235517  0.2112550514604  0.6078946285670 1.0
C      1  0.8033728220934  0.4825357364162  0.6064809513227 1.0
C      1  0.3902516087840  0.4300438687569  0.5437566326803 1.0
C      1  0.6332853873630  0.4277936465988  0.5408054759668 1.0
C      1  0.5096601034974  0.6383359608026  0.5445568026346 1.0
C      1  0.3992488285369  0.3925521274671  0.4556071354328 1.0
C      1  0.6672309259765  0.4527402502785  0.4497155860401 1.0
C      1  0.4695773625701  0.6535840918461  0.4581073402782 1.0
C      1  0.6587896750035  0.1444635703074  0.5543189582083 1.0
C      1  0.6914641662207  0.8071165044696  0.5410620246385 1.0
C      1  0.1514447411911  0.5080831586975  0.5423154677890 1.0
C      1  0.6580549093250  0.1466281330693  0.4608627707153 1.0
C      1  0.6877965438168  0.8128456452263  0.4484882549023 1.0
C      1  0.1551673997360  0.5074509857861  0.4498639496855 1.0
C      1  0.4359359940709  0.3219773444799  0.2131831519550 1.0
C      1  0.6691914400037  0.5033194410909  0.1798128254211 1.0
C      1  0.3919778308401  0.6882581130227  0.2169897754810 1.0
C      1  0.4243813300005  0.3319314813860  0.7991470050675 1.0
C      1  0.6794495126338  0.4877818518552  0.8110525056980 1.0
C      1  0.4067115083063  0.6783319197123  0.7949237152472 1.0
C      1  0.7901274265598  0.5778861806434  0.5894064081815 1.0
C      1  0.2786689685124  0.7191008435037  0.6023260980507 1.0
C      1  0.4170519311417  0.1700413530878  0.6059587959761 1.0
C      1  0.7955698419043  0.6001784888140  0.3736639463564 1.0
C      1  0.2733770298042  0.7284487986249  0.4039828064262 1.0
C      1  0.4155707583970  0.1654634182505  0.4027474175690 1.0
C      1  0.4050730788238  0.5285363069429  0.5176643807298 1.0
C      1  0.5388684238822  0.3921001656237  0.5181565998403 1.0
C      1  0.5862535041408  0.5730563612663  0.5126546273944 1.0
END
