TITL C-194466-1201-20 -3.359 3375.00 -584.02050810 0 0 71 (C1) n - 1
REM
REM Run started: at 2020.11.27 09:54:10 in /rds/project/t2_vol4/rds-t2-cs072/BORA/CARBON/AIRSS/Generating-Clusters/Str-Search/Higher-Symm/C10-100
REM VASP from code version vasp.5.4.4.18Apr17-6-g9f103f2a35 (build Oct 11 2019 16:45:47) gamma-only
REM
REM
REM
REM
REM ./C.cell (f39ce9773e2efe3fa5bbdf770a4156b8)
REM AIRSS Version 0.9.1 bugfix July 2018 build 013d7b7c2542+ Fri, 06 Jul 2018 19:26:36 +0100
REM compiler GCC version 4.8.5 20150623 (Red Hat 4.8.5-39)
REM options -cpp -mtune=generic -march=x86-64 -g -O0
REM seed -1265799408 1039718435 1165106901 -262774771 -2138423895 -520879464 -892437668 1125821511 860758846 -56231771 2081602164 -1006260502
REM
REM C.POTCAR (d86ddea03c3ceb6dc662c8ad6801f873)
REM 
CELL 1.54180   15.00000   15.00000   15.00000   90.00000   90.00000   90.00000
LATT -1
SFAC C  
C      1  0.3525204564054  0.4423711685372  0.3426516472548 1.0
C      1  0.3555977132376  0.6685540921992  0.5260704199122 1.0
C      1  0.3564107758327  0.3951080454592  0.6307332572862 1.0
C      1  0.4946364580128  0.6471913643062  0.2932015128114 1.0
C      1  0.4958044271384  0.6027230897164  0.7315157907951 1.0
C      1  0.4888033441596  0.2483328056902  0.4658238447780 1.0
C      1  0.5115028305098  0.4455487544271  0.4198972073700 1.0
C      1  0.5112329585773  0.5884635792173  0.4946985484570 1.0
C      1  0.5121999934576  0.4528358896217  0.5795491829050 1.0
C      1  0.4002900045397  0.2694411589029  0.5066369624478 1.0
C      1  0.4049178040446  0.6062380679820  0.2898984855958 1.0
C      1  0.4053880426563  0.6268246017975  0.6986197451237 1.0
C      1  0.2844074849728  0.5391211838913  0.6560043389548 1.0
C      1  0.2773089445698  0.3526423656645  0.4541976880982 1.0
C      1  0.2825069863364  0.6167534106464  0.3897725669294 1.0
C      1  0.3410663848216  0.5578577213707  0.7264645430305 1.0
C      1  0.3316686962360  0.2808159427533  0.4372903638032 1.0
C      1  0.3410608057291  0.6644154850284  0.3373400139856 1.0
C      1  0.3945100913184  0.4898901369530  0.7649433348654 1.0
C      1  0.3814263087256  0.2788536127021  0.3573525335175 1.0
C      1  0.3958719752671  0.7317256085499  0.3754391699685 1.0
C      1  0.2999596767633  0.4706595382702  0.5944865330843 1.0
C      1  0.2963145728365  0.4391147208610  0.4257046311637 1.0
C      1  0.2986682374619  0.6002219186728  0.4804926492990 1.0
C      1  0.5011573582108  0.6425800581058  0.5823050943849 1.0
C      1  0.5020216955817  0.3508343965300  0.5830626194249 1.0
C      1  0.5037568520606  0.4945307316954  0.3301233936833 1.0
C      1  0.5303471612646  0.2729305968055  0.3009468389223 1.0
C      1  0.5518503164195  0.7516093517340  0.4117250069561 1.0
C      1  0.5502044707968  0.4477930321821  0.7622360712103 1.0
C      1  0.5660961864776  0.4972378510590  0.6380670624804 1.0
C      1  0.5728105662639  0.3739619556925  0.4295982704540 1.0
C      1  0.5644597704191  0.6172945583180  0.4275010889937 1.0
C      1  0.7706343539959  0.4310350629217  0.5908963280285 1.0
C      1  0.7579305984423  0.5018757316408  0.4344964889889 1.0
C      1  0.7482593113516  0.5768926352739  0.5003963264428 1.0
C      1  0.4014959316339  0.7351406354288  0.4705611227642 1.0
C      1  0.4005912338363  0.4070123854925  0.7177113155129 1.0
C      1  0.3927259211977  0.3603908247039  0.3092442554286 1.0
C      1  0.6505335536403  0.6363537924394  0.6117109686696 1.0
C      1  0.6518331734101  0.3253602748857  0.5647492838650 1.0
C      1  0.6530630508215  0.5356001185708  0.3109715712092 1.0
C      1  0.4926945896099  0.3742435388732  0.7364912713758 1.0
C      1  0.4861220644210  0.3509889946179  0.2692507460269 1.0
C      1  0.4941180698400  0.7666395836456  0.4886297338567 1.0
C      1  0.7208336723403  0.5625723692904  0.3660649662155 1.0
C      1  0.7183551565394  0.5736711811346  0.5936194889346 1.0
C      1  0.7242229336371  0.3735565032804  0.5302312304346 1.0
C      1  0.7228582972244  0.4881465050959  0.6437276874533 1.0
C      1  0.7278870563873  0.4121534432016  0.4408278460099 1.0
C      1  0.7162715341467  0.6368786482158  0.4306173352132 1.0
C      1  0.5618461188080  0.5984844633215  0.6521301646760 1.0
C      1  0.5623421729679  0.3124631255153  0.5090306596422 1.0
C      1  0.5618634498759  0.5796403636710  0.3316855999442 1.0
C      1  0.6283513374372  0.7051201986190  0.5486597545456 1.0
C      1  0.6290001937925  0.3481880605442  0.6561079920207 1.0
C      1  0.6365082800959  0.4376135596236  0.2977542076216 1.0
C      1  0.4746789557940  0.2447198853546  0.3720127738003 1.0
C      1  0.4892482909691  0.7278058365409  0.3404807529880 1.0
C      1  0.4888567315112  0.5214272459766  0.7774636070853 1.0
C      1  0.5389380881025  0.3261539168483  0.6716742458266 1.0
C      1  0.5441408193770  0.4252075527646  0.2715474886368 1.0
C      1  0.5392880273099  0.7317107744164  0.5620336110816 1.0
C      1  0.4059354955139  0.3308246501960  0.5749386454650 1.0
C      1  0.4084027751192  0.5170426704058  0.3129121743742 1.0
C      1  0.4065303048331  0.6502842722649  0.6086078481679 1.0
C      1  0.6359141604363  0.6936750591296  0.4494798256090 1.0
C      1  0.6371035964029  0.4435443136963  0.6896494786764 1.0
C      1  0.6554269577003  0.3886023577763  0.3783827690806 1.0
C      1  0.2911986197481  0.5035459620760  0.5009757063247 1.0
C      1  0.4932869706243  0.4947734072034  0.4976301100560 1.0
END
