TITL C-192146-1421-2 -8.487 3375.00 -1542.18388192 0 0 187 (C1) n - 1
REM
REM Run started: at 2021.01.02 17:38:34 in /rds/project/t2_vol4/rds-t2-cs072/BORA/CARBON/AIRSS/Generating-Clusters/Str-Search/Higher-Symm/C100-200
REM VASP from code version vasp.5.4.4.18Apr17-6-g9f103f2a35 (build Oct 11 2019 16:45:47) gamma-only
REM
REM
REM
REM
REM ./C.cell (533062f00bc710175b3da973d35f2034)
REM AIRSS Version 0.9.1 bugfix July 2018 build 013d7b7c2542+ Fri, 06 Jul 2018 19:26:36 +0100
REM compiler GCC version 4.8.5 20150623 (Red Hat 4.8.5-39)
REM options -cpp -mtune=generic -march=x86-64 -g -O0
REM seed 1639143251 -537918284 996466229 1591301798 705027730 -525979099 893120063 -1002201373 1950950180 1411194101 166711162 657095031
REM
REM C.POTCAR (d86ddea03c3ceb6dc662c8ad6801f873)
REM 
CELL 1.54180   15.00000   15.00000   15.00000   90.00000   90.00000   90.00000
LATT -1
SFAC C  
C      1  0.2902610023735  0.6396906050672  0.2193118526073 1.0
C      1  0.2344201485371  0.3006022590603  0.6320351192868 1.0
C      1  0.6379821699491  0.2411091329422  0.3008218833036 1.0
C      1  0.7180447160066  0.6366381354244  0.7843074974820 1.0
C      1  0.2917092999355  0.3619221860703  0.7743062942187 1.0
C      1  0.7168224990508  0.3601880761822  0.2164727244888 1.0
C      1  0.7858852758724  0.2962012555919  0.3586968689667 1.0
C      1  0.2346319141008  0.7053037802449  0.3604445972453 1.0
C      1  0.7844132158138  0.7055231358276  0.6440931090130 1.0
C      1  0.3561438777642  0.2180214679054  0.7044423931653 1.0
C      1  0.6450355857131  0.7718752478963  0.7132335122126 1.0
C      1  0.3535520881954  0.7902946065925  0.2850490851527 1.0
C      1  0.2225270773555  0.6406607509424  0.2883396551655 1.0
C      1  0.6479623168694  0.2958619038325  0.2176359283482 1.0
C      1  0.2905320129077  0.2166210828721  0.6421781227244 1.0
C      1  0.7848366030818  0.6362187584974  0.7132026671191 1.0
C      1  0.7839910381529  0.3641849490780  0.2891184909160 1.0
C      1  0.2206119088193  0.3615079439614  0.7078789877836 1.0
C      1  0.3689260559738  0.3041692005350  0.7558825976304 1.0
C      1  0.3649715087847  0.7028807331593  0.2324453516214 1.0
C      1  0.6454307968513  0.7020600836711  0.7820481829582 1.0
C      1  0.7136874494685  0.2314493104275  0.3614323856191 1.0
C      1  0.7163933220069  0.7762259146516  0.6463632695878 1.0
C      1  0.2884793923494  0.7911707134337  0.3493354482850 1.0
C      1  0.4831791465679  0.8304662345610  0.6697385349938 1.0
C      1  0.6698461673790  0.4781062453135  0.8469424969046 1.0
C      1  0.8470321093258  0.6649219817351  0.4823681408798 1.0
C      1  0.5242164862005  0.8278064568928  0.3430638318133 1.0
C      1  0.4818154916755  0.1515845466284  0.3284291908522 1.0
C      1  0.5242282347375  0.1667436251739  0.6572693509583 1.0
C      1  0.3320573611213  0.4834860438336  0.1511677291908 1.0
C      1  0.6705201177378  0.5207467325718  0.1549529027485 1.0
C      1  0.3307137535454  0.5157592449727  0.8491954410758 1.0
C      1  0.1629127424597  0.6626219801204  0.5244268098298 1.0
C      1  0.8538419446436  0.3350445493769  0.5192467615925 1.0
C      1  0.1532927340480  0.3363306324921  0.4752906490387 1.0
C      1  0.6700207778992  0.8384618668251  0.4866032767988 1.0
C      1  0.8500755232193  0.4785443164136  0.6664183913113 1.0
C      1  0.4813207862891  0.6584789857627  0.8394589216627 1.0
C      1  0.3382157511125  0.8362470402047  0.5222179806646 1.0
C      1  0.3400344851319  0.1690187852935  0.4734591256950 1.0
C      1  0.6694412296647  0.1663742181776  0.5149221514063 1.0
C      1  0.1511297316492  0.4842913171641  0.3347655973258 1.0
C      1  0.1417457546227  0.5186098662469  0.6755715581359 1.0
C      1  0.8506418771157  0.5204124486684  0.3333490308115 1.0
C      1  0.5280101777251  0.6682015666772  0.1566840013318 1.0
C      1  0.5274591209000  0.3333291868327  0.8377311209037 1.0
C      1  0.4811311879526  0.3418001956682  0.1652916291386 1.0
C      1  0.6179140134837  0.6838799116368  0.1509111267531 1.0
C      1  0.1449918817909  0.6094887823898  0.6873261185173 1.0
C      1  0.6836487585801  0.1556999736224  0.6049355056708 1.0
C      1  0.3916140522809  0.6749838901891  0.8489587456959 1.0
C      1  0.6165827271301  0.3157311912368  0.8470338919253 1.0
C      1  0.3918347282778  0.3241079350423  0.1536649441486 1.0
C      1  0.8541130883542  0.6115936257728  0.3207298641503 1.0
C      1  0.1502600817341  0.3907869684762  0.3156842067239 1.0
C      1  0.8544732765622  0.3878015868520  0.6802092243774 1.0
C      1  0.3199904500985  0.1566855441983  0.3852332877716 1.0
C      1  0.6847974300028  0.8416697568438  0.3928320500118 1.0
C      1  0.3217376200942  0.8417910176416  0.6123730639678 1.0
C      1  0.1518623152936  0.6789134690933  0.6141379611410 1.0
C      1  0.6875451849769  0.6136994176994  0.1527845931750 1.0
C      1  0.6129707022868  0.1562443531580  0.6751987549833 1.0
C      1  0.8517670035147  0.6807968722688  0.3919254120589 1.0
C      1  0.8553814572376  0.3185552873298  0.6091717014942 1.0
C      1  0.1489262504945  0.3211475545169  0.3851592666645 1.0
C      1  0.3190841888457  0.6062296657652  0.8524362260515 1.0
C      1  0.3199900130136  0.3931473686378  0.1484214443584 1.0
C      1  0.6868766425831  0.3849895491276  0.8487221159519 1.0
C      1  0.3884716757222  0.1526399710620  0.3134599326495 1.0
C      1  0.3930636770387  0.8407961305517  0.6836662334136 1.0
C      1  0.6132044657291  0.8391259579411  0.3246116621949 1.0
C      1  0.6798313500527  0.2527236298998  0.8067390820099 1.0
C      1  0.8144132758297  0.6755045600385  0.2586459953208 1.0
C      1  0.2595572294651  0.8037550128613  0.6771810701225 1.0
C      1  0.3267585304724  0.2607486331234  0.1892947510663 1.0
C      1  0.6810311201719  0.7467228368119  0.1914714585988 1.0
C      1  0.3270008564451  0.7385759572742  0.8116876781019 1.0
C      1  0.1900814095973  0.6721709717462  0.7480173751773 1.0
C      1  0.8139927473408  0.3232868165377  0.7415934155498 1.0
C      1  0.1905962310556  0.3300403046610  0.2535532238679 1.0
C      1  0.7475134020867  0.8089379179342  0.3290150785040 1.0
C      1  0.2549362396233  0.1939470193891  0.3219148428282 1.0
C      1  0.7477383438640  0.1898759682357  0.6701182672969 1.0
C      1  0.8130382530452  0.2556381115272  0.6718831656868 1.0
C      1  0.2569325198086  0.6711915383346  0.8128023075370 1.0
C      1  0.6784754656988  0.8084914689500  0.2578392002362 1.0
C      1  0.1909087413427  0.2583673967442  0.3221108037200 1.0
C      1  0.1926544538509  0.7401816488176  0.6783435821046 1.0
C      1  0.8139821455498  0.7438970270558  0.3275363955690 1.0
C      1  0.7503965282739  0.6756009947356  0.1906248997099 1.0
C      1  0.7486696080540  0.3231926758137  0.8082706748384 1.0
C      1  0.2577148945394  0.3289534142364  0.1879309004570 1.0
C      1  0.3277402627845  0.8044195004950  0.7464913368320 1.0
C      1  0.3262119598034  0.1921540896598  0.2526492341827 1.0
C      1  0.6782912444743  0.1904204713638  0.7397703867979 1.0
C      1  0.4898085816003  0.3927030007081  0.6302371782315 1.0
C      1  0.5525054727129  0.4560478632740  0.3773438140268 1.0
C      1  0.3649127527043  0.5274256936518  0.4649978861184 1.0
C      1  0.5105296666429  0.3381378756640  0.4884827785220 1.0
C      1  0.4638030572044  0.6075974471298  0.3620547383936 1.0
C      1  0.4612001178982  0.6633425492712  0.4996877246836 1.0
C      1  0.3909971229501  0.5309705747941  0.6103838716657 1.0
C      1  0.5353481871308  0.5618251587386  0.6222779954936 1.0
C      1  0.4287480213774  0.4215600905955  0.3605855103261 1.0
C      1  0.5982654710537  0.5782405247214  0.4715064811153 1.0
C      1  0.3445859571994  0.3974047126442  0.5148699341014 1.0
C      1  0.6165741754077  0.4528563919048  0.5343474907626 1.0
C      1  0.5723244977772  0.3773512041516  0.5646739956168 1.0
C      1  0.3135176017146  0.4953141337013  0.5461268756961 1.0
C      1  0.4817343911005  0.5062096058441  0.3251400553752 1.0
C      1  0.4442649393102  0.4014558185628  0.5385058142315 1.0
C      1  0.3846183712357  0.6226253759317  0.4358196603095 1.0
C      1  0.5317564313026  0.6295353564859  0.4353098453305 1.0
C      1  0.6058784644086  0.4869913000792  0.4432495537876 1.0
C      1  0.6073984921612  0.5452703227648  0.5649806606705 1.0
C      1  0.3602158400496  0.4378434000086  0.4184176134821 1.0
C      1  0.4598742723907  0.5950801658611  0.5715302649648 1.0
C      1  0.5134849251672  0.3646298434536  0.3850260891748 1.0
C      1  0.4770345065813  0.4899072828211  0.6710186437683 1.0
C      1  0.8063381323563  0.5410190727497  0.7292790578653 1.0
C      1  0.7316982726202  0.7957307159800  0.5506035119181 1.0
C      1  0.5480001893668  0.7169632816620  0.7992215373733 1.0
C      1  0.1971514121715  0.5467594406943  0.2717883780625 1.0
C      1  0.8099331535302  0.4576300617331  0.2691782839464 1.0
C      1  0.1913620960058  0.4534716087420  0.7333805131434 1.0
C      1  0.2895250167652  0.7872070108872  0.4526599363254 1.0
C      1  0.7326546380189  0.2090157436337  0.4546548296466 1.0
C      1  0.2876187929127  0.2178391390661  0.5398565327970 1.0
C      1  0.4629123344039  0.7199954957018  0.2068443773313 1.0
C      1  0.5466997071838  0.2892583107633  0.2140694819624 1.0
C      1  0.4642197639234  0.2842564840707  0.7834846592413 1.0
C      1  0.7327099997110  0.5410403232723  0.8024553598064 1.0
C      1  0.5481557391203  0.7875570798697  0.7278515131106 1.0
C      1  0.8032757705258  0.7230308796784  0.5485279925604 1.0
C      1  0.2695181985669  0.5457089563889  0.1958945444426 1.0
C      1  0.2676487242172  0.4530932573211  0.8048866869841 1.0
C      1  0.7309768402785  0.4574743041028  0.2007567714883 1.0
C      1  0.4563206918732  0.7836776160541  0.2886227569658 1.0
C      1  0.4580292171930  0.2171329313663  0.7068587328124 1.0
C      1  0.5442187472383  0.2087270612205  0.2788536186176 1.0
C      1  0.2163562661149  0.7141667757799  0.4599414367454 1.0
C      1  0.2042005026117  0.2811156179717  0.5372237338277 1.0
C      1  0.8071772315582  0.2785193433410  0.4539889456467 1.0
C      1  0.5067084384242  0.8344834647386  0.5744051145090 1.0
C      1  0.5788976427894  0.4975650757387  0.8647693000566 1.0
C      1  0.8666268550873  0.5700292532636  0.5008299701907 1.0
C      1  0.5081783236264  0.8376366065386  0.4387148998849 1.0
C      1  0.5031254822266  0.1356166851863  0.4190130189033 1.0
C      1  0.5049744702514  0.1610353093029  0.5620780489032 1.0
C      1  0.4295408953104  0.5064694640223  0.1457779669175 1.0
C      1  0.5787939165650  0.5023209669823  0.1361382547002 1.0
C      1  0.4283490733234  0.4930292948694  0.8517920333869 1.0
C      1  0.1486698521726  0.5673618110768  0.5019331179467 1.0
C      1  0.8714032177022  0.4300941666921  0.5002736090717 1.0
C      1  0.1418706000904  0.4320528589564  0.4973172597580 1.0
C      1  0.5800309893564  0.8529429530528  0.5065661267515 1.0
C      1  0.8679994930442  0.4999928683558  0.5710186402708 1.0
C      1  0.5038679381440  0.5627676631108  0.8429143079330 1.0
C      1  0.4334340809247  0.8480054561518  0.5051802061728 1.0
C      1  0.4357633621905  0.1563419913549  0.4893733942357 1.0
C      1  0.5736531291850  0.1606638370586  0.4881563706475 1.0
C      1  0.1310958880891  0.5026008770425  0.4250325005884 1.0
C      1  0.1300084722484  0.4977980306873  0.5775710922449 1.0
C      1  0.8690296265841  0.4999389865552  0.4295275354473 1.0
C      1  0.5083004873030  0.5729518235870  0.1452931454782 1.0
C      1  0.5076927758441  0.4282016904501  0.8499262742958 1.0
C      1  0.5037877970745  0.4365691407127  0.1533666343707 1.0
C      1  0.7083917040694  0.3117875435865  0.4356553840689 1.0
C      1  0.7100583574658  0.4396837467118  0.3024381117421 1.0
C      1  0.2916989639234  0.4426818444828  0.7038013213639 1.0
C      1  0.4421847355928  0.6802611680829  0.2957512051561 1.0
C      1  0.2975590625013  0.5618757861268  0.2955135987018 1.0
C      1  0.2954040213847  0.3206694262458  0.5500435408644 1.0
C      1  0.3078225510742  0.6855956815832  0.4297611797957 1.0
C      1  0.4506948498613  0.3214058831329  0.6908492075343 1.0
C      1  0.5539229198381  0.2999948924020  0.3188090969412 1.0
C      1  0.7057151954077  0.5622864617250  0.7022262963153 1.0
C      1  0.7020574613429  0.6954637971806  0.5741086271856 1.0
C      1  0.5749146052862  0.6864499617146  0.7014728790308 1.0
C      1  0.5032414131723  0.2391405815241  0.5008147018415 1.0
C      1  0.4794697997510  0.7600048524659  0.5084838340318 1.0
C      1  0.4813100563058  0.4946103241328  0.7685767544768 1.0
C      1  0.4868305834603  0.5075434861851  0.2266198975794 1.0
C      1  0.2169786849604  0.4980088301536  0.5330071409797 1.0
C      1  0.7850458973275  0.4969832563525  0.4980209217044 1.0
C      1  0.4436892073540  0.5056857471355  0.5246952996199 1.0
END
