TITL C-1990-2551-8 -5.06 3375.00 -877.01923306 0 0 106 (C1) n - 1
REM
REM Run started: at 2020.12.31 13:02:04 in /gpfs/home/chem/mssmkc/CARBON/AIRSS/Generating-Clusters/Str-Search/Higher-Symm/C100-200
REM VASP from code version vasp.5.4.4.18Apr17-6-g9f103f2a35 (build Oct 11 2019 16:45:47) gamma-only
REM
REM
REM
REM
REM ./C.cell (533062f00bc710175b3da973d35f2034)
REM AIRSS Version 0.9.1 bugfix July 2018 build 013d7b7c2542+ Fri, 06 Jul 2018 19:26:36 +0100
REM compiler GCC version 6.3.0
REM options -cpp -iprefix /gpfs/warwick/csc/orac/software/Core/GCCcore/6.3.0/bin/../lib/gcc/x86_64-pc-linux-gnu/6.3.0/ -mtune=generic -march=x86-64 -g -O0
REM seed 38243571 -1734363530 -1995024653 1477074396 138423384 492758336 1867557546 8935041 -1809528812 2131699852 -2125021528 -1994409612
REM
REM C.POTCAR (d86ddea03c3ceb6dc662c8ad6801f873)
REM 
CELL 1.54180   15.00000   15.00000   15.00000   90.00000   90.00000   90.00000
LATT -1
SFAC C  
C      1  0.4917345171503  0.7388776972998  0.6198486943085 1.0
C      1  0.5181058825876  0.3008151459673  0.3453844374931 1.0
C      1  0.5347335454974  0.2822778635542  0.5941982217598 1.0
C      1  0.4571539900679  0.7658035810744  0.3842109688038 1.0
C      1  0.4927929697132  0.3728878382639  0.4170846639548 1.0
C      1  0.4704132308531  0.5917458506889  0.5656328176306 1.0
C      1  0.4719207470064  0.6370747800591  0.4083004234432 1.0
C      1  0.4709645830017  0.4412050006482  0.5662189684728 1.0
C      1  0.6477100159058  0.7140760343449  0.6212843845554 1.0
C      1  0.6791857584313  0.3215192833754  0.3441636005503 1.0
C      1  0.7677586632429  0.2471976628666  0.5503785192746 1.0
C      1  0.6100886115774  0.7181298414278  0.3587386729562 1.0
C      1  0.4048155535833  0.3279512001146  0.6874944599726 1.0
C      1  0.3299736650543  0.6144771436462  0.2959252387016 1.0
C      1  0.3556655176140  0.6107501474665  0.7388746631265 1.0
C      1  0.4237506646104  0.3137996645904  0.2971338321085 1.0
C      1  0.6834990161472  0.4424918485664  0.4398777176268 1.0
C      1  0.6737158609965  0.5771159807560  0.5670017541251 1.0
C      1  0.7194811695562  0.6172392808035  0.4048982102406 1.0
C      1  0.6730242282728  0.3371166606808  0.5727868201192 1.0
C      1  0.7720010436984  0.5736967094577  0.5954400190060 1.0
C      1  0.8242377100171  0.4356625807138  0.3732875707678 1.0
C      1  0.8176632897281  0.4113323337800  0.6066599793776 1.0
C      1  0.8120021104163  0.5937101975099  0.4344193290729 1.0
C      1  0.1975686618289  0.3822411104978  0.4437520316104 1.0
C      1  0.2352825800319  0.5350123158130  0.6000194618787 1.0
C      1  0.2433283992820  0.5318354846728  0.4535168211549 1.0
C      1  0.1906060967571  0.3881484241272  0.6094199943644 1.0
C      1  0.5993216785059  0.3409317441760  0.2948580588459 1.0
C      1  0.5666246893179  0.6954756748810  0.6697226731773 1.0
C      1  0.5165695527614  0.6935907256610  0.3305047893830 1.0
C      1  0.6066602395510  0.3275757668995  0.6445165787502 1.0
C      1  0.6536747655862  0.2591782282116  0.4125390834485 1.0
C      1  0.6230747210711  0.7680158658375  0.5407877568731 1.0
C      1  0.6075677039095  0.7710010182105  0.4410507797910 1.0
C      1  0.6707571653409  0.2522273536325  0.5120386861423 1.0
C      1  0.4025457135224  0.3452540555633  0.4414097864076 1.0
C      1  0.4141139712067  0.6829939396070  0.5959812576925 1.0
C      1  0.3892545934290  0.7006504482638  0.4202269990748 1.0
C      1  0.4456058590750  0.3277236526984  0.5978896693087 1.0
C      1  0.5840183610699  0.4238746869033  0.2417609808879 1.0
C      1  0.5749566364851  0.6122740473255  0.7247699597995 1.0
C      1  0.5293317211189  0.6188763574705  0.2523186583034 1.0
C      1  0.6105770858946  0.3992621994960  0.7080089827034 1.0
C      1  0.6608538278930  0.5788752431456  0.7147599946806 1.0
C      1  0.6348652294984  0.4961951836300  0.2766108210897 1.0
C      1  0.6743430014671  0.4791223113776  0.6828134518835 1.0
C      1  0.6200065710373  0.5918095924115  0.2677006452177 1.0
C      1  0.5273093634920  0.7899197473478  0.5507290442088 1.0
C      1  0.5624100111713  0.2381831267621  0.4169148206903 1.0
C      1  0.5706627341577  0.2359479261058  0.5195988567905 1.0
C      1  0.5142962995129  0.7977991149021  0.4513848660880 1.0
C      1  0.4693179297428  0.5482486820632  0.2250629297568 1.0
C      1  0.5301524794114  0.4335622692354  0.7452541283704 1.0
C      1  0.4974162579807  0.4521808698144  0.2183971532787 1.0
C      1  0.5093687297333  0.5332987731285  0.7256588652870 1.0
C      1  0.3078748255999  0.6611541904156  0.3673103911942 1.0
C      1  0.3118045158662  0.3364449128531  0.6866999350587 1.0
C      1  0.3360930440486  0.3317316664943  0.3696153364300 1.0
C      1  0.3406507131534  0.6527285195142  0.6608705080183 1.0
C      1  0.7703110258584  0.3283881825949  0.5912926356460 1.0
C      1  0.6679200933002  0.6532001575143  0.3280098373577 1.0
C      1  0.7060549657697  0.6353370494047  0.6449566233948 1.0
C      1  0.7459380658406  0.3919533308320  0.3791117445604 1.0
C      1  0.4126734783004  0.5427046902082  0.7577584392739 1.0
C      1  0.4242223974795  0.3945326252203  0.2476228646434 1.0
C      1  0.4452546151746  0.3924954779876  0.7481142801192 1.0
C      1  0.3750731271423  0.5481013508804  0.2521149969100 1.0
C      1  0.2310571662573  0.6403223656564  0.4358614582960 1.0
C      1  0.2520304330516  0.3169901543883  0.6115158293109 1.0
C      1  0.2533669922867  0.3039436643435  0.4378723291746 1.0
C      1  0.2652677138245  0.6297601595583  0.6073734759681 1.0
C      1  0.2264902991256  0.4592147729551  0.6655270327214 1.0
C      1  0.2356615353179  0.4530812941768  0.3935359355020 1.0
C      1  0.6229333516622  0.4982921402913  0.5958907525403 1.0
C      1  0.6165737029629  0.4811317277484  0.3729672525409 1.0
C      1  0.3837366088988  0.3082859734586  0.5224159075053 1.0
C      1  0.3592248750174  0.7066343696622  0.5133782084736 1.0
C      1  0.3749682639644  0.4566345848270  0.7638252379233 1.0
C      1  0.3529597508841  0.4555880822706  0.2700713598011 1.0
C      1  0.5377567363927  0.4140322722186  0.4957018867375 1.0
C      1  0.5294950015829  0.6130540063022  0.4848966314606 1.0
C      1  0.5196173228259  0.5168545964712  0.6193652236472 1.0
C      1  0.5236759687406  0.4664526830001  0.4076082497735 1.0
C      1  0.6334616578480  0.4196732701653  0.5248879125553 1.0
C      1  0.6367479053632  0.6055460105160  0.4837790119201 1.0
C      1  0.2916458825279  0.4232518211313  0.7250972894050 1.0
C      1  0.3016982179958  0.4190354568695  0.3362366563877 1.0
C      1  0.7691193400989  0.4818486031585  0.6415626688568 1.0
C      1  0.8597933721162  0.5084134225220  0.4142900904680 1.0
C      1  0.2752054155668  0.6733060673022  0.5210229836082 1.0
C      1  0.2888875235454  0.2897868476327  0.5268672374609 1.0
C      1  0.8402518996974  0.5849253216536  0.5228826555043 1.0
C      1  0.4103184813391  0.5165152068813  0.5188978980820 1.0
C      1  0.1303255286606  0.6425685164357  0.4353848927971 1.0
C      1  0.3116665167850  0.5176465480614  0.5247115507759 1.0
C      1  0.0158671752029  0.5185660642230  0.5042849649375 1.0
C      1  0.0931509071311  0.5745772738235  0.4856110243489 1.0
C      1  0.1702996809831  0.5183180367572  0.5205934488144 1.0
C      1  0.4672590687309  0.5406398943430  0.4332249045817 1.0
C      1  0.1453865949921  0.4192082200168  0.5251714275242 1.0
C      1  0.9724299452436  0.3720281115873  0.5500931964222 1.0
C      1  0.9129241906642  0.5137341337286  0.5055421016325 1.0
C      1  0.6705545612749  0.5368910959126  0.4261969461362 1.0
C      1  0.0439945473102  0.4302971678949  0.5261613633743 1.0
C      1  0.8988253210206  0.4259408406072  0.5565714560362 1.0
END
