TITL C-192146-1421-8 -7.715 3375.00 -1347.56768426 0 0 166 (Ci) n - 1
REM
REM Run started: at 2021.01.02 22:46:32 in /rds/project/t2_vol4/rds-t2-cs072/BORA/CARBON/AIRSS/Generating-Clusters/Str-Search/Higher-Symm/C100-200
REM VASP from code version vasp.5.4.4.18Apr17-6-g9f103f2a35 (build Oct 11 2019 16:45:47) gamma-only
REM
REM
REM
REM
REM ./C.cell (533062f00bc710175b3da973d35f2034)
REM AIRSS Version 0.9.1 bugfix July 2018 build 013d7b7c2542+ Fri, 06 Jul 2018 19:26:36 +0100
REM compiler GCC version 4.8.5 20150623 (Red Hat 4.8.5-39)
REM options -cpp -mtune=generic -march=x86-64 -g -O0
REM seed -1753066497 418109632 1369444020 1392219438 2091310990 -632823958 1611242445 -383894988 -1149151469 -1981048583 1276553881 -466422291
REM
REM C.POTCAR (d86ddea03c3ceb6dc662c8ad6801f873)
REM 
CELL 1.54180   15.00000   15.00000   15.00000   90.00000   90.00000   90.00000
LATT -1
SFAC C  
C      1  0.3719761236907  0.6654197085504  0.8735007653444 1.0
C      1  0.6280239788747  0.3345802842905  0.1264991783566 1.0
C      1  0.8615434705518  0.6101715583873  0.5003675107336 1.0
C      1  0.1384565171320  0.3898284439136  0.4996324659842 1.0
C      1  0.4488003718289  0.2939620380991  0.6798845933506 1.0
C      1  0.5511996424772  0.7060379868444  0.3201154896455 1.0
C      1  0.7540474332132  0.6940197722467  0.3906223470763 1.0
C      1  0.2459525914749  0.3059802354987  0.6093776584269 1.0
C      1  0.4748776860445  0.4383628374047  0.7508311188695 1.0
C      1  0.5251223845990  0.5616373086726  0.2491688605689 1.0
C      1  0.4650198944281  0.1765037775521  0.5601243937381 1.0
C      1  0.5349801103756  0.8234962373345  0.4398756143827 1.0
C      1  0.5721304845889  0.4113098755065  0.1135671081243 1.0
C      1  0.4278695628614  0.5886901499322  0.8864327734394 1.0
C      1  0.4012751958676  0.6120941727314  0.6252370532545 1.0
C      1  0.5987247715921  0.3879057964647  0.3747628875644 1.0
C      1  0.4944186903070  0.6386845425054  0.1317453311519 1.0
C      1  0.5055812743565  0.3613154108316  0.8682545611080 1.0
C      1  0.5004626889781  0.7773491984315  0.3629172131698 1.0
C      1  0.4995372958891  0.2226507955377  0.6370828210631 1.0
C      1  0.2990500579245  0.2542658512546  0.5386420157469 1.0
C      1  0.7009499865748  0.7457341167436  0.4613580244024 1.0
C      1  0.4626907871981  0.3241199334854  0.4618524563482 1.0
C      1  0.5373091691207  0.6758800570334  0.5381475160923 1.0
C      1  0.5465711424607  0.5773923390132  0.5255995030047 1.0
C      1  0.4534288581042  0.4226076336045  0.4744005063533 1.0
C      1  0.7625358251594  0.6871397934262  0.6092029344402 1.0
C      1  0.2374641513433  0.3128602023485  0.3907969245189 1.0
C      1  0.7214338469802  0.6950747634647  0.3037558948510 1.0
C      1  0.2785661877117  0.3049252540225  0.6962441200368 1.0
C      1  0.4656279872799  0.2969155818970  0.3626547780759 1.0
C      1  0.5343719601802  0.7030844318432  0.6373452570598 1.0
C      1  0.3777992380082  0.1817154788623  0.5284195683286 1.0
C      1  0.6222007457366  0.8182844783238  0.4715804636912 1.0
C      1  0.8420662064387  0.5403518464735  0.3742927523605 1.0
C      1  0.1579337762901  0.4596481654908  0.6257072359848 1.0
C      1  0.3617570126584  0.7248293392147  0.8174613765074 1.0
C      1  0.6382430158072  0.2751706074810  0.1825386469049 1.0
C      1  0.8267386971752  0.3390952316846  0.6419512598066 1.0
C      1  0.1732612453956  0.6609047621224  0.3580487464178 1.0
C      1  0.4687526245045  0.3893975326662  0.6687509231590 1.0
C      1  0.5312473791386  0.6106025084011  0.3312491803501 1.0
C      1  0.3452535845551  0.7340089078688  0.3027990550385 1.0
C      1  0.6547464242864  0.2659911004778  0.6972009970194 1.0
C      1  0.6277657506188  0.7024048206578  0.7719257716242 1.0
C      1  0.3722343134922  0.2975947961160  0.2280744034884 1.0
C      1  0.8447928938744  0.4300535106056  0.4932723211209 1.0
C      1  0.1552070962762  0.5699464859287  0.5067276737249 1.0
C      1  0.6702744559904  0.5799078213158  0.8388471639856 1.0
C      1  0.3297244371012  0.4200934277097  0.1611515456409 1.0
C      1  0.4485380393935  0.4960998611482  0.2397576443088 1.0
C      1  0.5514617733350  0.5039001068664  0.7602423844677 1.0
C      1  0.7312081673284  0.6328416663049  0.2289201888353 1.0
C      1  0.2687918206306  0.3671583111930  0.7710798557267 1.0
C      1  0.5515208504113  0.5493859915141  0.4161539081637 1.0
C      1  0.4484791400437  0.4506139599373  0.5838461505766 1.0
C      1  0.3956667290131  0.3500920091321  0.3161221590775 1.0
C      1  0.6043332708449  0.6499078022912  0.6838778437336 1.0
C      1  0.6130382926472  0.4951522656458  0.1280651495624 1.0
C      1  0.3869617774893  0.5048477505558  0.8719349256152 1.0
C      1  0.5848523680254  0.5456252600426  0.8474881812829 1.0
C      1  0.4151474071030  0.4543738477250  0.1525125645867 1.0
C      1  0.3556250052356  0.3444059489917  0.8054359026907 1.0
C      1  0.6443750037657  0.6555940578372  0.1945641193221 1.0
C      1  0.2495581360056  0.5521756566915  0.4807939964330 1.0
C      1  0.7504418597522  0.4478243616576  0.5192060020862 1.0
C      1  0.3681086378766  0.5378669672270  0.2824436477447 1.0
C      1  0.6318913228737  0.4621331806511  0.7175564155515 1.0
C      1  0.7047343113667  0.4108280427879  0.5937648233407 1.0
C      1  0.2952656771338  0.5891719684145  0.4062352042868 1.0
C      1  0.8397090460864  0.3310436600575  0.5443306347805 1.0
C      1  0.1602909353030  0.6689563370436  0.4556693997328 1.0
C      1  0.3988235807703  0.8164319370290  0.6699275406160 1.0
C      1  0.6011764332406  0.1835680294301  0.3300724961685 1.0
C      1  0.4238968824930  0.7573693571472  0.7492299617230 1.0
C      1  0.5761032137899  0.2426306318306  0.2507700908941 1.0
C      1  0.2292031082592  0.7682024902013  0.6770122894841 1.0
C      1  0.7707968719035  0.2317974915987  0.3229876831439 1.0
C      1  0.3577502831513  0.4466571637457  0.4358479106863 1.0
C      1  0.6422497246637  0.5533428426722  0.5641520931736 1.0
C      1  0.4836264418542  0.5464118180706  0.6006504459621 1.0
C      1  0.5163735429626  0.4535881272920  0.3993495120772 1.0
C      1  0.3754671100937  0.6773612869161  0.5535806647662 1.0
C      1  0.6245328614510  0.3226386968210  0.4464192744672 1.0
C      1  0.3198286170216  0.6137694851776  0.2555961988296 1.0
C      1  0.6801712617649  0.3862305965679  0.7444038489797 1.0
C      1  0.4040366032423  0.7833930876374  0.3596719965412 1.0
C      1  0.5959634134633  0.2166069366570  0.6403280279353 1.0
C      1  0.6363851839633  0.3078769095013  0.7798801629551 1.0
C      1  0.3636148165988  0.6921231513258  0.2201198842255 1.0
C      1  0.3067562376158  0.7961780340006  0.6473236960385 1.0
C      1  0.6932437631165  0.2038219849385  0.3526763350087 1.0
C      1  0.5410316036021  0.3350674017525  0.3100019544964 1.0
C      1  0.4589683744899  0.6649325584059  0.6899980021988 1.0
C      1  0.3058139559322  0.4808088738970  0.5123876898963 1.0
C      1  0.6941859866292  0.5191911184172  0.4876123136676 1.0
C      1  0.8719998234337  0.5511882426669  0.6279097800449 1.0
C      1  0.1280001216331  0.4488117630556  0.3720901829097 1.0
C      1  0.5607075310791  0.8033992607403  0.6403950004175 1.0
C      1  0.4392924782912  0.1966007352088  0.3596050894987 1.0
C      1  0.7091909202316  0.4658716041734  0.2613678961922 1.0
C      1  0.2908091319544  0.5341283997498  0.7386321265905 1.0
C      1  0.2997092835657  0.5172618940654  0.8316339587429 1.0
C      1  0.7002907758959  0.4827381003309  0.1683660495755 1.0
C      1  0.6351302322572  0.7048877359438  0.5326159101247 1.0
C      1  0.3648697104101  0.2951122693108  0.4673840745641 1.0
C      1  0.6296195592730  0.7178034978747  0.2647171792587 1.0
C      1  0.3703804375022  0.2821964634572  0.7352828583550 1.0
C      1  0.5456548407248  0.1813120071715  0.4945587390409 1.0
C      1  0.4543451523878  0.8186880167844  0.5054412742952 1.0
C      1  0.2747289159063  0.6588987116825  0.3357881050620 1.0
C      1  0.7252710342734  0.3411012712522  0.6642119496335 1.0
C      1  0.4259290673072  0.4106595990666  0.8367508438755 1.0
C      1  0.5740709841625  0.5893404332812  0.1632491876536 1.0
C      1  0.5685399074405  0.3126424142399  0.8436839186711 1.0
C      1  0.4314601406276  0.6873574055131  0.1563161395500 1.0
C      1  0.2947316636032  0.7375515523285  0.5612906438625 1.0
C      1  0.7052683103947  0.2624484578227  0.4387093751518 1.0
C      1  0.6647710952483  0.4533598608888  0.3396450612099 1.0
C      1  0.3352289011413  0.5466401093786  0.6603549034654 1.0
C      1  0.6531340799281  0.5223203425142  0.4078716457585 1.0
C      1  0.3468659539803  0.4776796402070  0.5921284128870 1.0
C      1  0.2944641313442  0.3458692425340  0.1845448224296 1.0
C      1  0.7055371441400  0.6541316481303  0.8154556635745 1.0
C      1  0.7508704004372  0.5427781797157  0.2203790774211 1.0
C      1  0.2491296465070  0.4572218626293  0.7796209219373 1.0
C      1  0.2210246688286  0.7304110057948  0.4923386750735 1.0
C      1  0.7789753223627  0.2695890010544  0.5076613456524 1.0
C      1  0.8804820458544  0.4903268506860  0.6972363999533 1.0
C      1  0.1195179776155  0.5096731186455  0.3027635056034 1.0
C      1  0.5842448691539  0.7966072474653  0.7400675587493 1.0
C      1  0.4157552113376  0.2033924408942  0.2599324066299 1.0
C      1  0.8832094088169  0.5203646186049  0.5367617561415 1.0
C      1  0.1167906056666  0.4796353983977  0.4632382232491 1.0
C      1  0.3283883643973  0.3587797705739  0.3914215518258 1.0
C      1  0.6716115721371  0.6412202709840  0.6085784714640 1.0
C      1  0.1610942939684  0.3639307316256  0.4055607619229 1.0
C      1  0.8389056765697  0.6360692918978  0.5944392179605 1.0
C      1  0.6287683384853  0.1818899121263  0.5568216630696 1.0
C      1  0.3712316757028  0.8181101026423  0.4431783610831 1.0
C      1  0.8694403658606  0.4077168240356  0.6852010489278 1.0
C      1  0.1305596418137  0.5922831726484  0.3147989442732 1.0
C      1  0.6375794935706  0.8041465805272  0.5692151405425 1.0
C      1  0.3624205075563  0.1958533534221  0.4307849153848 1.0
C      1  0.4511414913037  0.3019227571661  0.1613548168201 1.0
C      1  0.5488586609176  0.6980769533243  0.8386449353203 1.0
C      1  0.2890805781523  0.7914663264789  0.4772720528950 1.0
C      1  0.7109194131864  0.2085336948274  0.5227279638771 1.0
C      1  0.4887333413612  0.2249615185882  0.2065581140261 1.0
C      1  0.5112668020437  0.7750385108097  0.7934418300273 1.0
C      1  0.5294068851231  0.5801938541637  0.6956324360501 1.0
C      1  0.4705930205404  0.4198061615112  0.3043673829751 1.0
C      1  0.6498775935588  0.4771737977687  0.6276160655718 1.0
C      1  0.3501224171933  0.5228262636071  0.3723839854314 1.0
C      1  0.1410700226170  0.5378603052817  0.6013436912488 1.0
C      1  0.8589299807114  0.4621397065556  0.3986562835535 1.0
C      1  0.4664272809475  0.8371733497693  0.6090602434733 1.0
C      1  0.5335727011862  0.1628266167857  0.3909397703272 1.0
C      1  0.8244634582547  0.6274827572711  0.4157165832678 1.0
C      1  0.1755365649000  0.3725172630400  0.5842833910848 1.0
C      1  0.7341995251369  0.7669458989088  0.5568538646152 1.0
C      1  0.2658005565509  0.2330542091102  0.4431461098075 1.0
C      1  0.5496249543394  0.2847716547765  0.4838787782800 1.0
C      1  0.4503750276215  0.7152283152452  0.5161211833095 1.0
C      1  0.4790640315968  0.3835596319241  0.1254520178635 1.0
C      1  0.5209358077231  0.6164401043201  0.8745478236363 1.0
END
