TITL C-196603-3620-1 -7.022 3375.00 -1196.40986031 0 0 147 (Cs) n - 1
REM
REM Run started: at 2020.11.25 03:54:02 in /rds/project/t2_vol4/rds-t2-cs072/BORA/CARBON/AIRSS/Generating-Clusters/Str-Search/Higher-Symm
REM VASP from code version vasp.5.4.4.18Apr17-6-g9f103f2a35 (build Oct 11 2019 16:45:47) gamma-only
REM
REM
REM
REM
REM ./C.cell (e5ae0387ce4d49c7c0135a1433873289)
REM AIRSS Version 0.9.1 bugfix July 2018 build 013d7b7c2542+ Fri, 06 Jul 2018 19:26:36 +0100
REM compiler GCC version 4.8.5 20150623 (Red Hat 4.8.5-39)
REM options -cpp -mtune=generic -march=x86-64 -g -O0
REM seed -1214551243 -522657899 -1938872632 1565404296 -1116134141 1134018598 -1313692936 1555362156 1122701495 -1119362428 -1616321621 -2062890054
REM
REM C.POTCAR (d86ddea03c3ceb6dc662c8ad6801f873)
REM 
CELL 1.54180   15.00000   15.00000   15.00000   90.00000   90.00000   90.00000
LATT -1
SFAC C  
C      1  0.8115065438940  0.6020625898522  0.5374704842592 1.0
C      1  0.3780499913662  0.6051160181901  0.2095181988377 1.0
C      1  0.3086442537163  0.6056123713068  0.7508807321100 1.0
C      1  0.1884985554936  0.6020585919246  0.5374673995755 1.0
C      1  0.6219521480384  0.6051119062758  0.2095235532591 1.0
C      1  0.6913477815243  0.6056036579193  0.7508793766275 1.0
C      1  0.5446978996133  0.5796470927200  0.2615045699931 1.0
C      1  0.2710012539007  0.5789683501492  0.5807850615563 1.0
C      1  0.6848291273196  0.5800291881938  0.6580839618868 1.0
C      1  0.4553004767122  0.5796474011691  0.2615037176635 1.0
C      1  0.7290013977291  0.5789693872578  0.5807842727208 1.0
C      1  0.3151714462108  0.5800305855080  0.6580867767804 1.0
C      1  0.6958949091909  0.3717120113974  0.3328849540427 1.0
C      1  0.2579513239215  0.3717695694167  0.4145413165684 1.0
C      1  0.5471145788497  0.3720998834487  0.7527862119629 1.0
C      1  0.3041056559863  0.3717131899663  0.3328837574068 1.0
C      1  0.7420517941207  0.3717653333348  0.4145416079123 1.0
C      1  0.4528844501165  0.3720999198872  0.7527875700250 1.0
C      1  0.4504963488408  0.8495074537348  0.6732621670458 1.0
C      1  0.6746710620868  0.8492845388407  0.4567134025907 1.0
C      1  0.3749791437696  0.8491200077648  0.3710535465970 1.0
C      1  0.5495047487004  0.8495072048964  0.6732621968318 1.0
C      1  0.3253297410558  0.8492848901367  0.4567137877007 1.0
C      1  0.6250212447465  0.8491197150617  0.3710531969914 1.0
C      1  0.5541743293354  0.3790103839112  0.5922020945905 1.0
C      1  0.5527570345980  0.3788432681286  0.4068959601083 1.0
C      1  0.3931862504247  0.3789077307515  0.5008819823494 1.0
C      1  0.4458263253148  0.3790114823023  0.5922025786908 1.0
C      1  0.4472439246246  0.3788436044993  0.4068955740233 1.0
C      1  0.6068152635376  0.3789077256881  0.5008823943287 1.0
C      1  0.7085496444617  0.7077726794967  0.3233393779876 1.0
C      1  0.2422918756040  0.7079201756533  0.4082408653049 1.0
C      1  0.5492038730561  0.7081078886761  0.7693628400162 1.0
C      1  0.2914517905348  0.7077728143711  0.3233395393597 1.0
C      1  0.7577106633656  0.7079196117583  0.4082406586755 1.0
C      1  0.4507948775830  0.7081074740251  0.7693621192572 1.0
C      1  0.8561986990382  0.5206796716104  0.5190268409408 1.0
C      1  0.3403481385067  0.5209371340927  0.1860184200482 1.0
C      1  0.3076678402959  0.5211378497203  0.7945526977982 1.0
C      1  0.1437977584589  0.5206812332042  0.5190268062771 1.0
C      1  0.6596550457705  0.5209367466182  0.1860157340559 1.0
C      1  0.6923331453772  0.5211320926152  0.7945560991356 1.0
C      1  0.5815550024029  0.6404526113459  0.3984446718007 1.0
C      1  0.3707285930930  0.6405113645243  0.4807869263182 1.0
C      1  0.5476127441553  0.6406752364937  0.6224723703993 1.0
C      1  0.4184458635794  0.6404533112969  0.3984463912529 1.0
C      1  0.6292741995929  0.6405109580446  0.4807856117906 1.0
C      1  0.4523877609965  0.6406747653921  0.6224742586384 1.0
C      1  0.3911400712520  0.7196251518100  0.6164678141881 1.0
C      1  0.6550945574546  0.7192852127375  0.5368141797457 1.0
C      1  0.4539651035966  0.7192691192393  0.3479956943206 1.0
C      1  0.6088606624654  0.7196251108108  0.6164668757227 1.0
C      1  0.3449072461773  0.7192854836802  0.5368150192124 1.0
C      1  0.5460355037116  0.7192691080532  0.3479953715179 1.0
C      1  0.7453940137377  0.4009113860578  0.2557567888414 1.0
C      1  0.1670280908063  0.4015839892621  0.4127101122438 1.0
C      1  0.5895025726763  0.4012911626144  0.8338994530513 1.0
C      1  0.2546029538191  0.4009100060525  0.2557557267416 1.0
C      1  0.8329756206680  0.4015795783565  0.4127073176870 1.0
C      1  0.4104974487616  0.4012893417548  0.8339034280505 1.0
C      1  0.7102312645583  0.4325444016258  0.7606808136809 1.0
C      1  0.6222572215751  0.4320822643736  0.1878938400619 1.0
C      1  0.1671324074678  0.4316680467683  0.5476205385331 1.0
C      1  0.2897642097531  0.4325488393426  0.7606791708539 1.0
C      1  0.3777469682998  0.4320828003861  0.1878927509769 1.0
C      1  0.8328658779923  0.4316674791444  0.5476247379750 1.0
C      1  0.8150273122099  0.6374662012333  0.4452683266744 1.0
C      1  0.2956909725615  0.6369286582529  0.2559615576398 1.0
C      1  0.3903712061674  0.6371061934616  0.7991117937849 1.0
C      1  0.1849738049042  0.6374679931810  0.4452683375428 1.0
C      1  0.7043104919954  0.6369284233271  0.2559614103475 1.0
C      1  0.6096264957100  0.6371053227018  0.7991138692354 1.0
C      1  0.3737023482945  0.1497704553649  0.6566334377355 1.0
C      1  0.6992062298491  0.1491713140142  0.5308870781235 1.0
C      1  0.4275463123010  0.1493386604861  0.3123327434853 1.0
C      1  0.6262957930322  0.1497682893222  0.6566346170446 1.0
C      1  0.3007878321167  0.1491744751452  0.5308866643624 1.0
C      1  0.5724506897636  0.1493371845106  0.3123297222317 1.0
C      1  0.2992962530310  0.3763082342820  0.1762201596378 1.0
C      1  0.3196263631321  0.3759882217818  0.8332487355866 1.0
C      1  0.8854128934060  0.3740800700337  0.4874654475790 1.0
C      1  0.7007063680588  0.3763037343396  0.1762186323258 1.0
C      1  0.6803733761673  0.3759835569950  0.8332544013284 1.0
C      1  0.1145853534504  0.3740772631499  0.4874629475297 1.0
C      1  0.5894189411316  0.5605733291196  0.6395948127952 1.0
C      1  0.5762063504282  0.5604281504651  0.3533914402710 1.0
C      1  0.3347762741087  0.5601806442646  0.5077270793179 1.0
C      1  0.4105818299793  0.5605726075370  0.6395973938891 1.0
C      1  0.4237927126120  0.5604277476224  0.3533913008580 1.0
C      1  0.6652271360130  0.5601795622140  0.5077243660195 1.0
C      1  0.3966904726488  0.4836143632697  0.4986854839052 1.0
C      1  0.5504475316918  0.4839303011929  0.5903988725905 1.0
C      1  0.5528464678699  0.4836826770212  0.4112727312143 1.0
C      1  0.6033120486956  0.4836140632317  0.4986855438042 1.0
C      1  0.4495531076728  0.4839304843934  0.5903989252101 1.0
C      1  0.4471549533350  0.4836828590142  0.4112721129343 1.0
C      1  0.3730365311841  0.7693151680337  0.3232056762021 1.0
C      1  0.4097739979747  0.7697831165857  0.6991140454018 1.0
C      1  0.7172448267563  0.7694186997286  0.4791370535317 1.0
C      1  0.6269646843476  0.7693150097318  0.3232052641604 1.0
C      1  0.5902262798537  0.7697825428217  0.6991138240778 1.0
C      1  0.2827565954171  0.7694187910187  0.4791372315011 1.0
C      1  0.5469900020395  0.8910533461345  0.4176140492706 1.0
C      1  0.4047865293943  0.8911035922185  0.5009250320062 1.0
C      1  0.5481580356439  0.8912245887781  0.5823507089677 1.0
C      1  0.4530106304825  0.8910535178886  0.4176141512506 1.0
C      1  0.5952144346735  0.8911035437828  0.5009249327144 1.0
C      1  0.4518432698467  0.8912246047261  0.5823506347902 1.0
C      1  0.2507018207479  0.3912921640782  0.5875796982513 1.0
C      1  0.7030761996608  0.3913300445096  0.6694018018653 1.0
C      1  0.5468800995980  0.3908908109622  0.2396374126072 1.0
C      1  0.7492986677994  0.3912895099761  0.5875818301238 1.0
C      1  0.2969206299774  0.3913321084680  0.6694019686507 1.0
C      1  0.4531224913311  0.3908902976773  0.2396370846100 1.0
C      1  0.2864475399250  0.2416653937917  0.5022521215325 1.0
C      1  0.6091834551177  0.2422834816958  0.6836607659521 1.0
C      1  0.6045887512894  0.2417344249946  0.3140216757452 1.0
C      1  0.7135444210250  0.2416622176998  0.5022500103171 1.0
C      1  0.3908151449380  0.2422852283677  0.6836591776834 1.0
C      1  0.3954113784208  0.2417345205869  0.3140237728628 1.0
C      1  0.8579689039358  0.5507161888238  0.4218698353290 1.0
C      1  0.2550465383149  0.5498430539617  0.2321559479964 1.0
C      1  0.3899560808257  0.5499122383490  0.8458612116784 1.0
C      1  0.1420284177308  0.5507202756867  0.4218692761446 1.0
C      1  0.7449574063202  0.5498435933130  0.2321531314840 1.0
C      1  0.6100437644576  0.5499122563277  0.8458667441959 1.0
C      1  0.5980880808436  0.3414509312806  0.3214719405606 1.0
C      1  0.2966574632912  0.3411083722541  0.5041585878991 1.0
C      1  0.6061219900187  0.3418843613845  0.6737203627240 1.0
C      1  0.4019130846482  0.3414519034266  0.3214710081174 1.0
C      1  0.7033428824180  0.3411054308933  0.5041580224777 1.0
C      1  0.3938757151247  0.3418858126033  0.6737204810346 1.0
C      1  0.7000223156039  0.1761416061811  0.4397877697149 1.0
C      1  0.3483836309436  0.1763770920996  0.3573448455826 1.0
C      1  0.4521929207871  0.1771029454332  0.7025707254570 1.0
C      1  0.2999725361558  0.1761449297178  0.4397901806431 1.0
C      1  0.6516166034591  0.1763741161752  0.3573404737765 1.0
C      1  0.5478050287681  0.1771015566464  0.7025729797094 1.0
C      1  0.1560569278957  0.4834800382268  0.3582272326222 1.0
C      1  0.5482018152900  0.4827815573950  0.8697165960836 1.0
C      1  0.7960454290184  0.4828751044432  0.2745305095041 1.0
C      1  0.8439432584073  0.4834772036766  0.3582260609293 1.0
C      1  0.4517972957112  0.4827814460724  0.8697163276642 1.0
C      1  0.2039548411203  0.4828752697321  0.2745315046474 1.0
C      1  0.6649165113161  0.0939163734487  0.5952314315044 1.0
C      1  0.3350795210569  0.0939177219560  0.5952315550974 1.0
C      1  0.4999983813707  0.0933724006634  0.3094016208436 1.0
END
