TITL C-1990-2551-36 -8.199 3375.00 -1450.22793779 0 0 171 (C1) n - 1
REM
REM Run started: at 2021.01.01 19:08:31 in /gpfs/home/chem/mssmkc/CARBON/AIRSS/Generating-Clusters/Str-Search/Higher-Symm/C100-200
REM VASP from code version vasp.5.4.4.18Apr17-6-g9f103f2a35 (build Oct 11 2019 16:45:47) gamma-only
REM
REM
REM
REM
REM ./C.cell (533062f00bc710175b3da973d35f2034)
REM AIRSS Version 0.9.1 bugfix July 2018 build 013d7b7c2542+ Fri, 06 Jul 2018 19:26:36 +0100
REM compiler GCC version 6.3.0
REM options -cpp -iprefix /gpfs/warwick/csc/orac/software/Core/GCCcore/6.3.0/bin/../lib/gcc/x86_64-pc-linux-gnu/6.3.0/ -mtune=generic -march=x86-64 -g -O0
REM seed -433405347 2124512533 -1167957226 2050668109 1396440866 -1421945907 -1864320549 1507862823 825334596 -924070853 -2047059128 -1110336478
REM
REM C.POTCAR (d86ddea03c3ceb6dc662c8ad6801f873)
REM 
CELL 1.54180   15.00000   15.00000   15.00000   90.00000   90.00000   90.00000
LATT -1
SFAC C  
C      1  0.8021177562622  0.5635539984081  0.5536851167677 1.0
C      1  0.7363966582958  0.4926304754145  0.3319423929377 1.0
C      1  0.4541372473090  0.5600870480268  0.1582866590685 1.0
C      1  0.2358690005183  0.5670892473599  0.3212676474816 1.0
C      1  0.1932654572220  0.5513536943237  0.5954291692258 1.0
C      1  0.3867612011713  0.5144433401978  0.7850366036120 1.0
C      1  0.6580080685014  0.5680016020150  0.7838007149537 1.0
C      1  0.8504068074003  0.4391314430766  0.6439001492185 1.0
C      1  0.8123896699694  0.3703337625367  0.3234813247459 1.0
C      1  0.5410535169658  0.4265676344429  0.1382014217170 1.0
C      1  0.2448787701610  0.4368838277511  0.2228327269384 1.0
C      1  0.1311155626978  0.4223378223546  0.5180400340409 1.0
C      1  0.3032970142481  0.3780443147845  0.7810432198063 1.0
C      1  0.6209084309657  0.4308696886149  0.8617984927024 1.0
C      1  0.4478330359138  0.7811561268685  0.7663446160311 1.0
C      1  0.6714781572793  0.8029871228472  0.7107431847970 1.0
C      1  0.7323864996909  0.7215295432729  0.5195905218630 1.0
C      1  0.6604063785820  0.7871045665494  0.2767762071880 1.0
C      1  0.4382290172967  0.7872015332902  0.2376264610116 1.0
C      1  0.2676290100552  0.7670231190101  0.3946244060196 1.0
C      1  0.2631023357625  0.7642141593049  0.6279657982002 1.0
C      1  0.3701114803023  0.4371244958729  0.1183742300238 1.0
C      1  0.1513535930810  0.4379620017101  0.3578395989653 1.0
C      1  0.1800428067028  0.4126200327219  0.6760314186012 1.0
C      1  0.4585964856417  0.3704668467046  0.8251287650491 1.0
C      1  0.7710023921379  0.4525309019107  0.7892016317128 1.0
C      1  0.8545625033903  0.4260338763843  0.4782750668647 1.0
C      1  0.6666537034905  0.3776516974590  0.2440581203627 1.0
C      1  0.3142336870250  0.2108775948299  0.6941594168307 1.0
C      1  0.6077174510722  0.2865086506261  0.7826815617257 1.0
C      1  0.7755547381911  0.2602776602578  0.6380313356569 1.0
C      1  0.7582942591106  0.2135957502225  0.4178915211785 1.0
C      1  0.5279859704762  0.2876286058858  0.2096108967030 1.0
C      1  0.3143465946124  0.2690861169070  0.2894114098665 1.0
C      1  0.2175523724798  0.2491587359929  0.4968487040482 1.0
C      1  0.7938435746819  0.6972995237894  0.3131511510343 1.0
C      1  0.6157072510857  0.7544949415290  0.1931828623933 1.0
C      1  0.3455922705602  0.7476495677029  0.2229526526600 1.0
C      1  0.1901318864931  0.7408941702140  0.4561169301932 1.0
C      1  0.2769550705942  0.7235014685305  0.7240966806024 1.0
C      1  0.5248394764384  0.7509628510599  0.8226744072419 1.0
C      1  0.7546955219205  0.7520493722111  0.6897756271549 1.0
C      1  0.5124807395841  0.7915936100949  0.6901554053055 1.0
C      1  0.6659088707159  0.8338002194426  0.6169211726100 1.0
C      1  0.6819344246715  0.7534208867048  0.4364241570044 1.0
C      1  0.5787902787144  0.8269362032049  0.3058860771935 1.0
C      1  0.4156940408185  0.7861258523892  0.3350546260533 1.0
C      1  0.3228116314041  0.7798232698943  0.4774631407216 1.0
C      1  0.3614306791829  0.7861560338714  0.6339068145589 1.0
C      1  0.5556904853318  0.6607045574901  0.3420999897388 1.0
C      1  0.4601456931859  0.6886979272524  0.3622800538499 1.0
C      1  0.3782467964961  0.6922779656027  0.5017067233877 1.0
C      1  0.4003529269123  0.6922423223799  0.6009689263120 1.0
C      1  0.4953902231336  0.6912838754219  0.6396407381458 1.0
C      1  0.5679358500342  0.6760234052571  0.5795630868832 1.0
C      1  0.6169223289703  0.6677807325541  0.4217098672620 1.0
C      1  0.7708684302576  0.3138715727039  0.7169402587867 1.0
C      1  0.8106391454427  0.2783135366818  0.4635687702717 1.0
C      1  0.5906406629977  0.3584107114818  0.1882923022024 1.0
C      1  0.3490783864152  0.3097613816585  0.2090140604535 1.0
C      1  0.1925435773106  0.3010382618392  0.4201899275359 1.0
C      1  0.2447521479119  0.2716425062160  0.6699227615426 1.0
C      1  0.5564944757964  0.3610920335345  0.8220211784314 1.0
C      1  0.2340344423191  0.3495577898056  0.7238738570518 1.0
C      1  0.5296166458737  0.4336068185742  0.7463201639829 1.0
C      1  0.8153610318192  0.3989192579934  0.7223359847262 1.0
C      1  0.8366749682937  0.3564380109637  0.4147142427856 1.0
C      1  0.5797332236231  0.5025855331538  0.3185946856424 1.0
C      1  0.3066041582461  0.3881935407132  0.1705970829199 1.0
C      1  0.1405885137128  0.3813356331325  0.4333652222813 1.0
C      1  0.3173414235068  0.7712939356880  0.3180884769245 1.0
C      1  0.2401142611448  0.7713934842285  0.5382880294032 1.0
C      1  0.3628126848354  0.7731714934108  0.7324143503771 1.0
C      1  0.5894012553921  0.7806336323619  0.7518327828328 1.0
C      1  0.7387483103171  0.7751199978491  0.5926738876581 1.0
C      1  0.7261388446828  0.7545944532727  0.3391711855266 1.0
C      1  0.5293700186643  0.7987040676104  0.2250401825479 1.0
C      1  0.5479571962380  0.5891175319726  0.2864773392847 1.0
C      1  0.4070262095384  0.5945347557953  0.3384296537554 1.0
C      1  0.3235357680464  0.6022886729645  0.4775199392883 1.0
C      1  0.3599109485501  0.5981628017995  0.6284406350026 1.0
C      1  0.5042788889414  0.6070765304851  0.6968725361555 1.0
C      1  0.6367704703484  0.6105095459771  0.6126146013636 1.0
C      1  0.6715192030068  0.5845433058452  0.4582428124981 1.0
C      1  0.2737662980931  0.5890951986095  0.5698365225430 1.0
C      1  0.3866251231194  0.5948206268962  0.7322338651463 1.0
C      1  0.6091368375340  0.6033093415568  0.7145628050241 1.0
C      1  0.7194247462608  0.6220206774912  0.5435306262978 1.0
C      1  0.7433852743529  0.5346730732806  0.4130014207547 1.0
C      1  0.4582214195877  0.5809387258705  0.2492819922917 1.0
C      1  0.3087793139120  0.5957401275651  0.3715440581940 1.0
C      1  0.3939726143821  0.2390409282540  0.7384693674662 1.0
C      1  0.6983652048596  0.3151614365144  0.7820515088243 1.0
C      1  0.8212188654503  0.2956560510273  0.5606212325454 1.0
C      1  0.7075657557474  0.2399281737231  0.3354993198712 1.0
C      1  0.4408882683109  0.3111583275200  0.1757818733901 1.0
C      1  0.2344278385653  0.3079328429723  0.3299472778426 1.0
C      1  0.1973478110113  0.2848714231606  0.5849554633223 1.0
C      1  0.5609481876992  0.5998260077548  0.8970617733843 1.0
C      1  0.8073560560287  0.5886655241081  0.7094386958136 1.0
C      1  0.8626814370832  0.5437377615663  0.2757025851206 1.0
C      1  0.6039272565206  0.5943204554682  0.1310811056694 1.0
C      1  0.3014855007002  0.5828751217124  0.1680137406449 1.0
C      1  0.1306766151289  0.5744555640289  0.4481642071307 1.0
C      1  0.2428111451341  0.5429776425018  0.7535456715413 1.0
C      1  0.7194632410550  0.1241899219782  0.5609502390004 1.0
C      1  0.6208559198909  0.1972673455729  0.3251532873397 1.0
C      1  0.4631798220093  0.1852491071057  0.3209797730953 1.0
C      1  0.3491909378007  0.1682948910940  0.4211709689916 1.0
C      1  0.3218433514947  0.1416040442165  0.5678215775282 1.0
C      1  0.4759078788015  0.1961406921957  0.7065044466817 1.0
C      1  0.6281174235009  0.1703313034144  0.6712623001649 1.0
C      1  0.3030900677874  0.4753660737066  0.7931134576029 1.0
C      1  0.6100964156589  0.5297101837281  0.8627434022283 1.0
C      1  0.8393463042545  0.5350186613041  0.6354474650730 1.0
C      1  0.8235932099064  0.4652285166071  0.2951633017185 1.0
C      1  0.5445938583486  0.5239531487638  0.1295009007615 1.0
C      1  0.2510631460823  0.5328089301149  0.2304133411675 1.0
C      1  0.1343831672419  0.5175062524965  0.5247032370451 1.0
C      1  0.2877561345084  0.6326892498182  0.7497771854444 1.0
C      1  0.5350923093357  0.6781111457884  0.8777845825056 1.0
C      1  0.7979845105383  0.6787912761435  0.7117251589553 1.0
C      1  0.8376459464827  0.6285160832128  0.2884859750710 1.0
C      1  0.6214835756483  0.6755731721366  0.1486168242365 1.0
C      1  0.3275192205206  0.6722859590790  0.1786272239834 1.0
C      1  0.1425406260632  0.6660216404794  0.4577198657310 1.0
C      1  0.4282311816178  0.1268947884806  0.4601148963212 1.0
C      1  0.4170788545712  0.1255521696903  0.5565254398381 1.0
C      1  0.4815112857014  0.1361105893002  0.6269394713370 1.0
C      1  0.5749357734329  0.1153486820394  0.6128522589369 1.0
C      1  0.6457524219251  0.0958548604425  0.4524103975887 1.0
C      1  0.5899839420201  0.1319499963629  0.3894028802789 1.0
C      1  0.4952591372139  0.1335659312060  0.3943462399079 1.0
C      1  0.8131969891841  0.5122555744158  0.4747976675389 1.0
C      1  0.6612406103576  0.4612633106093  0.2884397808459 1.0
C      1  0.3692919254276  0.5295170560444  0.1235247249249 1.0
C      1  0.1576373538293  0.5307195059389  0.3671441826951 1.0
C      1  0.1918642827103  0.5071475785113  0.6833185588553 1.0
C      1  0.4592534610855  0.4627517917602  0.8002784927274 1.0
C      1  0.7501662930804  0.5406402268055  0.7695122497734 1.0
C      1  0.4200550756769  0.5327336458359  0.5812716187568 1.0
C      1  0.5011660840786  0.5304390847868  0.6249507184228 1.0
C      1  0.5823486725508  0.5314224742940  0.5738884864585 1.0
C      1  0.5988856924866  0.5166101387026  0.4841951093551 1.0
C      1  0.5412537307866  0.4983879178716  0.4062516711785 1.0
C      1  0.4494297011262  0.5296971931897  0.4115735362117 1.0
C      1  0.3995857708775  0.5359040262177  0.4886828066831 1.0
C      1  0.5698189868785  0.2189070448430  0.7294202727373 1.0
C      1  0.7166898371933  0.1839197554768  0.6332359437876 1.0
C      1  0.7306808425833  0.1380393253350  0.4660407591016 1.0
C      1  0.5393066487799  0.2241525480721  0.2771087587294 1.0
C      1  0.3696428445820  0.2073262547412  0.3366865926147 1.0
C      1  0.2836533745682  0.1803817085130  0.4892323115236 1.0
C      1  0.2880837560030  0.1281990575703  0.6548989663881 1.0
C      1  0.4534042333131  0.3902902901493  0.1257489589184 1.0
C      1  0.2044074883630  0.3907497235059  0.2943194014539 1.0
C      1  0.1574555100627  0.3712979377070  0.5930308417032 1.0
C      1  0.3844732384570  0.3227833845032  0.7881075050890 1.0
C      1  0.7024701680357  0.3993229604189  0.8286696635258 1.0
C      1  0.8545612490238  0.3862113996606  0.5658514670907 1.0
C      1  0.7344189163642  0.3205703620657  0.2898497272586 1.0
C      1  0.5075761114982  0.8493219889747  0.6086386232956 1.0
C      1  0.5941212312982  0.8502200351681  0.5592696529507 1.0
C      1  0.6109265990811  0.8317512611565  0.4637622826861 1.0
C      1  0.5494644367986  0.8503461988252  0.3939942242275 1.0
C      1  0.4510909313735  0.8480874891583  0.4067607164261 1.0
C      1  0.3974414751027  0.8472176781853  0.4830257336436 1.0
C      1  0.4209740708899  0.8484618307279  0.5771021117882 1.0
C      1  0.6325725179917  0.0805111864164  0.5474610257682 1.0
C      1  0.5474557225378  0.6825358869970  0.4905017476839 1.0
C      1  0.4637054849235  0.6914339265395  0.4572661483725 1.0
END
