TITL C-196603-3620-3 -8.633 3375.00 -2921.68866596 0 0 350 (C1) n - 1
REM
REM Run started: at 2020.11.25 07:25:01 in /rds/project/t2_vol4/rds-t2-cs072/BORA/CARBON/AIRSS/Generating-Clusters/Str-Search/Higher-Symm
REM VASP from code version vasp.5.4.4.18Apr17-6-g9f103f2a35 (build Oct 11 2019 16:45:47) gamma-only
REM
REM
REM
REM
REM ./C.cell (e5ae0387ce4d49c7c0135a1433873289)
REM AIRSS Version 0.9.1 bugfix July 2018 build 013d7b7c2542+ Fri, 06 Jul 2018 19:26:36 +0100
REM compiler GCC version 4.8.5 20150623 (Red Hat 4.8.5-39)
REM options -cpp -mtune=generic -march=x86-64 -g -O0
REM seed -807449442 1487098170 -971281363 812744717 140823467 1920991472 1775470611 -369605110 874396245 -272816743 741450930 417992981
REM
REM C.POTCAR (d86ddea03c3ceb6dc662c8ad6801f873)
REM 
CELL 1.54180   15.00000   15.00000   15.00000   90.00000   90.00000   90.00000
LATT -1
SFAC C  
C      1  0.7848546624880  0.4575256109959  0.3586981834618 1.0
C      1  0.2156474335577  0.4559180565641  0.6422127372355 1.0
C      1  0.7866238442023  0.5478514401247  0.6445386487317 1.0
C      1  0.2149715983588  0.5482860661561  0.3561623433213 1.0
C      1  0.3606523887780  0.4526816196824  0.7825767723450 1.0
C      1  0.6409865649041  0.4545271453567  0.2162791835407 1.0
C      1  0.6432735852784  0.5498732012353  0.7832625634382 1.0
C      1  0.3573661184821  0.5480712777062  0.2146846748485 1.0
C      1  0.4369393301003  0.6438295408938  0.8272141149852 1.0
C      1  0.5645508425564  0.6440948362132  0.1700285083804 1.0
C      1  0.4423153539153  0.3763997266088  0.1662204491000 1.0
C      1  0.5588948160902  0.3763446547666  0.8336161719782 1.0
C      1  0.8252362931690  0.6552086892876  0.4324656463890 1.0
C      1  0.1714969490183  0.6443867849607  0.5643921482551 1.0
C      1  0.1663536920436  0.3778787669531  0.4419683099518 1.0
C      1  0.8336988561661  0.3780770970341  0.5576522595066 1.0
C      1  0.6110541634923  0.1997143997595  0.1442730577955 1.0
C      1  0.3877206014715  0.1994708074019  0.8575244636877 1.0
C      1  0.6040148201432  0.7991460619170  0.8520926217240 1.0
C      1  0.3961202964084  0.7984495869908  0.1444611401940 1.0
C      1  0.1402347909964  0.2000713185285  0.6110661756207 1.0
C      1  0.8576220264511  0.2008971979768  0.3913507396850 1.0
C      1  0.8566809295159  0.8055883001386  0.6049957169172 1.0
C      1  0.1441331191612  0.7980985467837  0.3954607359059 1.0
C      1  0.4342981793678  0.5950297040722  0.0638933172234 1.0
C      1  0.5670346027272  0.5950204765169  0.9340156201562 1.0
C      1  0.4326654716905  0.3918952089785  0.9353372129317 1.0
C      1  0.5687140855205  0.3920127955967  0.0642558625632 1.0
C      1  0.0638272784081  0.5969883649067  0.4332708351207 1.0
C      1  0.9342475695911  0.5975625368755  0.5666526712941 1.0
C      1  0.9357868533959  0.3950072783106  0.4316798819032 1.0
C      1  0.0646382656317  0.3931448937680  0.5681926752317 1.0
C      1  0.6028837264752  0.2291419225450  0.7433856421851 1.0
C      1  0.4004695168765  0.2301494532358  0.2645290298623 1.0
C      1  0.6126427240254  0.7655625357593  0.2598283140850 1.0
C      1  0.3916279892725  0.7655229046540  0.7368540670238 1.0
C      1  0.7394083758489  0.2225529794134  0.6042794602160 1.0
C      1  0.2588473574622  0.2261236591083  0.3977210053841 1.0
C      1  0.2589119377302  0.7669671511273  0.6117453243990 1.0
C      1  0.7493909648836  0.7827909364712  0.3816738781194 1.0
C      1  0.6481188649825  0.2344329639216  0.5790381877702 1.0
C      1  0.3517080411555  0.2384961689775  0.4249841140811 1.0
C      1  0.6591314014671  0.7898576450556  0.4183187279526 1.0
C      1  0.3461455030053  0.7937852036880  0.5785914913087 1.0
C      1  0.5769245580412  0.2344981689801  0.6499941616739 1.0
C      1  0.4267690860266  0.2357351492704  0.3586341663347 1.0
C      1  0.4251994795173  0.7942717457710  0.6485150349860 1.0
C      1  0.5816710574571  0.7917614156730  0.3503746977737 1.0
C      1  0.8627683732951  0.6661112377314  0.2577546650579 1.0
C      1  0.1367723214140  0.6641750395471  0.7403377440848 1.0
C      1  0.8568523269549  0.3283473764394  0.7337374770842 1.0
C      1  0.1440261999578  0.3282808724491  0.2660876238812 1.0
C      1  0.2623768721378  0.6620725272205  0.8621287128541 1.0
C      1  0.7393290366708  0.6624929033806  0.1350554093742 1.0
C      1  0.7346782632305  0.3292522030163  0.8565007694940 1.0
C      1  0.2672135065150  0.3286709881021  0.1439347279483 1.0
C      1  0.7515853175191  0.2474641585887  0.8224556663634 1.0
C      1  0.2523959003875  0.2476076548140  0.1801751079701 1.0
C      1  0.7560908249609  0.7443988042176  0.1683690402156 1.0
C      1  0.2464927532026  0.7432964541410  0.8262776234910 1.0
C      1  0.8219723794463  0.2469330555139  0.7513379978215 1.0
C      1  0.1807978834587  0.2472822336292  0.2495289861963 1.0
C      1  0.1744314450751  0.7444356646297  0.7580485424423 1.0
C      1  0.8287250315537  0.7476328650284  0.2362891174445 1.0
C      1  0.4127486540013  0.4647046196751  0.8707196107623 1.0
C      1  0.5886599051232  0.4653324236161  0.1281324594706 1.0
C      1  0.4028358852641  0.5262001821441  0.1262745973337 1.0
C      1  0.5981962341646  0.5266047625896  0.8717010033173 1.0
C      1  0.8720427598278  0.4690870747110  0.4118859691930 1.0
C      1  0.1280002908192  0.4668813958068  0.5888638169816 1.0
C      1  0.1260798711593  0.5274248630863  0.4018931384096 1.0
C      1  0.8740959512016  0.5270173558285  0.5985177749506 1.0
C      1  0.7917737990701  0.5473583329320  0.9644626059000 1.0
C      1  0.2092955501867  0.5466668556591  0.0347603727508 1.0
C      1  0.7904431597335  0.4387939259152  0.0370858669679 1.0
C      1  0.2107960781849  0.4384120324087  0.9618560200551 1.0
C      1  0.9651735718415  0.5471491398485  0.7917602622036 1.0
C      1  0.0356286635269  0.5478135246728  0.2081555401014 1.0
C      1  0.0383154885239  0.4391330784967  0.7897471272849 1.0
C      1  0.9622130539624  0.4402866721011  0.2104409370830 1.0
C      1  0.4033614900729  0.9947521350719  0.2663377097733 1.0
C      1  0.5911720414072  0.9995082046960  0.7361026219442 1.0
C      1  0.3816507816438  0.9991016925277  0.7529559811460 1.0
C      1  0.6113279386737  0.0002710277231  0.2530323476357 1.0
C      1  0.2622093105381  0.9963843321594  0.4061787888189 1.0
C      1  0.7291870624632  0.0012087525749  0.5951342000188 1.0
C      1  0.7465574292801  0.9998073706156  0.3899642677314 1.0
C      1  0.2457263544527  0.0006669180248  0.6152394046209 1.0
C      1  0.4875986170856  0.1004739135354  0.1500202255099 1.0
C      1  0.5069595322584  0.0972661674442  0.8587825058924 1.0
C      1  0.4714670570449  0.8879940832201  0.8568010606404 1.0
C      1  0.5282367380118  0.8880488537903  0.1443499409932 1.0
C      1  0.1427691452373  0.0991777327901  0.4903818652830 1.0
C      1  0.8470514078199  0.1046776638785  0.5145852121484 1.0
C      1  0.8580097632821  0.8944600116170  0.4748122271936 1.0
C      1  0.1416378018458  0.8881664966102  0.5274676198995 1.0
C      1  0.7730978486783  0.2966721020057  0.3007591821095 1.0
C      1  0.2270781793805  0.2952547492736  0.7001985602836 1.0
C      1  0.7742696354930  0.7096595893498  0.6992489482663 1.0
C      1  0.2310079776620  0.7077821497799  0.3012968355901 1.0
C      1  0.3011227170175  0.2934638721395  0.7678335331035 1.0
C      1  0.7005921523036  0.2952206860973  0.2311762057467 1.0
C      1  0.6990345870728  0.7108386818867  0.7651806298362 1.0
C      1  0.3027365399802  0.7081428876728  0.2316492906782 1.0
C      1  0.6157746082364  0.4220758699691  0.6836809347593 1.0
C      1  0.3855386259952  0.4225163332679  0.3162038955616 1.0
C      1  0.6138789770243  0.5918290715714  0.3111468364916 1.0
C      1  0.3893078984048  0.5864728980278  0.6854624683361 1.0
C      1  0.6842245445030  0.4239556639207  0.6149474999818 1.0
C      1  0.3166326295621  0.4237197500367  0.3849779062827 1.0
C      1  0.3135187972630  0.5864057703072  0.6108536534918 1.0
C      1  0.6821048967340  0.5895712067654  0.3815954999807 1.0
C      1  0.3814038652914  0.9527595437625  0.5391861902871 1.0
C      1  0.6130820264233  0.9488124860256  0.4676992459590 1.0
C      1  0.3284846809698  0.0792336244538  0.4957737490892 1.0
C      1  0.6557419034898  0.0827425471955  0.5055873987686 1.0
C      1  0.5346347026791  0.9488511113239  0.3879902852426 1.0
C      1  0.4593008657270  0.9546671633057  0.6168413923878 1.0
C      1  0.4890688582778  0.0767221758847  0.3364844354192 1.0
C      1  0.4986751657137  0.0824345623703  0.6730434408091 1.0
C      1  0.5500011461471  0.7432867704739  0.1894476463674 1.0
C      1  0.4523635711608  0.7430024560506  0.8079152000211 1.0
C      1  0.5386323293822  0.2248458641092  0.8075491096068 1.0
C      1  0.4624005400894  0.2281031535482  0.1973121277020 1.0
C      1  0.1898785491236  0.7437256529394  0.5491844503357 1.0
C      1  0.8156372421866  0.7542308134904  0.4465160376656 1.0
C      1  0.8055562552801  0.2288863571772  0.5407878268941 1.0
C      1  0.1934471748086  0.2267183386592  0.4612477716174 1.0
C      1  0.4110408110554  0.1056638228553  0.8673384602715 1.0
C      1  0.5838611605437  0.1063501216246  0.1398759047237 1.0
C      1  0.4312587922891  0.8891678490080  0.1479421966677 1.0
C      1  0.5678236390645  0.8899610336111  0.8524011566951 1.0
C      1  0.8597789692899  0.1075230288151  0.4189000589399 1.0
C      1  0.1324458204652  0.1063719934034  0.5859673908749 1.0
C      1  0.1456579219417  0.8889924799060  0.4305234225462 1.0
C      1  0.8530257610185  0.8969144134448  0.5709837715953 1.0
C      1  0.4267882790499  0.6504626077099  0.4999895415937 1.0
C      1  0.5772523389442  0.6445992490629  0.4954074880748 1.0
C      1  0.4259291069155  0.3755055946927  0.4970089343069 1.0
C      1  0.5756807701493  0.3813728853833  0.5011544537356 1.0
C      1  0.5009712628415  0.6499947200819  0.4266311622385 1.0
C      1  0.5049476873700  0.6539082094275  0.5684289206780 1.0
C      1  0.5034193339337  0.3735799028733  0.4287239086856 1.0
C      1  0.4990467197812  0.3739672997487  0.5719203411198 1.0
C      1  0.8722221156139  0.5949891995263  0.1927217544137 1.0
C      1  0.1280519923827  0.5943956736622  0.8066542702582 1.0
C      1  0.8718778243113  0.3934787676353  0.8054172668924 1.0
C      1  0.1290816016595  0.3931750225483  0.1941531745971 1.0
C      1  0.1948046129454  0.5936435279417  0.8718401578637 1.0
C      1  0.8065876944621  0.5935926516795  0.1267545386489 1.0
C      1  0.8063923862971  0.3940493158904  0.8707642267785 1.0
C      1  0.1948508568209  0.3929972869290  0.1287019077309 1.0
C      1  0.5258365240452  0.4144292619403  0.7482957188965 1.0
C      1  0.4759081850673  0.4158678715316  0.2504385266352 1.0
C      1  0.5327156706106  0.6024804627900  0.2565951422613 1.0
C      1  0.4683867143192  0.6026045843614  0.7398808870542 1.0
C      1  0.7495321419880  0.4195127974031  0.5241097110104 1.0
C      1  0.2504189293383  0.4170889198316  0.4760228858206 1.0
C      1  0.2583460584452  0.6015843576112  0.5321973780986 1.0
C      1  0.7266128261471  0.6312927099296  0.4642666883328 1.0
C      1  0.7863109810068  0.6114007530386  0.7214451948725 1.0
C      1  0.2164873989841  0.6106967594369  0.2799893143698 1.0
C      1  0.7856496353092  0.3952162710381  0.2798331911316 1.0
C      1  0.2154723982175  0.3937604234118  0.7207857706123 1.0
C      1  0.7182449416014  0.6134053090375  0.7825796407197 1.0
C      1  0.2819590783725  0.6109521626565  0.2162037988452 1.0
C      1  0.2825331243806  0.3918282959143  0.7830432414909 1.0
C      1  0.7197518517350  0.3936348883264  0.2161717701080 1.0
C      1  0.3423719629556  0.6076262484617  0.8391338514615 1.0
C      1  0.6594430711350  0.6083509254124  0.1583464139216 1.0
C      1  0.3419851046693  0.3917420658205  0.1620902563396 1.0
C      1  0.6593706175630  0.3919323488604  0.8375364444864 1.0
C      1  0.8388751104119  0.6133291948386  0.3398108609964 1.0
C      1  0.1595078451548  0.6097734213910  0.6595264234688 1.0
C      1  0.1624131630314  0.3919878453802  0.3412271506418 1.0
C      1  0.8381338260831  0.3917380403455  0.6585752588605 1.0
C      1  0.1393174358284  0.5826209941579  0.0781816984634 1.0
C      1  0.8619890097039  0.5831861357833  0.9216166376664 1.0
C      1  0.1404821143781  0.4027640223195  0.9193928142256 1.0
C      1  0.8608538616094  0.4036438622061  0.0798399616685 1.0
C      1  0.0793842813648  0.5832192247013  0.1380802769515 1.0
C      1  0.9218094870638  0.5830891773026  0.8616584858472 1.0
C      1  0.9199086143994  0.4044543898867  0.1400647266727 1.0
C      1  0.0809435302980  0.4029277653551  0.8596644018146 1.0
C      1  0.3446798395233  0.0632824117822  0.8133547334833 1.0
C      1  0.6498941375485  0.0643616163595  0.1937059615069 1.0
C      1  0.3664661957428  0.9302642235359  0.2064945532977 1.0
C      1  0.6304088452301  0.9332910941107  0.7931305207970 1.0
C      1  0.8065279434411  0.0653309431652  0.3535981248782 1.0
C      1  0.1858344472611  0.0641793253545  0.6531665906291 1.0
C      1  0.2044774774315  0.9308945244508  0.3667682309984 1.0
C      1  0.7900195173362  0.9362445706451  0.6320883228177 1.0
C      1  0.2281643180865  0.9221929272114  0.5676669705212 1.0
C      1  0.7672344285008  0.9224742803262  0.4370574581460 1.0
C      1  0.2327198163865  0.0640135597738  0.4595012919360 1.0
C      1  0.7541840231690  0.0726676706470  0.5448017864082 1.0
C      1  0.5672759301205  0.9204353397777  0.2331921832835 1.0
C      1  0.4307973977411  0.9215565609623  0.7699580174761 1.0
C      1  0.4555602942506  0.0642189317117  0.2390972622547 1.0
C      1  0.5366156629037  0.0657650955558  0.7678147179102 1.0
C      1  0.4806676394791  0.2443891600323  0.0450929659006 1.0
C      1  0.5178540657088  0.2437306543164  0.9579847351623 1.0
C      1  0.4817772668966  0.7417227901663  0.9560983176321 1.0
C      1  0.5205608100828  0.7423745170601  0.0413778489970 1.0
C      1  0.0426627367290  0.2454993214771  0.4812605132130 1.0
C      1  0.9563079425628  0.2460363145669  0.5191459082713 1.0
C      1  0.9592688755609  0.7458813353643  0.4820779828796 1.0
C      1  0.0430540475566  0.7423855083683  0.5206132471900 1.0
C      1  0.9191239093663  0.6473366776377  0.4783639186542 1.0
C      1  0.0783877658742  0.6435306160755  0.5222534701213 1.0
C      1  0.9226300703527  0.3454600476162  0.5224189183746 1.0
C      1  0.0774697716474  0.3446234259635  0.4769113362762 1.0
C      1  0.4789175301980  0.6426261639569  0.9202033740253 1.0
C      1  0.5228040925565  0.6428784534051  0.0774119544281 1.0
C      1  0.5235502225727  0.3428355334784  0.9225344718263 1.0
C      1  0.4774921977302  0.3434612873442  0.0777321745399 1.0
C      1  0.5466499411209  0.1445486446416  0.6235382840347 1.0
C      1  0.4419944458559  0.1423579212869  0.3862819623267 1.0
C      1  0.5522475318629  0.8818081212913  0.3224737979397 1.0
C      1  0.4510472321377  0.8841845509194  0.6805575613009 1.0
C      1  0.5939221044931  0.1542205884508  0.5366950703577 1.0
C      1  0.3801490178346  0.1455369675224  0.4520551202180 1.0
C      1  0.3166323344446  0.8840146691264  0.5516666276048 1.0
C      1  0.6791286348495  0.8787234831481  0.4604004097103 1.0
C      1  0.6525260751654  0.7121929094904  0.4844951632849 1.0
C      1  0.3886059709553  0.7500366907145  0.4992758957067 1.0
C      1  0.6173466969674  0.2887943985921  0.5026684738522 1.0
C      1  0.3725179792849  0.2949196190827  0.4972689022679 1.0
C      1  0.5053602184576  0.7546255827357  0.5926968286931 1.0
C      1  0.5019763174127  0.7502675309978  0.3990861593481 1.0
C      1  0.5003708819553  0.2752238791646  0.5978418892314 1.0
C      1  0.5063942484621  0.2740842505057  0.4028272860595 1.0
C      1  0.5901041018067  0.5942416673607  0.0199966960358 1.0
C      1  0.4114545828194  0.5941241340859  0.9777894529355 1.0
C      1  0.5935349461533  0.3939338975852  0.9787261080780 1.0
C      1  0.4076046710833  0.3937998544310  0.0207622449084 1.0
C      1  0.0204704566499  0.5959410501827  0.5895225236527 1.0
C      1  0.9774306166832  0.5986148692607  0.4104256797922 1.0
C      1  0.9792437936299  0.3948161601944  0.5929620725807 1.0
C      1  0.0211192764506  0.3952616027726  0.4066422577024 1.0
C      1  0.2791964497936  0.6012381241420  0.4337620096073 1.0
C      1  0.7236823147515  0.5998638359395  0.5682195385190 1.0
C      1  0.2757670617777  0.4060767499215  0.5728180359058 1.0
C      1  0.7240908906264  0.4091652450195  0.4277054429599 1.0
C      1  0.4352917607842  0.6016513359078  0.2779467541313 1.0
C      1  0.5661711549139  0.6043059247754  0.7185865551155 1.0
C      1  0.5716553225998  0.4039059726469  0.2771106581096 1.0
C      1  0.4299999633596  0.4015399809539  0.7221054660761 1.0
C      1  0.5540504301606  0.8012032656231  0.1069773942750 1.0
C      1  0.4473129926192  0.7998558459651  0.8910012352220 1.0
C      1  0.5460927650354  0.1798773358174  0.8941860304229 1.0
C      1  0.4508440775894  0.1830487215078  0.1110682912361 1.0
C      1  0.1076985061625  0.8012682055665  0.5542324090797 1.0
C      1  0.8978417337509  0.8093316249168  0.4479215442224 1.0
C      1  0.8913110179889  0.1844754978754  0.5517576092010 1.0
C      1  0.1069544472438  0.1819375828700  0.4520589576251 1.0
C      1  0.1778330637840  0.7914074791982  0.3075200161286 1.0
C      1  0.8229648689928  0.7966315389958  0.6923513655420 1.0
C      1  0.1717795514416  0.2122845637562  0.6980062806300 1.0
C      1  0.8265323451310  0.2121038092866  0.3044230368190 1.0
C      1  0.3083826899097  0.7914655916343  0.1785321465751 1.0
C      1  0.6918711486925  0.7941410354695  0.8187621410990 1.0
C      1  0.6977836797121  0.2112998474773  0.1764247293738 1.0
C      1  0.3012069813145  0.2117226012688  0.8247794933072 1.0
C      1  0.7686880924031  0.7950686563246  0.2956986612922 1.0
C      1  0.2365663227071  0.7853643414946  0.6960832226892 1.0
C      1  0.7577325383431  0.2030089386908  0.6927704499213 1.0
C      1  0.2436828801428  0.2034730399090  0.3096838630568 1.0
C      1  0.3071508808948  0.7837347663316  0.7614673239353 1.0
C      1  0.6961107184690  0.7869689627597  0.2329036704809 1.0
C      1  0.6912104456485  0.2043911440150  0.7594030931192 1.0
C      1  0.3123740668852  0.2060375676533  0.2456797325555 1.0
C      1  0.5639992905179  0.4278624410114  0.3711055940310 1.0
C      1  0.4363120056562  0.4256806761612  0.6284788529166 1.0
C      1  0.5599802866385  0.5895151715335  0.6227949668273 1.0
C      1  0.4402981278817  0.5887923110924  0.3749595970559 1.0
C      1  0.3721048737724  0.4303157029080  0.5648081545704 1.0
C      1  0.6285153894783  0.4353553938133  0.4342194592293 1.0
C      1  0.6249321627392  0.5821687681480  0.5613864890931 1.0
C      1  0.3767569088568  0.5882145330292  0.4389463183107 1.0
C      1  0.7630729958233  0.4538040526860  0.9399864559141 1.0
C      1  0.2380375817305  0.4529066140892  0.0590736506392 1.0
C      1  0.7601247970282  0.5321230737563  0.0612647861892 1.0
C      1  0.2410412050195  0.5319521039720  0.9376234987251 1.0
C      1  0.9411890108073  0.4534573587447  0.7624262578323 1.0
C      1  0.0595982949096  0.4538947918310  0.2372697873568 1.0
C      1  0.0620371260841  0.5330282401011  0.7601555987293 1.0
C      1  0.9382885392096  0.5344271203122  0.2401231307246 1.0
C      1  0.4502815775897  0.7454156506451  0.1968849472110 1.0
C      1  0.5513860931405  0.7475815058351  0.7969763737389 1.0
C      1  0.4466831521943  0.2477378439831  0.8022585811901 1.0
C      1  0.5541518307287  0.2504011242704  0.1987961981136 1.0
C      1  0.1967865010921  0.7452199169681  0.4492360823144 1.0
C      1  0.8077966891966  0.7501053010397  0.5500400249579 1.0
C      1  0.8057942401147  0.2541080646887  0.4483304864713 1.0
C      1  0.1942478148538  0.2509051892958  0.5532444812891 1.0
C      1  0.3609460668326  0.9941948518829  0.4382742627983 1.0
C      1  0.6299966131397  0.9981424308096  0.5639511838288 1.0
C      1  0.3374403330774  0.0331344631769  0.5881277449198 1.0
C      1  0.6541355669736  0.0304597718013  0.4166792286460 1.0
C      1  0.4335950895047  0.9918217357359  0.3663061616442 1.0
C      1  0.5598559195871  0.9971378754723  0.6369781951694 1.0
C      1  0.5824934470275  0.0307706182806  0.3452828892599 1.0
C      1  0.4084892845115  0.0324885929566  0.6610501333356 1.0
C      1  0.9210897283234  0.4489320527762  0.6570974339562 1.0
C      1  0.0797565153668  0.4493205274295  0.3426336298749 1.0
C      1  0.9166638503602  0.5488285178834  0.3502904663917 1.0
C      1  0.0818990769310  0.5456089176569  0.6499022616285 1.0
C      1  0.6574171381299  0.4490260614155  0.9198856307175 1.0
C      1  0.3436682893584  0.4484218071736  0.0792036453974 1.0
C      1  0.3516114897972  0.5436554691887  0.9165782802115 1.0
C      1  0.6500095884040  0.5439926035921  0.0813863086911 1.0
C      1  0.6759028883136  0.5492843019808  0.2455502609114 1.0
C      1  0.3258353904604  0.5485310242168  0.7519291258622 1.0
C      1  0.6781666165998  0.4549607787999  0.7528531772265 1.0
C      1  0.3229561759695  0.4544152521901  0.2466822233283 1.0
C      1  0.2472718657463  0.5499576483823  0.6758705428097 1.0
C      1  0.7520437363069  0.5506547778053  0.3243883971584 1.0
C      1  0.7539269556254  0.4547222611721  0.6779068334504 1.0
C      1  0.2470171395308  0.4546686275407  0.3222380505840 1.0
C      1  0.2203328112826  0.8742451168367  0.2898603879585 1.0
C      1  0.7767284459232  0.8784556001354  0.7086257675568 1.0
C      1  0.2055879767257  0.1268865693984  0.7249972994872 1.0
C      1  0.7905081539306  0.1267204342562  0.2792632695781 1.0
C      1  0.2895697499451  0.8739962957184  0.2210664194826 1.0
C      1  0.7077490308191  0.8774020747797  0.7768444104976 1.0
C      1  0.7232976595528  0.1263447290846  0.2118889732604 1.0
C      1  0.2730845290348  0.1267202467124  0.7925470403642 1.0
C      1  0.7417347554639  0.3082479199222  0.3978943682610 1.0
C      1  0.2583268736765  0.3056249489990  0.6033332677775 1.0
C      1  0.7439908610096  0.6969927780465  0.6038391104838 1.0
C      1  0.2651588964675  0.6997362193683  0.3979174408207 1.0
C      1  0.3996188181881  0.2981477059729  0.7329982553145 1.0
C      1  0.6029252828625  0.3025179233839  0.2655778739646 1.0
C      1  0.6025701744730  0.7054695984008  0.7258450057163 1.0
C      1  0.4002429704650  0.7004693995247  0.2662271665404 1.0
C      1  0.5914453306067  0.2627303434462  0.3544841332879 1.0
C      1  0.4126538841128  0.2594852802765  0.6418558702489 1.0
C      1  0.5943642810694  0.7560529564294  0.6368082463846 1.0
C      1  0.4140212347430  0.7525019871720  0.3502311243943 1.0
C      1  0.3456772185799  0.2677179374223  0.5842555020012 1.0
C      1  0.6562101963061  0.2685750664513  0.4152460458600 1.0
C      1  0.6631769750883  0.7444652864908  0.5790154615151 1.0
C      1  0.3474623123018  0.7524369810749  0.4109659163605 1.0
C      1  0.4829569772020  0.4732524841753  0.1638304592226 1.0
C      1  0.5184574599997  0.4726013694592  0.8349951169601 1.0
C      1  0.1633272166003  0.4747514041308  0.4824011860349 1.0
C      1  0.8367593898573  0.4751043691588  0.5183150486572 1.0
C      1  0.4798898667533  0.7902414573568  0.4951745964311 1.0
C      1  0.5332947090828  0.2348967560064  0.4998057419861 1.0
END
