TITL C-1990-2551-45 -9.247 3375.00 -1452.32814674 0 0 179 (C1) n - 1
REM
REM Run started: at 2021.01.02 03:49:31 in /gpfs/home/chem/mssmkc/CARBON/AIRSS/Generating-Clusters/Str-Search/Higher-Symm/C100-200
REM VASP from code version vasp.5.4.4.18Apr17-6-g9f103f2a35 (build Oct 11 2019 16:45:47) gamma-only
REM
REM
REM
REM
REM ./C.cell (533062f00bc710175b3da973d35f2034)
REM AIRSS Version 0.9.1 bugfix July 2018 build 013d7b7c2542+ Fri, 06 Jul 2018 19:26:36 +0100
REM compiler GCC version 6.3.0
REM options -cpp -iprefix /gpfs/warwick/csc/orac/software/Core/GCCcore/6.3.0/bin/../lib/gcc/x86_64-pc-linux-gnu/6.3.0/ -mtune=generic -march=x86-64 -g -O0
REM seed 466000759 -1369366743 636745843 1614725702 1236364526 -1015362116 28735391 -1154274817 -682885663 827446651 1536259766 -1991773682
REM
REM C.POTCAR (d86ddea03c3ceb6dc662c8ad6801f873)
REM 
CELL 1.54180   15.00000   15.00000   15.00000   90.00000   90.00000   90.00000
LATT -1
SFAC C  
C      1  0.4394123691823  0.7419099591554  0.1340176181405 1.0
C      1  0.4424038425846  0.3364002050066  0.8811150832087 1.0
C      1  0.1813801186203  0.2170245096607  0.6963107177617 1.0
C      1  0.2309250749102  0.6930262130046  0.2710750731904 1.0
C      1  0.5418089676017  0.6057753886643  0.3025806719436 1.0
C      1  0.5344718091672  0.4038114483697  0.6903442457828 1.0
C      1  0.6403629712618  0.6304006937866  0.7784060023117 1.0
C      1  0.6236056724077  0.3635166652570  0.2192421159696 1.0
C      1  0.3288826107738  0.6246450424122  0.1663851708127 1.0
C      1  0.3206759191302  0.4022810700948  0.8316228443907 1.0
C      1  0.3429371583889  0.7784999205643  0.3437619629868 1.0
C      1  0.3362222229437  0.2091434033568  0.6420424912507 1.0
C      1  0.2167090455423  0.2923536189752  0.6377972106405 1.0
C      1  0.2294006246403  0.6688877786046  0.3682018536340 1.0
C      1  0.2736193663960  0.2397787679830  0.7145685886948 1.0
C      1  0.3036750760357  0.7551045910213  0.2542688432563 1.0
C      1  0.3472006449467  0.3389697462579  0.8890400441763 1.0
C      1  0.3486577420801  0.7165700796996  0.1761501423209 1.0
C      1  0.5695736246557  0.6320603470544  0.1136226633893 1.0
C      1  0.5762004686911  0.4320464008751  0.8972643227630 1.0
C      1  0.6589005001751  0.2033356876563  0.2415465147364 1.0
C      1  0.6472232879562  0.7933721828353  0.7679311822714 1.0
C      1  0.5258552460886  0.8697860023456  0.5060920240932 1.0
C      1  0.5256438463586  0.1325003607540  0.5025964642652 1.0
C      1  0.2799086362467  0.2535588006091  0.5640288328231 1.0
C      1  0.2887045870084  0.7333167431684  0.4219315375612 1.0
C      1  0.4606894459129  0.0570528646820  0.9948096514284 1.0
C      1  0.4487027946961  0.7875189428492  0.0480917518830 1.0
C      1  0.4084119976411  0.3384840358614  0.2133161178475 1.0
C      1  0.4184087678144  0.6515531861595  0.7843381841203 1.0
C      1  0.7152655785656  0.3869581446491  0.5844182004430 1.0
C      1  0.7144607718077  0.6162705584806  0.4132725769162 1.0
C      1  0.7160913217025  0.4805721732420  0.6078435867935 1.0
C      1  0.7112282975965  0.5224715042920  0.3884139089649 1.0
C      1  0.3568651924969  0.3321296328448  0.4307445743823 1.0
C      1  0.3611748453338  0.6675794300780  0.5671668365307 1.0
C      1  0.4505115761785  0.1935985929401  0.4650778827703 1.0
C      1  0.4515459995889  0.8076705399253  0.5440705213249 1.0
C      1  0.5566550373103  0.2937022577436  0.5566808613528 1.0
C      1  0.5591423440647  0.7108268796035  0.4440926587106 1.0
C      1  0.1512386058522  0.5035944964558  0.4199154643818 1.0
C      1  0.1252172755240  0.5311690488302  0.5916967368308 1.0
C      1  0.3479096766659  0.4309175227662  0.4032177770095 1.0
C      1  0.3508767497667  0.5693460862243  0.5985333829866 1.0
C      1  0.8379664346837  0.5673975203784  0.7291814493653 1.0
C      1  0.8322500177152  0.4348872907495  0.2662442930232 1.0
C      1  0.2706962954334  0.3180668776179  0.3837088465277 1.0
C      1  0.2707561443259  0.6795152680916  0.6054223768447 1.0
C      1  0.2656325370468  0.5615146499273  0.8183224084601 1.0
C      1  0.2588043084466  0.4450454378417  0.1967107911061 1.0
C      1  0.4296085764437  0.2129045250738  0.6496073852107 1.0
C      1  0.4322133745310  0.8021147903851  0.3630807783353 1.0
C      1  0.8412586084631  0.3951087455517  0.7167923584226 1.0
C      1  0.8418833871158  0.6074571161579  0.2790518114807 1.0
C      1  0.1142399118411  0.6142695041561  0.6311555206663 1.0
C      1  0.1174979241181  0.3758188426231  0.3329738787985 1.0
C      1  0.5502078303701  0.5416617584088  0.4872374361675 1.0
C      1  0.5458381300734  0.4610992351952  0.5109612193373 1.0
C      1  0.4860229213270  0.2146276417357  0.5614500902632 1.0
C      1  0.4855454057289  0.7891368372487  0.4485792428473 1.0
C      1  0.4835739166361  0.6470494406443  0.1258000084546 1.0
C      1  0.4864411735137  0.4266854666544  0.9045358996281 1.0
C      1  0.8914319539117  0.3699748268851  0.6456621657809 1.0
C      1  0.8951561830662  0.6306079716741  0.3486849991775 1.0
C      1  0.6328010881725  0.7463688385346  0.5133002160300 1.0
C      1  0.6293144157830  0.2574276852983  0.4862061283291 1.0
C      1  0.6950335285656  0.6872445784804  0.3446148976430 1.0
C      1  0.6916655539104  0.3193753511625  0.6553675864214 1.0
C      1  0.3725415810190  0.4913712426008  0.5483336472956 1.0
C      1  0.3792845392576  0.5052388495751  0.4568119674706 1.0
C      1  0.3785636293654  0.5999214563649  0.3309440021425 1.0
C      1  0.3573737898059  0.3859733207925  0.6692101387881 1.0
C      1  0.7606858689615  0.4687571661893  0.4573527332786 1.0
C      1  0.7631841660480  0.5345998448916  0.5385768334329 1.0
C      1  0.5173505266665  0.6576737025061  0.5855661797288 1.0
C      1  0.5136865071642  0.3441373803624  0.4138404626775 1.0
C      1  0.3178371485930  0.3651103613299  0.1858006456438 1.0
C      1  0.3334671267940  0.6295080517444  0.8223899255627 1.0
C      1  0.5988618478603  0.5373770927157  0.2572956848592 1.0
C      1  0.5969790752021  0.4680561392653  0.7343709054453 1.0
C      1  0.5804193627492  0.6249702744436  0.8494907605233 1.0
C      1  0.5587591502740  0.3510259099016  0.1521720932300 1.0
C      1  0.5306634581131  0.6276145320523  0.6704390171059 1.0
C      1  0.5221396699959  0.3753283983906  0.3278011602307 1.0
C      1  0.4596305207603  0.2347329374969  0.7396408946302 1.0
C      1  0.4805783364571  0.8143579379512  0.2833996914139 1.0
C      1  0.3876822000853  0.1123574016926  0.4749936944657 1.0
C      1  0.3865559442753  0.8866695203324  0.5279250483501 1.0
C      1  0.6251320408010  0.8473513895707  0.5215267079367 1.0
C      1  0.6246751548415  0.1553546046878  0.4843162938696 1.0
C      1  0.9055555353494  0.6164712121004  0.5160808210716 1.0
C      1  0.9028713781016  0.3871469951262  0.4789409056279 1.0
C      1  0.6114284505592  0.1939211985363  0.1608473358179 1.0
C      1  0.5954898449575  0.8113438255764  0.8427325744057 1.0
C      1  0.9163230211308  0.6261991674740  0.4309791031598 1.0
C      1  0.9141754773654  0.3760912710667  0.5637085943047 1.0
C      1  0.6640519794001  0.1445366671856  0.3164519711553 1.0
C      1  0.6463701311945  0.8483594037087  0.6898571046514 1.0
C      1  0.4479855025894  0.5921495821446  0.2735362743758 1.0
C      1  0.4362225840600  0.4173845574766  0.7150715875738 1.0
C      1  0.5306783781153  0.3732232260157  0.5003978197853 1.0
C      1  0.5345021007293  0.6294564683127  0.4982383812184 1.0
C      1  0.8430302921786  0.5921441713296  0.5742629187512 1.0
C      1  0.8399114611338  0.4113134849139  0.4211622262164 1.0
C      1  0.3367371190929  0.5569193420202  0.8829639560270 1.0
C      1  0.3310997216776  0.4449104782195  0.1379868842016 1.0
C      1  0.4824466975630  0.6035067681966  0.8491686135734 1.0
C      1  0.4697694286521  0.3977286371030  0.1608451290382 1.0
C      1  0.6932030913157  0.3107608513716  0.4375913404580 1.0
C      1  0.6968411996527  0.6928155183983  0.5617610394031 1.0
C      1  0.4520060423905  0.3161365717111  0.2953128734699 1.0
C      1  0.4570723938936  0.6800633489647  0.7047658316919 1.0
C      1  0.6570539648124  0.4948970510277  0.3219816164135 1.0
C      1  0.6587214772363  0.5060505206362  0.6702428478345 1.0
C      1  0.5333015384049  0.6794325161025  0.9011089910753 1.0
C      1  0.5657553342242  0.2630741461224  0.1178503680870 1.0
C      1  0.2027879925588  0.7338699487457  0.5722311602682 1.0
C      1  0.2054105225048  0.2579661458771  0.4074958933430 1.0
C      1  0.7182364815099  0.3837529423754  0.4925364677229 1.0
C      1  0.7204563599852  0.6198977577241  0.5055480416507 1.0
C      1  0.3009117635866  0.1309641419499  0.4678087771462 1.0
C      1  0.3017069628572  0.8619943744777  0.5172477252265 1.0
C      1  0.6839595689976  0.8342854118080  0.4390493311564 1.0
C      1  0.6826640038894  0.1688666433207  0.5666523002900 1.0
C      1  0.8056981542656  0.3742410099713  0.3350578429373 1.0
C      1  0.8104868688963  0.6288707397786  0.6616236489781 1.0
C      1  0.4065588101413  0.4500640134848  0.7978345056344 1.0
C      1  0.4210335440479  0.5776870588168  0.1673511383372 1.0
C      1  0.4410662304679  0.7202886481705  0.6040678727483 1.0
C      1  0.4390550373738  0.2790048386141  0.3996751222064 1.0
C      1  0.6849936614054  0.7050543034055  0.7423060985660 1.0
C      1  0.6768284470385  0.2949232603373  0.2622483451077 1.0
C      1  0.7351360719162  0.6860073041364  0.6559493293296 1.0
C      1  0.7297730523728  0.3191850009071  0.3439614453904 1.0
C      1  0.3835905067811  0.5952467944635  0.4259662893721 1.0
C      1  0.3529401063334  0.4024032651789  0.5770240968614 1.0
C      1  0.4665931489964  0.2708194688362  0.8154275870421 1.0
C      1  0.4821269560764  0.7950294409289  0.2040171572201 1.0
C      1  0.5850074939884  0.3355692588598  0.6467423720078 1.0
C      1  0.5890915371912  0.6726257842995  0.3508268487475 1.0
C      1  0.7064894402491  0.7820003365973  0.3775193298662 1.0
C      1  0.7026957862613  0.2246487829032  0.6251372277908 1.0
C      1  0.2486223345184  0.6009580842394  0.2268950563622 1.0
C      1  0.2480382185322  0.4168226568200  0.7687067054001 1.0
C      1  0.4323767674387  0.5130139767755  0.8741635933052 1.0
C      1  0.4205130968779  0.4783954343053  0.1402884590111 1.0
C      1  0.2448066029492  0.1990196089538  0.4803663700373 1.0
C      1  0.2486339318780  0.7923726105036  0.5009162553537 1.0
C      1  0.1268471538338  0.3042165773428  0.3752793360140 1.0
C      1  0.1174989743144  0.6965178359017  0.5895004071980 1.0
C      1  0.7527468386641  0.6507789816399  0.2624638510844 1.0
C      1  0.7505432371884  0.3559465413384  0.7364665764996 1.0
C      1  0.2076812326209  0.5051690455238  0.2435801180335 1.0
C      1  0.2151865327895  0.5054476167089  0.7589900337330 1.0
C      1  0.5922727827962  0.4338038322852  0.2827165918239 1.0
C      1  0.6001817233319  0.5694494561291  0.7108747252248 1.0
C      1  0.6322224281190  0.4296422062828  0.8256627879905 1.0
C      1  0.6300651676362  0.5868931236098  0.1696301889840 1.0
C      1  0.2853315353744  0.6115561283703  0.3197418279297 1.0
C      1  0.2715748480807  0.3461515981969  0.7016030913301 1.0
C      1  0.5021755747036  0.1125923260000  0.0446807220854 1.0
C      1  0.4982722638409  0.8081583300924  0.9859440259424 1.0
C      1  0.6546490150564  0.8722435789208  0.6116513214808 1.0
C      1  0.6583587663356  0.1274067807838  0.3964102926687 1.0
C      1  0.4611652823411  0.9533820599423  0.5085637383000 1.0
C      1  0.4614314945212  0.0475146707534  0.4985456076408 1.0
C      1  0.5469210735757  0.1728739387585  0.0935257091386 1.0
C      1  0.5442760010690  0.7771218446433  0.9096063948748 1.0
C      1  0.1879437032730  0.5488441756920  0.6709118880615 1.0
C      1  0.1775348550652  0.4586027978893  0.3356636152746 1.0
C      1  0.3324032666366  0.3293316587504  0.5255234632131 1.0
C      1  0.3517562856413  0.6686199992977  0.4700360191289 1.0
C      1  0.7086122578213  0.6231665160987  0.1910957284538 1.0
C      1  0.7103153734583  0.3876470275654  0.8084544307752 1.0
C      1  0.2698510229937  0.5917041656507  0.6408194732213 1.0
C      1  0.2654302469950  0.4115807792513  0.3623428955306 1.0
C      1  0.8490644634145  0.5155050597338  0.2535450256051 1.0
C      1  0.8532448063701  0.4865504371733  0.7422600394181 1.0
C      1  0.1389551058447  0.5105329411321  0.5015704960790 1.0
END
