TITL C-199922-1535-7 -7.403 3375.00 -1373.76014449 0 0 166 (C1) n - 1
REM
REM Run started: at 2020.12.19 19:11:53 in /rds/project/t2_vol4/rds-t2-cs072/BORA/CARBON/AIRSS/Generating-Clusters/Str-Search/Higher-Symm/C100-200
REM VASP from code version vasp.5.4.4.18Apr17-6-g9f103f2a35 (build Oct 11 2019 16:45:47) gamma-only
REM
REM
REM
REM
REM ./C.cell (533062f00bc710175b3da973d35f2034)
REM AIRSS Version 0.9.1 bugfix July 2018 build 013d7b7c2542+ Fri, 06 Jul 2018 19:26:36 +0100
REM compiler GCC version 4.8.5 20150623 (Red Hat 4.8.5-39)
REM options -cpp -mtune=generic -march=x86-64 -g -O0
REM seed -1523654397 563218905 1860677021 -905554903 -609936016 1095349137 867991271 -1374024891 845951782 1871371117 -229784187 -310766430
REM
REM C.POTCAR (d86ddea03c3ceb6dc662c8ad6801f873)
REM 
CELL 1.54180   15.00000   15.00000   15.00000   90.00000   90.00000   90.00000
LATT -1
SFAC C  
C      1  0.3727847603029  0.8185618659099  0.5037223723570 1.0
C      1  0.3792059868095  0.6036663290705  0.8028470567972 1.0
C      1  0.3640464473354  0.2238726986456  0.7091014024753 1.0
C      1  0.3806281406049  0.2119339252328  0.3037948984819 1.0
C      1  0.3728144546988  0.6169713078824  0.1744853417484 1.0
C      1  0.5825017071775  0.7665132886897  0.7569215912116 1.0
C      1  0.5758867541282  0.3454222029373  0.8429919585728 1.0
C      1  0.5671038548193  0.1243675341892  0.4639323613758 1.0
C      1  0.5719189436911  0.4405794981406  0.1348350341513 1.0
C      1  0.5715632192063  0.8280531250011  0.3249973558811 1.0
C      1  0.7917942863671  0.3476857368999  0.5778942235650 1.0
C      1  0.7843885407590  0.3758269432908  0.3819182471373 1.0
C      1  0.7867946860567  0.5718698961006  0.3494254644683 1.0
C      1  0.7958737232433  0.6674072749820  0.5257183479348 1.0
C      1  0.7938344583916  0.5282839697731  0.6634508097824 1.0
C      1  0.3764774447003  0.3497577004082  0.2145834431102 1.0
C      1  0.3411075098180  0.7609585656608  0.2563645355973 1.0
C      1  0.3493862707582  0.8161590690189  0.6636297219293 1.0
C      1  0.3545511332343  0.4416036460121  0.8237483201790 1.0
C      1  0.3401677365437  0.1453820592805  0.5565043140621 1.0
C      1  0.6922282507338  0.2415149208448  0.4769081325706 1.0
C      1  0.6794013768655  0.4459433850561  0.2605231041738 1.0
C      1  0.6985516555167  0.7268844811226  0.3775723834235 1.0
C      1  0.7028945313468  0.6879316407916  0.6740601110259 1.0
C      1  0.7097487352134  0.3920722002960  0.7399319452449 1.0
C      1  0.4710872684119  0.6324395829355  0.6767798487700 1.0
C      1  0.5129529503221  0.3327186142026  0.7103698448135 1.0
C      1  0.4783677633466  0.2665244669812  0.4100226186670 1.0
C      1  0.4506860095307  0.5604050839068  0.3050455291931 1.0
C      1  0.4874002615874  0.7499907689751  0.4196546416180 1.0
C      1  0.2424648117174  0.4924535216124  0.3614280095990 1.0
C      1  0.2021779171051  0.6539851323242  0.4327512821646 1.0
C      1  0.2128371762517  0.6061713034575  0.6114415926717 1.0
C      1  0.2063027743451  0.4191378232268  0.6323411313067 1.0
C      1  0.2096690373078  0.3425914803668  0.4660465920383 1.0
C      1  0.3862081997969  0.8640971439539  0.5911448064248 1.0
C      1  0.4078149296391  0.5194488204507  0.8397775559683 1.0
C      1  0.3898100164537  0.1636977349385  0.6344057500950 1.0
C      1  0.4104883367998  0.2593305106191  0.2304508934703 1.0
C      1  0.3971323753388  0.7072497188892  0.1995335724443 1.0
C      1  0.8326877901600  0.4392225204034  0.4381917519529 1.0
C      1  0.8340936582084  0.5357561235915  0.4254213978413 1.0
C      1  0.8370962503137  0.5791583026499  0.5130109317287 1.0
C      1  0.8369280934530  0.5090150823079  0.5790021475293 1.0
C      1  0.8356528792581  0.4222425556365  0.5335723749932 1.0
C      1  0.5446017682023  0.3530616460595  0.1911197353998 1.0
C      1  0.5756371251567  0.7556039625301  0.2664150074347 1.0
C      1  0.6099967798291  0.8177562595680  0.6798190422246 1.0
C      1  0.5769418669840  0.4396106061168  0.8406787990713 1.0
C      1  0.5652948543226  0.1585879238633  0.5511353447208 1.0
C      1  0.2659200727918  0.2082354942423  0.5342480971248 1.0
C      1  0.2897427841746  0.3873503585911  0.2437169637041 1.0
C      1  0.2627356794967  0.7245589189433  0.3012808916364 1.0
C      1  0.2824165383243  0.7488894541224  0.6405520369085 1.0
C      1  0.2756184265748  0.4428489208495  0.7723885823788 1.0
C      1  0.6637124214218  0.5918017507078  0.4813089218599 1.0
C      1  0.6532446529435  0.5538107237905  0.5784207959447 1.0
C      1  0.6606031654549  0.4483443933831  0.5757496814513 1.0
C      1  0.6570853396439  0.4136066411311  0.4738789224599 1.0
C      1  0.6567942815862  0.5041664046499  0.4198119696434 1.0
C      1  0.2396321358914  0.7403696195181  0.3959324051479 1.0
C      1  0.2640559466003  0.6630364899301  0.6777276094714 1.0
C      1  0.2500869714563  0.3729780163908  0.7114964616650 1.0
C      1  0.2502866243114  0.2528326960595  0.4490708651519 1.0
C      1  0.2881949055826  0.4873834375228  0.2635578051287 1.0
C      1  0.6310130308619  0.4540439394879  0.7555806758925 1.0
C      1  0.6151498966603  0.2452747283781  0.5420423385009 1.0
C      1  0.5977202386499  0.3775284697680  0.2825074735667 1.0
C      1  0.6200358490326  0.6876751035806  0.3281323402416 1.0
C      1  0.6237471564097  0.7344454112306  0.6229355868751 1.0
C      1  0.6433260861394  0.1731614877817  0.4128382565127 1.0
C      1  0.6387558599195  0.4920270407854  0.1774762486904 1.0
C      1  0.6429764975532  0.8193489431766  0.3961227751668 1.0
C      1  0.6543930499515  0.6990016436144  0.7664930532292 1.0
C      1  0.6532559178223  0.3086196546353  0.7847221139776 1.0
C      1  0.4047415209215  0.3526613550872  0.5958082467618 1.0
C      1  0.3887877888258  0.3162315894523  0.4137897194064 1.0
C      1  0.3808338294159  0.4934118532911  0.3073224720597 1.0
C      1  0.3793137993825  0.6562434456119  0.4678955389668 1.0
C      1  0.4670511385012  0.5493134319367  0.6183807034502 1.0
C      1  0.5096790091776  0.2574542239882  0.2152427063603 1.0
C      1  0.4982538034553  0.7007218873919  0.2272857452915 1.0
C      1  0.4854753178939  0.8603390524236  0.6078275960970 1.0
C      1  0.5081311844070  0.5134333477717  0.8468512773997 1.0
C      1  0.4879972754352  0.1913627074451  0.6124888198596 1.0
C      1  0.4326650194281  0.4124131433688  0.2799767889179 1.0
C      1  0.4058246149781  0.7078715476776  0.3851601850330 1.0
C      1  0.4496305199120  0.7096315622124  0.6187557917075 1.0
C      1  0.4312808538056  0.3830224738018  0.6834547696500 1.0
C      1  0.4093578187997  0.2412696287452  0.4755929380820 1.0
C      1  0.4521637319386  0.4037665067916  0.1832021670048 1.0
C      1  0.3930258671763  0.7942665625122  0.3279898615792 1.0
C      1  0.4449722615284  0.7881018440012  0.6847583432315 1.0
C      1  0.4100155786861  0.3782903167060  0.7831449797147 1.0
C      1  0.3977270238511  0.1429708958643  0.4762951848115 1.0
C      1  0.2498481128229  0.5252485052123  0.7359146596940 1.0
C      1  0.2405971232279  0.2711288821465  0.6008462956444 1.0
C      1  0.2580207548618  0.3417993711162  0.3174497257428 1.0
C      1  0.2434648631639  0.6331296132160  0.2824488267890 1.0
C      1  0.2413408537767  0.7461442144557  0.5506677486010 1.0
C      1  0.6189868935588  0.5840915056521  0.1950589620462 1.0
C      1  0.6260337905641  0.8281088127497  0.4890737700449 1.0
C      1  0.6310508189990  0.6158249181036  0.7982491355230 1.0
C      1  0.6290333884569  0.2505994772445  0.7143277624303 1.0
C      1  0.6296480551762  0.2151432674878  0.3305685708871 1.0
C      1  0.6760202965257  0.7558849124136  0.5392116873877 1.0
C      1  0.6773912846757  0.5423411893551  0.7487474597978 1.0
C      1  0.6698554473959  0.2778141655242  0.6244408340556 1.0
C      1  0.6624960654582  0.3111745671080  0.3271423613985 1.0
C      1  0.6648856913634  0.6116778817329  0.2804008367735 1.0
C      1  0.5649096034025  0.4216090941069  0.5924536339506 1.0
C      1  0.5592793708384  0.3874188396783  0.4966730028917 1.0
C      1  0.5563518292807  0.5206712965130  0.4153803736362 1.0
C      1  0.5620885450343  0.6043415307713  0.4651287230425 1.0
C      1  0.5508404825028  0.5918891929601  0.5659891812579 1.0
C      1  0.2071201641622  0.5161142744866  0.6490471665276 1.0
C      1  0.2023282011882  0.3529289811886  0.5631699614444 1.0
C      1  0.2163393330275  0.3957035408743  0.3866180802453 1.0
C      1  0.2098946064613  0.5881719554288  0.3646285096399 1.0
C      1  0.2024295271056  0.6596393355651  0.5311502257956 1.0
C      1  0.5364749117799  0.2947951689632  0.4969438279386 1.0
C      1  0.5245102550567  0.5145755925627  0.3255344468619 1.0
C      1  0.5423300757601  0.6721607973812  0.3928240547845 1.0
C      1  0.5438334904182  0.6752813823122  0.6167254305553 1.0
C      1  0.5655671520550  0.4135320934264  0.6924693975906 1.0
C      1  0.3934758408533  0.7162611425888  0.5384385043644 1.0
C      1  0.4932457707659  0.4630481635260  0.6539488208189 1.0
C      1  0.4553436979373  0.2748415092098  0.5567942567921 1.0
C      1  0.5176904704477  0.4155026470186  0.3303697344860 1.0
C      1  0.4648905326175  0.6510344372244  0.3270191661857 1.0
C      1  0.4471983747284  0.2330481490188  0.7628548751724 1.0
C      1  0.4698773258273  0.1840703801690  0.3479674703364 1.0
C      1  0.4602625705399  0.5705824562453  0.1453935509874 1.0
C      1  0.4645526091539  0.8381499166752  0.4578699696425 1.0
C      1  0.4658466770155  0.6536083184521  0.7792831450797 1.0
C      1  0.5272193437973  0.2317445349299  0.6977102241202 1.0
C      1  0.5451599350711  0.2049102353715  0.2834505478934 1.0
C      1  0.5352247787247  0.6246531111483  0.1721311638399 1.0
C      1  0.5351431035130  0.8575374453209  0.5253914203190 1.0
C      1  0.5398296691343  0.5972510859724  0.8221476473634 1.0
C      1  0.2975365657240  0.6069978103451  0.7497836109011 1.0
C      1  0.2815926905365  0.2832642231550  0.6887753742938 1.0
C      1  0.3105248506296  0.2671393956003  0.3619732179204 1.0
C      1  0.2909115342500  0.5798491333723  0.2192644055993 1.0
C      1  0.2743820272826  0.7912595085022  0.4714147241480 1.0
C      1  0.7107292634240  0.6843652472423  0.4708038377811 1.0
C      1  0.7072534775269  0.5863550973382  0.6601376885214 1.0
C      1  0.7127348941544  0.3739015000535  0.6370443981563 1.0
C      1  0.7012005428892  0.3311749010002  0.4243038519189 1.0
C      1  0.6971141058466  0.5232476647056  0.3264146605390 1.0
C      1  0.7421224796919  0.3706654391132  0.2975206088355 1.0
C      1  0.7532857648873  0.6539498849826  0.3160513512776 1.0
C      1  0.7617072601887  0.7244005787025  0.5935847185676 1.0
C      1  0.7646273712559  0.4851251757823  0.7424150685769 1.0
C      1  0.7529671973994  0.2625901635267  0.5611539430040 1.0
C      1  0.4754853828319  0.1164590928372  0.4262552939979 1.0
C      1  0.4836073008718  0.4790309815626  0.1291857002709 1.0
C      1  0.4770281599126  0.8377450751343  0.3573336174999 1.0
C      1  0.4910424946473  0.7527234462631  0.7682649221688 1.0
C      1  0.4828194833122  0.3189504676115  0.8088018677212 1.0
C      1  0.3931530125878  0.5180950278630  0.5544489524780 1.0
C      1  0.3843293920347  0.4231942419164  0.5406966245971 1.0
C      1  0.3963916542222  0.4123961733306  0.4448258186489 1.0
C      1  0.3469207655341  0.4926967624476  0.4037785546648 1.0
C      1  0.3707125887455  0.5627423112416  0.4747755036607 1.0
C      1  0.5022822624466  0.4339564306066  0.4311221467578 1.0
END
