TITL C-197371-4258-35 -1.316 3375.00 -201.59549979 0 0 26 (C1) n - 1
REM
REM Run started: at 2020.11.28 18:00:52 in /rds/project/t2_vol4/rds-t2-cs072/BORA/CARBON/AIRSS/Generating-Clusters/Str-Search/Higher-Symm/C10-100
REM VASP from code version vasp.5.4.4.18Apr17-6-g9f103f2a35 (build Oct 11 2019 16:45:47) gamma-only
REM
REM
REM
REM
REM ./C.cell (f39ce9773e2efe3fa5bbdf770a4156b8)
REM AIRSS Version 0.9.1 bugfix July 2018 build 013d7b7c2542+ Fri, 06 Jul 2018 19:26:36 +0100
REM compiler GCC version 4.8.5 20150623 (Red Hat 4.8.5-39)
REM options -cpp -mtune=generic -march=x86-64 -g -O0
REM seed 1691420304 574740863 -290525147 675209386 -1056694074 -2032620185 -1339147579 1881561263 808853835 -434489621 454214432 -1353715679
REM
REM C.POTCAR (d86ddea03c3ceb6dc662c8ad6801f873)
REM 
CELL 1.54180   15.00000   15.00000   15.00000   90.00000   90.00000   90.00000
LATT -1
SFAC C  
C      1  0.5559990278365  0.7150960402027  0.5390272209193 1.0
C      1  0.5583744078634  0.5945153756724  0.3145473853359 1.0
C      1  0.5554443627212  0.3457110562153  0.3507220105694 1.0
C      1  0.5468517309597  0.3052595924821  0.6042689834340 1.0
C      1  0.5600524411367  0.5311601252506  0.7219716503365 1.0
C      1  0.5553788914679  0.4504845917069  0.6768764819931 1.0
C      1  0.5567295237460  0.6464471872610  0.6035162998777 1.0
C      1  0.5733101015492  0.6377363844103  0.3953970028358 1.0
C      1  0.5729432609830  0.4367064062388  0.3391289850703 1.0
C      1  0.5610460619886  0.3237403680407  0.5116893266603 1.0
C      1  0.5583274029696  0.6107988091651  0.6887319197152 1.0
C      1  0.5533483552185  0.7082301495375  0.4539536512657 1.0
C      1  0.5590346542525  0.5135798074274  0.2889909117716 1.0
C      1  0.5480570945868  0.2996548437692  0.4216665993901 1.0
C      1  0.5475541632398  0.3564538539199  0.6717469014887 1.0
C      1  0.6094348509046  0.5659966714072  0.4570420733700 1.0
C      1  0.6125794994465  0.4656829390062  0.4285092639938 1.0
C      1  0.5840148348564  0.4164275752154  0.5077997971524 1.0
C      1  0.5545696611196  0.4739981191328  0.5793516726923 1.0
C      1  0.5549538569731  0.5652113353238  0.5443961013317 1.0
C      1  0.6946147457899  0.5224129278509  0.4460781806433 1.0
C      1  0.2146934697377  0.4988988801033  0.5008765302672 1.0
C      1  0.3841755048744  0.5116316627159  0.5273717388553 1.0
C      1  0.1295066221114  0.4957616737369  0.4864513061735 1.0
C      1  0.4696546520232  0.5189968189515  0.5423013153096 1.0
C      1  0.3005312216438  0.5041017052563  0.5148233895476 1.0
END
