TITL C-1990-2551-23 -8.035 3375.00 -1571.63417089 0 0 192 (C6h) n - 1
REM
REM Run started: at 2021.01.01 05:42:31 in /gpfs/home/chem/mssmkc/CARBON/AIRSS/Generating-Clusters/Str-Search/Higher-Symm/C100-200
REM VASP from code version vasp.5.4.4.18Apr17-6-g9f103f2a35 (build Oct 11 2019 16:45:47) gamma-only
REM
REM
REM
REM
REM ./C.cell (533062f00bc710175b3da973d35f2034)
REM AIRSS Version 0.9.1 bugfix July 2018 build 013d7b7c2542+ Fri, 06 Jul 2018 19:26:36 +0100
REM compiler GCC version 6.3.0
REM options -cpp -iprefix /gpfs/warwick/csc/orac/software/Core/GCCcore/6.3.0/bin/../lib/gcc/x86_64-pc-linux-gnu/6.3.0/ -mtune=generic -march=x86-64 -g -O0
REM seed 463487970 1289724451 803007946 557984146 -1587502247 -1273618492 -811853480 1960945294 -1983052002 1216288261 -1886946828 636992425
REM
REM C.POTCAR (d86ddea03c3ceb6dc662c8ad6801f873)
REM 
CELL 1.54180   15.00000   15.00000   15.00000   90.00000   90.00000   90.00000
LATT -1
SFAC C  
C      1  0.7030005334132  0.3686694397566  0.5529071477000 1.0
C      1  0.7163176999930  0.6103725955191  0.5528288334393 1.0
C      1  0.5122171613996  0.7419941440316  0.5528980560132 1.0
C      1  0.2969994446600  0.6313303070717  0.5529070399106 1.0
C      1  0.2836820121013  0.3896274374656  0.5528287403184 1.0
C      1  0.4877824588079  0.2580054440426  0.5528977663076 1.0
C      1  0.7030005095127  0.3686696557018  0.4470929899929 1.0
C      1  0.7163176990715  0.6103726427198  0.4471712684764 1.0
C      1  0.5122172682909  0.7419943259844  0.4471020223582 1.0
C      1  0.2969994463120  0.6313304189636  0.4470929064413 1.0
C      1  0.2836821097193  0.3896274368907  0.4471711909441 1.0
C      1  0.4877827482734  0.2580056417354  0.4471022135787 1.0
C      1  0.4059860889173  0.1758325377958  0.6929016282150 1.0
C      1  0.7337358187309  0.2568004762670  0.6926948738546 1.0
C      1  0.8279157774695  0.5795147830256  0.6933064567116 1.0
C      1  0.5940142080477  0.8241692762707  0.6929026016440 1.0
C      1  0.2662648200269  0.7431990354429  0.6926953097521 1.0
C      1  0.1720839722058  0.4204851536957  0.6933063805751 1.0
C      1  0.4059861398830  0.1758326853668  0.3070983874522 1.0
C      1  0.7337357321110  0.2568005518231  0.3073051171023 1.0
C      1  0.8279158186993  0.5795148394142  0.3066936049924 1.0
C      1  0.5940143351375  0.8241694184444  0.3070975341595 1.0
C      1  0.2662642653181  0.7431995336879  0.3073050696071 1.0
C      1  0.1720840199461  0.4204851805531  0.3066935710115 1.0
C      1  0.2783682875619  0.2832015188027  0.7337545305759 1.0
C      1  0.5775703327779  0.2002483902628  0.7345679184546 1.0
C      1  0.7983283107740  0.4168541080674  0.7350944397179 1.0
C      1  0.7216311263751  0.7167985097384  0.7337543102729 1.0
C      1  0.4224297301272  0.7997513212788  0.7345680529945 1.0
C      1  0.2016716252520  0.5831457837887  0.7350942727062 1.0
C      1  0.2783683827946  0.2832016057136  0.2662454323845 1.0
C      1  0.5775702460809  0.2002486111686  0.2654320526599 1.0
C      1  0.7983282999888  0.4168541909854  0.2649057021317 1.0
C      1  0.7216311659366  0.7167986664983  0.2662457884290 1.0
C      1  0.4224295591101  0.7997518141717  0.2654321129124 1.0
C      1  0.2016716407784  0.5831458887783  0.2649055955361 1.0
C      1  0.4027177937226  0.4911625548353  0.9206388986092 1.0
C      1  0.4588106178537  0.4109749569984  0.9205211738001 1.0
C      1  0.5562694907857  0.4198586311087  0.9206379823297 1.0
C      1  0.5972820339799  0.5088369364465  0.9206389576610 1.0
C      1  0.5411893257178  0.5890246436608  0.9205211537787 1.0
C      1  0.4437302002727  0.5801411554009  0.9206377470424 1.0
C      1  0.4027179666031  0.4911627541327  0.0793610028201 1.0
C      1  0.4588107744788  0.4109751734343  0.0794786388067 1.0
C      1  0.5562697043173  0.4198589348969  0.0793618960352 1.0
C      1  0.5972821775914  0.5088372605417  0.0793610238121 1.0
C      1  0.5411894113434  0.5890248551936  0.0794788775148 1.0
C      1  0.4437304820981  0.5801410769425  0.0793620311200 1.0
C      1  0.6067853793946  0.7182192583967  0.5723853020184 1.0
C      1  0.3646692013209  0.7010311151217  0.5725980846618 1.0
C      1  0.2583330581971  0.4836218364943  0.5726177299254 1.0
C      1  0.3932148227601  0.2817808937484  0.5723853315940 1.0
C      1  0.6353309362586  0.2989688108975  0.5725981801189 1.0
C      1  0.7416671592839  0.5163781424633  0.5726177575470 1.0
C      1  0.6067853292057  0.7182192127596  0.4276147363896 1.0
C      1  0.3646691365490  0.7010311347132  0.4274018455862 1.0
C      1  0.2583329825323  0.4836218515815  0.4273822588896 1.0
C      1  0.3932146982481  0.2817808203128  0.4276146647191 1.0
C      1  0.6353308561326  0.2989687632311  0.4274019677918 1.0
C      1  0.7416670632367  0.5163780738797  0.4273822978870 1.0
C      1  0.2143096031241  0.6586812478574  0.6884316599738 1.0
C      1  0.2183775247017  0.3327127173684  0.6885438123365 1.0
C      1  0.5051802366270  0.1731400908460  0.6887290664014 1.0
C      1  0.7856904718472  0.3413185679961  0.6884316355755 1.0
C      1  0.7816220388299  0.6672873706168  0.6885438556737 1.0
C      1  0.4948196730622  0.8268606350006  0.6887293133030 1.0
C      1  0.2143095908537  0.6586813293122  0.3115683739375 1.0
C      1  0.2183775819039  0.3327127127308  0.3114561631636 1.0
C      1  0.5051802606833  0.1731401929737  0.3112709311819 1.0
C      1  0.7856904714111  0.3413186479019  0.3115684036139 1.0
C      1  0.7816220762600  0.6672874433363  0.3114561952012 1.0
C      1  0.4948196771317  0.8268607614940  0.3112707738111 1.0
C      1  0.3705599135501  0.1452621104142  0.6063417672885 1.0
C      1  0.7415248546730  0.2108746023605  0.6062603354011 1.0
C      1  0.8719038386036  0.5620961841306  0.6067477245414 1.0
C      1  0.6294397590163  0.8547385616447  0.6063421609918 1.0
C      1  0.2584755008370  0.7891251311975  0.6062606198308 1.0
C      1  0.1280961085712  0.4379038274737  0.6067475754624 1.0
C      1  0.3705599327914  0.1452621180804  0.3936581798682 1.0
C      1  0.7415248391336  0.2108746689320  0.3937396985035 1.0
C      1  0.8719038479745  0.5620961995346  0.3932524246451 1.0
C      1  0.6294398501372  0.8547386377207  0.3936580202739 1.0
C      1  0.2584752414788  0.7891253211775  0.3937397469164 1.0
C      1  0.1280961377162  0.4379038394820  0.3932523438892 1.0
C      1  0.5844239735635  0.6746828577231  0.7871226029428 1.0
C      1  0.3908233674256  0.6600252832720  0.7874767942117 1.0
C      1  0.3068083710683  0.4854676741116  0.7877307551695 1.0
C      1  0.4155757474626  0.3253170393542  0.7871227641140 1.0
C      1  0.6091768609244  0.3399745684670  0.7874769757755 1.0
C      1  0.6931917241875  0.5145319686898  0.7877307452430 1.0
C      1  0.5844240005284  0.6746831570523  0.2128775402973 1.0
C      1  0.3908230147549  0.6600253114870  0.2125230880252 1.0
C      1  0.3068082931475  0.4854676766960  0.2122693659163 1.0
C      1  0.4155759177265  0.3253172047450  0.2128771130888 1.0
C      1  0.6091770456805  0.3399747265025  0.2125229319847 1.0
C      1  0.6931916504269  0.5145322237582  0.2122692981411 1.0
C      1  0.5778880423620  0.6605743171894  0.1250875614223 1.0
C      1  0.3998690657351  0.6477775842100  0.1246643684909 1.0
C      1  0.3222890024616  0.4868810539315  0.1245274970928 1.0
C      1  0.4221121578362  0.3394256414990  0.1250871911323 1.0
C      1  0.6001310647369  0.3522222608916  0.1246641627661 1.0
C      1  0.6777111642321  0.5131187755001  0.1245274711550 1.0
C      1  0.5778879020651  0.6605740809890  0.8749125316616 1.0
C      1  0.3998693566525  0.6477770659280  0.8753351567789 1.0
C      1  0.3222886667770  0.4868811400606  0.8754726900475 1.0
C      1  0.4221118303756  0.3394255129472  0.8749127371163 1.0
C      1  0.6001308492978  0.3522220147871  0.8753356889415 1.0
C      1  0.6777111543428  0.5131183078660  0.8754725431149 1.0
C      1  0.3504262830241  0.7985644988702  0.4471018102179 1.0
C      1  0.1672845162542  0.5221517759599  0.4468061830101 1.0
C      1  0.3169551495509  0.2193962833234  0.4473617167900 1.0
C      1  0.6495738638647  0.2014354739685  0.4471017937100 1.0
C      1  0.8327154830305  0.4778483165919  0.4468062354285 1.0
C      1  0.6830446071113  0.7806040498260  0.4473615941816 1.0
C      1  0.3504263702182  0.7985644830875  0.5528982701067 1.0
C      1  0.1672844851940  0.5221518145380  0.5531937657147 1.0
C      1  0.3169551232246  0.2193962091324  0.5526382405650 1.0
C      1  0.6495738755904  0.2014354814341  0.5528982291856 1.0
C      1  0.8327154607882  0.4778483145458  0.5531938437216 1.0
C      1  0.6830445905375  0.7806040231449  0.5526385284335 1.0
C      1  0.5502239000244  0.3238759776260  0.4145852759098 1.0
C      1  0.6772903863233  0.4555403973642  0.4143877834394 1.0
C      1  0.6279464603397  0.6320028437519  0.4147006425936 1.0
C      1  0.4497760879479  0.6761240214789  0.4145852439916 1.0
C      1  0.3227096170614  0.5444595395122  0.4143877302787 1.0
C      1  0.3720535902834  0.3679972229980  0.4147004878664 1.0
C      1  0.5502239876729  0.3238760607788  0.5854148487214 1.0
C      1  0.6772903796300  0.4555405486767  0.5856123425050 1.0
C      1  0.6279464670744  0.6320028263411  0.5852994357704 1.0
C      1  0.4497761947849  0.6761240564595  0.5854146169127 1.0
C      1  0.3227096084754  0.5444596114209  0.5856122411050 1.0
C      1  0.3720536390094  0.3679972321818  0.5852994665650 1.0
C      1  0.2159401321244  0.4940070463980  0.7416834252687 1.0
C      1  0.3628448186073  0.2508366185487  0.7404940552351 1.0
C      1  0.6476723978197  0.2573064853793  0.7409998550040 1.0
C      1  0.7840597904781  0.5059928352761  0.7416834947912 1.0
C      1  0.6371550395888  0.7491643521960  0.7404939468709 1.0
C      1  0.3523283277729  0.7426921963652  0.7409994789260 1.0
C      1  0.2159401274714  0.4940071126918  0.2583165995500 1.0
C      1  0.3628448900490  0.2508367011899  0.2595058578454 1.0
C      1  0.6476723887627  0.2573065650809  0.2589999838818 1.0
C      1  0.7840598002831  0.5059929161811  0.2583166145579 1.0
C      1  0.6371551251823  0.7491645158563  0.2595061064430 1.0
C      1  0.3523276242981  0.7426934410137  0.2590000636607 1.0
C      1  0.8617008460455  0.6403183092846  0.4524467098756 1.0
C      1  0.5558356344725  0.8839121295213  0.4524388465192 1.0
C      1  0.1962115075442  0.7398036381302  0.4525769300689 1.0
C      1  0.1382990668424  0.3596816982708  0.4524466099789 1.0
C      1  0.4441638573561  0.1160879514405  0.4524385611011 1.0
C      1  0.8037885854550  0.2601963286474  0.4525767957630 1.0
C      1  0.8617008821589  0.6403183299185  0.5475534433434 1.0
C      1  0.5558356250392  0.8839120804782  0.5475613553805 1.0
C      1  0.1962115396037  0.7398036089878  0.5474232496827 1.0
C      1  0.1382990948146  0.3596817329589  0.5475533103921 1.0
C      1  0.4441638234503  0.1160879307033  0.5475613781181 1.0
C      1  0.8037886215993  0.2601963089615  0.5474232241897 1.0
C      1  0.4028902570692  0.4927319688969  0.2460154397208 1.0
C      1  0.4576109389336  0.4121504103662  0.2461707190297 1.0
C      1  0.5547879733217  0.4195512383262  0.2460213084781 1.0
C      1  0.5971097320446  0.5072679450087  0.2460154757952 1.0
C      1  0.5423890416950  0.5878496028767  0.2461709731499 1.0
C      1  0.4452120984579  0.5804488224123  0.2460213354663 1.0
C      1  0.4028903918459  0.4927311666997  0.7539844126338 1.0
C      1  0.4576108936017  0.4121499413283  0.7538290701698 1.0
C      1  0.5547878165412  0.4195510315136  0.7539785858287 1.0
C      1  0.5971101210622  0.5072674752670  0.7539844920116 1.0
C      1  0.5423899447594  0.5878489493582  0.7538289533957 1.0
C      1  0.4452128078637  0.5804479542151  0.7539780994717 1.0
C      1  0.4109834851807  0.5217718308978  0.4081854288703 1.0
C      1  0.4360036905226  0.4332894303419  0.4083817186944 1.0
C      1  0.5254144961696  0.4116701451038  0.4082988186220 1.0
C      1  0.5890164460447  0.4782281094872  0.4081854800764 1.0
C      1  0.5639963305120  0.5667105885045  0.4083818263792 1.0
C      1  0.4745854007155  0.5883298153250  0.4082988297132 1.0
C      1  0.4109834364647  0.5217717313521  0.5918144500731 1.0
C      1  0.4360037424228  0.4332893612297  0.5916181904076 1.0
C      1  0.5254145625064  0.4116702635965  0.5917011693358 1.0
C      1  0.5890164026941  0.4782280566758  0.5918145986583 1.0
C      1  0.5639964163193  0.5667104477581  0.5916182124800 1.0
C      1  0.4745854895790  0.5883298617666  0.5917011572336 1.0
C      1  0.2223335531553  0.3153773160773  0.5879256333792 1.0
C      1  0.5237378176866  0.1684791702046  0.5879777419498 1.0
C      1  0.7987272599416  0.3557630817377  0.5877220157557 1.0
C      1  0.7776663998078  0.6846227274062  0.5879256375591 1.0
C      1  0.4762619908185  0.8315205160000  0.5879779582583 1.0
C      1  0.2012728111305  0.6442368465727  0.5877220359573 1.0
C      1  0.2223335869083  0.3153773002834  0.4120743262544 1.0
C      1  0.5237378458273  0.1684792009090  0.4120222387458 1.0
C      1  0.7987272144253  0.3557630922095  0.4122780644150 1.0
C      1  0.7776664106278  0.6846226684350  0.4120743984212 1.0
C      1  0.4762620365138  0.8315205744446  0.4120221951508 1.0
C      1  0.2012728308150  0.6442368755612  0.4122779690777 1.0
END
