TITL C-1990-2551-1 -5.33 3375.00 -928.81385934 0 0 114 (C1) n - 1
REM
REM Run started: at 2020.12.31 06:09:47 in /gpfs/home/chem/mssmkc/CARBON/AIRSS/Generating-Clusters/Str-Search/Higher-Symm/C100-200
REM VASP from code version vasp.5.4.4.18Apr17-6-g9f103f2a35 (build Oct 11 2019 16:45:47) gamma-only
REM
REM
REM
REM
REM ./C.cell (533062f00bc710175b3da973d35f2034)
REM AIRSS Version 0.9.1 bugfix July 2018 build 013d7b7c2542+ Fri, 06 Jul 2018 19:26:36 +0100
REM compiler GCC version 6.3.0
REM options -cpp -iprefix /gpfs/warwick/csc/orac/software/Core/GCCcore/6.3.0/bin/../lib/gcc/x86_64-pc-linux-gnu/6.3.0/ -mtune=generic -march=x86-64 -g -O0
REM seed 1932401359 -484074050 1934803008 -2010952408 -464797824 -1224483542 439223410 786234538 317285467 -151638699 1996019676 -749311548
REM
REM C.POTCAR (d86ddea03c3ceb6dc662c8ad6801f873)
REM 
CELL 1.54180   15.00000   15.00000   15.00000   90.00000   90.00000   90.00000
LATT -1
SFAC C  
C      1  0.6109160912581  0.3567617657642  0.7580458988971 1.0
C      1  0.2084348508355  0.5065138934020  0.5762229282170 1.0
C      1  0.3760225848076  0.5901067942395  0.2318300812991 1.0
C      1  0.5435436855615  0.3663189325740  0.4346943215148 1.0
C      1  0.2330509345554  0.6565115510771  0.5282860410635 1.0
C      1  0.2075898086235  0.4372976786153  0.4276573875819 1.0
C      1  0.2784661849775  0.2140452243445  0.4664055540493 1.0
C      1  0.2667183926323  0.4518094235885  0.2650557342605 1.0
C      1  0.2633021026056  0.3992484370886  0.3532049434236 1.0
C      1  0.4923831788254  0.8190696414268  0.4167932590055 1.0
C      1  0.5795034637684  0.2091714700168  0.3743986788114 1.0
C      1  0.6223647501941  0.4531911913605  0.7529900859333 1.0
C      1  0.5414992620281  0.7055915773079  0.4840813301140 1.0
C      1  0.4937657333553  0.3969107364783  0.3017362150436 1.0
C      1  0.5743171321634  0.5870386220529  0.6398044074355 1.0
C      1  0.7275354344401  0.4681321027138  0.3756867692873 1.0
C      1  0.5579743696848  0.6334423506665  0.1730728488793 1.0
C      1  0.5319729420738  0.8051831049136  0.5111864378356 1.0
C      1  0.4484010347185  0.5358965617611  0.3817755293749 1.0
C      1  0.2537796940360  0.5507298033719  0.6460505961472 1.0
C      1  0.4940693840668  0.2224166880336  0.4053842969177 1.0
C      1  0.3139708745037  0.5213715340681  0.7184410536043 1.0
C      1  0.5916977150194  0.6261686175003  0.7376814105180 1.0
C      1  0.6893413818525  0.2337629826254  0.5594494747152 1.0
C      1  0.5617810961992  0.7588564130904  0.2771071052723 1.0
C      1  0.4042664025135  0.7842831412794  0.4050859323225 1.0
C      1  0.5672773035377  0.7238472335209  0.7268476534579 1.0
C      1  0.7047736522510  0.7011350668002  0.5936019123701 1.0
C      1  0.7270923789137  0.7069264086479  0.3521264632231 1.0
C      1  0.3474891049047  0.6962968652082  0.6340378106964 1.0
C      1  0.3604895313982  0.6417701082445  0.8447578866231 1.0
C      1  0.5209184151206  0.7694843309617  0.6738586264261 1.0
C      1  0.3576178088715  0.5191357165725  0.3819599112354 1.0
C      1  0.5083263503173  0.6975690999685  0.2290636429376 1.0
C      1  0.6612881811438  0.4624492655138  0.2148578379901 1.0
C      1  0.2846336247844  0.2449518056186  0.5538162021334 1.0
C      1  0.4893422623503  0.6347072888579  0.5146040252701 1.0
C      1  0.5081250625037  0.5657865742319  0.7788985836305 1.0
C      1  0.3901793363872  0.3696712879236  0.4815700900644 1.0
C      1  0.5735995522559  0.4830918661280  0.6582153663404 1.0
C      1  0.3505079638155  0.7698219805200  0.4852338194987 1.0
C      1  0.4068737264226  0.2034172456098  0.6968295513688 1.0
C      1  0.5294067620166  0.4637078276920  0.7980010645776 1.0
C      1  0.5601723547681  0.2377582968507  0.6824959220768 1.0
C      1  0.6926721631259  0.5984513208130  0.7365311048603 1.0
C      1  0.2970978978209  0.6742962662678  0.3774015962483 1.0
C      1  0.7558696937815  0.6352517404724  0.3853440252049 1.0
C      1  0.1968307115776  0.5722497293333  0.5061936550075 1.0
C      1  0.7125579125087  0.3019220024305  0.4015386725472 1.0
C      1  0.4267597403096  0.6234155304411  0.7711661720674 1.0
C      1  0.7818182126425  0.5148738679640  0.5125363123580 1.0
C      1  0.3304833357608  0.5811327677435  0.7892918455896 1.0
C      1  0.5188635008113  0.5518373570227  0.1566919297936 1.0
C      1  0.7377406128749  0.6251248365908  0.6481259890014 1.0
C      1  0.2046804272393  0.5317061895249  0.4214489321045 1.0
C      1  0.6858833288366  0.7899975840661  0.5719139988931 1.0
C      1  0.6254563618937  0.8290504152084  0.5311045596888 1.0
C      1  0.4772310017143  0.2831275711912  0.7171226776200 1.0
C      1  0.6399153687924  0.2869307325954  0.3274109389206 1.0
C      1  0.5863126038849  0.5354806945780  0.3082337189511 1.0
C      1  0.3096121393334  0.5368228241975  0.2829594054619 1.0
C      1  0.5601629639523  0.8171442989792  0.3471819167870 1.0
C      1  0.3138655038810  0.3122139396473  0.3334059276680 1.0
C      1  0.7165862982170  0.3982220179373  0.5993083685622 1.0
C      1  0.3843907095986  0.7671267378194  0.5756323652059 1.0
C      1  0.7639177583892  0.4208856199548  0.5135584557067 1.0
C      1  0.7053802622720  0.2334661322695  0.4628209426156 1.0
C      1  0.5804972850171  0.5932717274680  0.3881945844053 1.0
C      1  0.3908167054672  0.4744002611121  0.6897026981325 1.0
C      1  0.5851964582432  0.3748945073163  0.3452276131380 1.0
C      1  0.2746326604305  0.5781316027095  0.3673646933548 1.0
C      1  0.4227462128216  0.6489793301853  0.6752778165345 1.0
C      1  0.6363197715961  0.2903509243969  0.6950413898458 1.0
C      1  0.3836340443782  0.4137705628766  0.6184060841193 1.0
C      1  0.3573198626515  0.4233303887199  0.3988019908422 1.0
C      1  0.3722116080975  0.2371028852583  0.6082932291279 1.0
C      1  0.6285421098399  0.1767384553535  0.4494322536242 1.0
C      1  0.2948509332584  0.2404183255743  0.3876570326688 1.0
C      1  0.4565983977258  0.3902851139035  0.5539908200667 1.0
C      1  0.6983697763395  0.3007091090739  0.6242851059958 1.0
C      1  0.4141986597487  0.6775691358917  0.2571546402344 1.0
C      1  0.4853949572212  0.4892918726565  0.7116650671689 1.0
C      1  0.5495963660586  0.4003091888044  0.5223167348114 1.0
C      1  0.7036557357941  0.5055397854620  0.7387412949090 1.0
C      1  0.4270632507319  0.3213626940709  0.6271653798029 1.0
C      1  0.6091907047961  0.5492891889984  0.2094442850666 1.0
C      1  0.3705200221397  0.7196026903493  0.3354121568596 1.0
C      1  0.6342542749636  0.7443693480966  0.3468227015493 1.0
C      1  0.6681562954007  0.3729713308440  0.1902048473532 1.0
C      1  0.6683377460283  0.2997740016814  0.2329501520641 1.0
C      1  0.5218976343165  0.3548632999169  0.7864665478439 1.0
C      1  0.7524064976511  0.4720942722045  0.6617330530409 1.0
C      1  0.5047167021597  0.5692311505510  0.4432769066269 1.0
C      1  0.4819581445988  0.6160090273177  0.6105867761540 1.0
C      1  0.4580679693689  0.3109041655119  0.4197163536161 1.0
C      1  0.2180107372037  0.4146879205249  0.5273582553342 1.0
C      1  0.2805833526331  0.7085729910180  0.4645936668376 1.0
C      1  0.6505202797621  0.6297995767603  0.5928337004730 1.0
C      1  0.2390363629002  0.3271069442373  0.5746779328696 1.0
C      1  0.7769693505831  0.5440561096598  0.6059384163573 1.0
C      1  0.6121597358636  0.1746791766753  0.5490095659676 1.0
C      1  0.7436266407701  0.3887499839424  0.4263062685460 1.0
C      1  0.4734449944955  0.7969977063307  0.5953789938541 1.0
C      1  0.5411590751126  0.1776996885291  0.6122755643816 1.0
C      1  0.6124541423088  0.4293929936811  0.5845944536068 1.0
C      1  0.4488633965701  0.5314877609786  0.2126954790398 1.0
C      1  0.6478470289142  0.4568432871762  0.3181897455382 1.0
C      1  0.5947508414370  0.6797891465502  0.4092197175276 1.0
C      1  0.3132961322529  0.3857898562233  0.5555310953003 1.0
C      1  0.4430974695680  0.1631861213206  0.6213862380644 1.0
C      1  0.2702408386431  0.6463743764219  0.6165033518968 1.0
C      1  0.4109015623566  0.3544563386259  0.3385319650133 1.0
C      1  0.4910923642148  0.4948787870986  0.2985153851325 1.0
C      1  0.7619241412849  0.5477984026609  0.4212998929935 1.0
END
