TITL C-196558-3999-4 -1.604 3375.00 -250.12209675 0 0 32 (C1) n - 1
REM
REM Run started: at 2020.11.21 11:58:09 in /rds/project/t2_vol4/rds-t2-cs072/BORA/CARBON/AIRSS/Generating-Clusters/Str-Search/Higher-Symm
REM VASP from code version vasp.5.4.4.18Apr17-6-g9f103f2a35 (build Oct 11 2019 16:45:47) gamma-only
REM
REM
REM
REM
REM ./C.cell (e5ae0387ce4d49c7c0135a1433873289)
REM AIRSS Version 0.9.1 bugfix July 2018 build 013d7b7c2542+ Fri, 06 Jul 2018 19:26:36 +0100
REM compiler GCC version 4.8.5 20150623 (Red Hat 4.8.5-39)
REM options -cpp -mtune=generic -march=x86-64 -g -O0
REM seed -830178060 -1559918897 -545594006 -2095820441 -1956591833 -988625838 1214023549 1353800410 19424162 1778612915 2104135886 -189329024
REM
REM C.POTCAR (d86ddea03c3ceb6dc662c8ad6801f873)
REM 
CELL 1.54180   15.00000   15.00000   15.00000   90.00000   90.00000   90.00000
LATT -1
SFAC C  
C      1  0.3134809822682  0.5014213698553  0.4103775488716 1.0
C      1  0.5046901781832  0.5138039888851  0.6838036492685 1.0
C      1  0.6793766118217  0.5028605975403  0.3848163577276 1.0
C      1  0.4238694595309  0.3732410386932  0.4337356810463 1.0
C      1  0.4639843749505  0.3797801765650  0.5946060958523 1.0
C      1  0.6373908963915  0.3456071110309  0.4505909227873 1.0
C      1  0.3786945927838  0.4330750352952  0.3741714642401 1.0
C      1  0.4395678669013  0.4423054700225  0.6621802800978 1.0
C      1  0.6866370699073  0.4209685414506  0.4433010568692 1.0
C      1  0.5690220841382  0.2948110696419  0.4810093796607 1.0
C      1  0.4756459579450  0.2972471380594  0.4543837807834 1.0
C      1  0.5055279020600  0.3035367650331  0.5547044115598 1.0
C      1  0.3642585847773  0.5767663066320  0.3723766178235 1.0
C      1  0.4357447840283  0.5866934101061  0.6607886199326 1.0
C      1  0.7001188342097  0.5700781706812  0.4547328953239 1.0
C      1  0.5823515995833  0.5130381906284  0.6405709577408 1.0
C      1  0.5999357589814  0.5164081254665  0.3387583559175 1.0
C      1  0.2812548671669  0.5029518263767  0.4966215473560 1.0
C      1  0.4334756422914  0.6984270150327  0.4665133048552 1.0
C      1  0.4975590233765  0.6940084911371  0.5353907602066 1.0
C      1  0.5893673220244  0.6866693119682  0.5115666365211 1.0
C      1  0.4325846086243  0.5090534224894  0.3511573774441 1.0
C      1  0.3723192362058  0.5134105399787  0.6420752713948 1.0
C      1  0.6855461339943  0.4934509883907  0.5105151757478 1.0
C      1  0.5242945491833  0.5105351922401  0.3869795110541 1.0
C      1  0.3091068645875  0.5109108650313  0.5752289258750 1.0
C      1  0.5979017555416  0.4977795782579  0.5545133862544 1.0
C      1  0.3856637072068  0.6546966491231  0.4132669126601 1.0
C      1  0.4545213774521  0.6574842285987  0.6097840483622 1.0
C      1  0.6544280894150  0.6478807349843  0.4768553393741 1.0
C      1  0.4512890255266  0.4282454019297  0.5106236178677 1.0
C      1  0.5214284589417  0.4860574488747  0.4867956095241 1.0
END
