TITL C-204172-6179-1 -8.224 3375.00 -1476.15658281 0 0 180 (C1) n - 1
REM
REM Run started: at 2020.12.23 04:06:38 in /rds/project/t2_vol4/rds-t2-cs072/BORA/CARBON/AIRSS/Generating-Clusters/Str-Search/Higher-Symm/Only-C180
REM VASP from code version vasp.5.4.4.18Apr17-6-g9f103f2a35 (build Oct 11 2019 16:45:47) gamma-only
REM
REM
REM
REM
REM ./C.cell (f712cfaf3acf65fd2d5dcba0fd1fd40b)
REM AIRSS Version 0.9.1 bugfix July 2018 build 013d7b7c2542+ Fri, 06 Jul 2018 19:26:36 +0100
REM compiler GCC version 4.8.5 20150623 (Red Hat 4.8.5-39)
REM options -cpp -mtune=generic -march=x86-64 -g -O0
REM seed 95926884 -504272102 -212891617 1871376606 625434920 617497880 -357173911 -494624296 -1214433012 -1049299144 -1037658952 980234588
REM
REM C.POTCAR (d86ddea03c3ceb6dc662c8ad6801f873)
REM 
CELL 1.54180   15.00000   15.00000   15.00000   90.00000   90.00000   90.00000
LATT -1
SFAC C  
C      1  0.7613967402565  0.4540561827050  0.7944438550208 1.0
C      1  0.5515915835125  0.2424734129241  0.7004053045314 1.0
C      1  0.2755880375253  0.3870056647976  0.7772125284475 1.0
C      1  0.3200499748615  0.6284523467439  0.7638200640756 1.0
C      1  0.6417741208060  0.6835667772654  0.8253626465200 1.0
C      1  0.5772146058132  0.6623487023195  0.1835180957829 1.0
C      1  0.6676999885297  0.4702154838364  0.1797566825621 1.0
C      1  0.5168515428095  0.3263999524614  0.1986108322723 1.0
C      1  0.3298094485756  0.4224974315731  0.1882113866611 1.0
C      1  0.3660016268324  0.6327238195483  0.1950522213183 1.0
C      1  0.3133592291214  0.8487574840324  0.4363836476565 1.0
C      1  0.7338620347234  0.7488223679164  0.4533838418639 1.0
C      1  0.8559888842054  0.3453653785803  0.4323840291929 1.0
C      1  0.4498423896140  0.1170181762712  0.4401574916342 1.0
C      1  0.1268765438106  0.4147740466368  0.4541924949444 1.0
C      1  0.3172888413061  0.2600981614371  0.2782777201414 1.0
C      1  0.2101556516489  0.5872042785538  0.2701544253898 1.0
C      1  0.4947693329028  0.8037943434071  0.2674662635279 1.0
C      1  0.7754318434045  0.5939466493475  0.2624926264442 1.0
C      1  0.6715678614150  0.2697425077136  0.2673983723678 1.0
C      1  0.6465141194389  0.5364084405216  0.3310567831440 1.0
C      1  0.5800329015805  0.3776418172916  0.3329102104059 1.0
C      1  0.3952479974086  0.3857478695787  0.3346262702361 1.0
C      1  0.3496067876818  0.5568165995579  0.3304598789481 1.0
C      1  0.5028260925209  0.6558320780535  0.3243202396958 1.0
C      1  0.6223737050754  0.2773332951356  0.5295635951362 1.0
C      1  0.3272305995003  0.3228179277237  0.5377109502371 1.0
C      1  0.2662318857091  0.6052371686074  0.5422976088874 1.0
C      1  0.5196531182909  0.7531311760540  0.5257529006696 1.0
C      1  0.7366461169180  0.5922109643086  0.5290440518832 1.0
C      1  0.5480025663965  0.4066538915409  0.8164501996618 1.0
C      1  0.4409204001893  0.4236236438873  0.8168768073051 1.0
C      1  0.4402489707379  0.5310121793097  0.8210302643127 1.0
C      1  0.5353763214805  0.5782761032117  0.8099700933467 1.0
C      1  0.6060774708276  0.5000524971623  0.8045607360766 1.0
C      1  0.2503279617826  0.4186814070470  0.2516501892754 1.0
C      1  0.3448004520086  0.7182920393432  0.2418632965723 1.0
C      1  0.6470043101546  0.7095153584543  0.2350810231410 1.0
C      1  0.7373562235042  0.4272215523517  0.2427044111838 1.0
C      1  0.4863947794293  0.2447601310080  0.2454848329568 1.0
C      1  0.2322953628710  0.4732914535002  0.7821015029638 1.0
C      1  0.3823576055167  0.6994498657397  0.7228899257328 1.0
C      1  0.7301889211580  0.6883926288628  0.7869555496843 1.0
C      1  0.7580828856191  0.3647423214657  0.7696199028163 1.0
C      1  0.4711114826668  0.2192837044595  0.7473094615013 1.0
C      1  0.3473984310022  0.1887626849917  0.7000929108557 1.0
C      1  0.1284642817736  0.5610581530801  0.6745767457845 1.0
C      1  0.4527361841877  0.8182193508044  0.6843299694921 1.0
C      1  0.8452249666341  0.6601555350932  0.6712708487453 1.0
C      1  0.7629914017284  0.2377170337366  0.6562930689951 1.0
C      1  0.8231627617113  0.7484896535261  0.5031233046528 1.0
C      1  0.8434861086305  0.2676793247435  0.4843900681812 1.0
C      1  0.3774957594783  0.1151758666911  0.5036465207697 1.0
C      1  0.0930387128460  0.4826900045436  0.5068669183855 1.0
C      1  0.3745165495475  0.8935387347218  0.4992335334355 1.0
C      1  0.4346403625367  0.7152013964817  0.3789029265339 1.0
C      1  0.6729125085937  0.6236383052710  0.3731823206358 1.0
C      1  0.6727927680351  0.3697889607752  0.3896812790674 1.0
C      1  0.4208677145203  0.2992717651609  0.3864026700848 1.0
C      1  0.2768475167523  0.5107168037639  0.3899061160446 1.0
C      1  0.7033924168352  0.5176855048996  0.8260981523392 1.0
C      1  0.6097926142059  0.3387541354246  0.8482833521386 1.0
C      1  0.3613646293676  0.3486600643383  0.8108836938582 1.0
C      1  0.3576307073332  0.5749818313956  0.8404477830015 1.0
C      1  0.5492935058669  0.6802542876891  0.8201065527690 1.0
C      1  0.6445124658522  0.1980180070058  0.5710997791589 1.0
C      1  0.2784862096403  0.2871747595303  0.6097490605414 1.0
C      1  0.1975327619460  0.6627079920684  0.5807004705133 1.0
C      1  0.5682008481289  0.8092553668292  0.5837877743530 1.0
C      1  0.8109336924649  0.5512699234550  0.5726292292789 1.0
C      1  0.4960378122119  0.1227246748340  0.6211099085961 1.0
C      1  0.1923286388652  0.4194293573324  0.6356763570907 1.0
C      1  0.2907082556636  0.7990623368958  0.6123368162626 1.0
C      1  0.7134773072168  0.7507386528380  0.6341412086696 1.0
C      1  0.8108233764649  0.3861193668898  0.6110164007370 1.0
C      1  0.5990978048127  0.6217246570067  0.5193979674163 1.0
C      1  0.6215304596118  0.4212828357369  0.5393116934805 1.0
C      1  0.4645151989110  0.3628256776551  0.5278304146034 1.0
C      1  0.3565941081757  0.4963237836483  0.5304781061174 1.0
C      1  0.4330972682779  0.6400949183683  0.5260699654127 1.0
C      1  0.5464827057923  0.6730922896145  0.6674788786380 1.0
C      1  0.6650189886963  0.4817733492183  0.6165231078965 1.0
C      1  0.5579965650469  0.3292619399498  0.6678637591542 1.0
C      1  0.3647136196228  0.4016014445099  0.6634968072605 1.0
C      1  0.3718230665420  0.6034764237252  0.6807327351657 1.0
C      1  0.5731859524441  0.4816033614917  0.1635566822684 1.0
C      1  0.4962859085238  0.4176230859394  0.1690601705816 1.0
C      1  0.4118000091007  0.4707284321669  0.1675993387728 1.0
C      1  0.4366482291803  0.5689017732098  0.1677496273591 1.0
C      1  0.5361080566841  0.5752145240051  0.1642354498769 1.0
C      1  0.2087004603846  0.4910748220984  0.3177194809693 1.0
C      1  0.4019500523505  0.7789881675211  0.3042707174665 1.0
C      1  0.7199928145863  0.6731103109512  0.2987726369915 1.0
C      1  0.7324376959774  0.3444726587370  0.3102285445681 1.0
C      1  0.4086941399087  0.2283738027976  0.3122019892618 1.0
C      1  0.4344485742803  0.1480814246101  0.6944901592395 1.0
C      1  0.1747302011629  0.4886371766580  0.7039228296411 1.0
C      1  0.3656325661872  0.7847446713304  0.6746042101232 1.0
C      1  0.7717904195314  0.7045471131440  0.7012367506829 1.0
C      1  0.7834057118678  0.3233253615631  0.6827503387727 1.0
C      1  0.9024287878778  0.5870810791139  0.3613735616501 1.0
C      1  0.6990312946373  0.1410253333492  0.3587617402028 1.0
C      1  0.2152558140444  0.2028302583002  0.3905842540584 1.0
C      1  0.1253794657494  0.6701185204848  0.3754175693593 1.0
C      1  0.5521131796826  0.9071189757989  0.3795338048485 1.0
C      1  0.4632060107451  0.0979712436954  0.5344208587232 1.0
C      1  0.1489238923412  0.4197702981649  0.5521980554910 1.0
C      1  0.3002614578920  0.8526354558196  0.5320617346747 1.0
C      1  0.7526096682624  0.7834068815267  0.5496918973836 1.0
C      1  0.8458598897225  0.3514941475718  0.5283445383993 1.0
C      1  0.0770148396220  0.5760754379842  0.5146810974290 1.0
C      1  0.4625991830876  0.9125832061226  0.5295692384366 1.0
C      1  0.8890062663533  0.6795153647027  0.5092414279371 1.0
C      1  0.7946815426609  0.1872061013911  0.4968038299588 1.0
C      1  0.2951481599816  0.1475572322081  0.5357637085042 1.0
C      1  0.7169930975145  0.7656632683018  0.3504118346868 1.0
C      1  0.8271300494502  0.3737642481158  0.3434732328423 1.0
C      1  0.4682964087321  0.1517449592615  0.3534533339243 1.0
C      1  0.1551944123245  0.4115215771702  0.3608168334763 1.0
C      1  0.3119886168167  0.8079982725537  0.3507345285127 1.0
C      1  0.8471102195374  0.5462509579286  0.2974600356905 1.0
C      1  0.6406029752714  0.1870734409935  0.3008312831741 1.0
C      1  0.2334439355238  0.2602261451386  0.3178172622010 1.0
C      1  0.1916984964029  0.6723847673184  0.3089442504200 1.0
C      1  0.5662926543632  0.8481299874868  0.3074493345328 1.0
C      1  0.6617205129648  0.5661344514435  0.5688750882389 1.0
C      1  0.5582578013682  0.3425665643703  0.5728619413738 1.0
C      1  0.3764665278721  0.4046901957052  0.5708691090863 1.0
C      1  0.3570867455930  0.5929777622521  0.5821077489118 1.0
C      1  0.5229971479102  0.6653768969383  0.5706594290980 1.0
C      1  0.5980373600871  0.4909276951365  0.6977576884633 1.0
C      1  0.5387661685208  0.4086174159091  0.7140139242107 1.0
C      1  0.4368937018140  0.4392486185950  0.7145642849978 1.0
C      1  0.4419783637142  0.5420914848154  0.7124754281202 1.0
C      1  0.5379511271159  0.5755502531336  0.7049077779291 1.0
C      1  0.9054465118270  0.6326414239040  0.4303394368201 1.0
C      1  0.7518772813324  0.1514891160407  0.4217639749536 1.0
C      1  0.2389956499085  0.1751740733219  0.4646061117270 1.0
C      1  0.0910224141117  0.6284921456895  0.4385214198359 1.0
C      1  0.5206437288935  0.9187896479686  0.4549665284195 1.0
C      1  0.7742068966396  0.4738225291231  0.6170006671635 1.0
C      1  0.5737253796463  0.1737831773286  0.6350944497726 1.0
C      1  0.2684817269262  0.3645211937380  0.6756002058056 1.0
C      1  0.2230853943270  0.7401748042773  0.6127618915327 1.0
C      1  0.6211038739113  0.7487965143136  0.6435480646247 1.0
C      1  0.5246210950086  0.7110566544806  0.2466668906349 1.0
C      1  0.7005750642256  0.5273829436163  0.2497339064650 1.0
C      1  0.5975943876795  0.3287961453349  0.2503727858509 1.0
C      1  0.3408041616238  0.3570722095899  0.2582464526610 1.0
C      1  0.3030226361612  0.5832075752712  0.2477243947967 1.0
C      1  0.8727596160517  0.6265964558687  0.5920802295351 1.0
C      1  0.7440565979863  0.1917263140702  0.5809282850357 1.0
C      1  0.2905938838562  0.1940646814268  0.6238791123805 1.0
C      1  0.1173531571819  0.6062270611528  0.5979651217300 1.0
C      1  0.4982857716672  0.8686356947250  0.6115753075189 1.0
C      1  0.7097864116910  0.6136141816181  0.8364456766355 1.0
C      1  0.6894231635244  0.3284433242916  0.8253925306846 1.0
C      1  0.3858156311960  0.2653529197501  0.7671073153121 1.0
C      1  0.2730521203604  0.5548911479412  0.8181385839891 1.0
C      1  0.4865241357625  0.7248732982985  0.7351654020491 1.0
C      1  0.8279580635176  0.4486767295241  0.2863138973754 1.0
C      1  0.5412416614702  0.1799120078388  0.2953020788991 1.0
C      1  0.1930281450997  0.3495424058777  0.3019568671782 1.0
C      1  0.2662678728186  0.7380628923114  0.2973711768349 1.0
C      1  0.6490524917334  0.7952425943319  0.2930374560731 1.0
C      1  0.4185283826769  0.6194571143798  0.3644653148775 1.0
C      1  0.5784728448028  0.6041557751616  0.3605404006756 1.0
C      1  0.6272958689038  0.4541193509448  0.3776955094196 1.0
C      1  0.4893042013765  0.3694576838303  0.3698038826879 1.0
C      1  0.3633766158696  0.4681949665783  0.3740328453734 1.0
C      1  0.2736319762585  0.5324249258195  0.4863112241945 1.0
C      1  0.4450155841899  0.7295918663027  0.4755131941509 1.0
C      1  0.6923713671628  0.6560519907637  0.4655244600390 1.0
C      1  0.6680016879561  0.3479803390659  0.4848246624899 1.0
C      1  0.4009783023749  0.2980006313185  0.4825090230976 1.0
C      1  0.4540668191075  0.5802445235314  0.4493289788045 1.0
C      1  0.5522863144133  0.5691492712790  0.4497089176816 1.0
C      1  0.5755249413178  0.4713130565813  0.4616693534780 1.0
C      1  0.4891684728748  0.4233135040593  0.4540017840213 1.0
C      1  0.4173453511764  0.4906415158419  0.4530107409450 1.0
END
