TITL C-207890-3935-14 -8.846 3375.00 -1519.76593548 0 0 182 (Cs) n - 1
REM
REM Run started: at 2020.12.01 08:30:28 in /rds/project/t2_vol4/rds-t2-cs072/BORA/CARBON/AIRSS/Generating-Clusters/Str-Search/Higher-Symm/C100-200
REM VASP from code version vasp.5.4.4.18Apr17-6-g9f103f2a35 (build Oct 11 2019 16:45:47) gamma-only
REM
REM
REM
REM
REM ./C.cell (533062f00bc710175b3da973d35f2034)
REM AIRSS Version 0.9.1 bugfix July 2018 build 013d7b7c2542+ Fri, 06 Jul 2018 19:26:36 +0100
REM compiler GCC version 4.8.5 20150623 (Red Hat 4.8.5-39)
REM options -cpp -mtune=generic -march=x86-64 -g -O0
REM seed 1205254215 1114847045 -1160838819 438699406 -572995343 -1885914028 1495243384 -1324427371 1510707872 -853871571 1658865715 -1366045427
REM
REM C.POTCAR (d86ddea03c3ceb6dc662c8ad6801f873)
REM 
CELL 1.54180   15.00000   15.00000   15.00000   90.00000   90.00000   90.00000
LATT -1
SFAC C  
C      1  0.6360299695750  0.6655076065833  0.5526998132223 1.0
C      1  0.6360181584801  0.6655091304289  0.4471639853076 1.0
C      1  0.4774592336181  0.9267089785139  0.4229324044791 1.0
C      1  0.4774603255774  0.9266199393937  0.5770389048480 1.0
C      1  0.4820546786398  0.4106022148964  0.7772607064740 1.0
C      1  0.4819795697628  0.4105233123636  0.2228083209545 1.0
C      1  0.5689742768000  0.4154581157684  0.7479889962658 1.0
C      1  0.5689145817887  0.4153820351780  0.2520279780595 1.0
C      1  0.3884456847194  0.8122922816073  0.3142899220913 1.0
C      1  0.3884253485489  0.8123381231093  0.6856078607242 1.0
C      1  0.2966480034428  0.2765638490859  0.7297604251804 1.0
C      1  0.2965852440505  0.2765080900326  0.2704137270843 1.0
C      1  0.1138625668336  0.5077491442302  0.3984065019809 1.0
C      1  0.1138349265328  0.5077928230335  0.6018245128138 1.0
C      1  0.6089956230945  0.2535794049058  0.7378886419345 1.0
C      1  0.6088636016170  0.2534849060547  0.2622058598192 1.0
C      1  0.7684264664997  0.2976607999136  0.6784552877677 1.0
C      1  0.7683352911973  0.2975418767908  0.3215186921113 1.0
C      1  0.5315188757764  0.2009436573243  0.5944772061648 1.0
C      1  0.5314720303545  0.2008879967917  0.4056810130711 1.0
C      1  0.6699734331099  0.3000328855337  0.6810794401776 1.0
C      1  0.6698809409482  0.2999316893914  0.3189433894835 1.0
C      1  0.2070324531306  0.2635093127585  0.4067264184723 1.0
C      1  0.2070774577709  0.2635634907008  0.5935054169895 1.0
C      1  0.4335758463408  0.4989934931451  0.2088310728412 1.0
C      1  0.4336490450091  0.4990555816845  0.7912109971041 1.0
C      1  0.6184353107062  0.1697946490819  0.5465267111959 1.0
C      1  0.6184159407356  0.1697770560481  0.4535814209375 1.0
C      1  0.4428978144370  0.1608093655251  0.5538403652765 1.0
C      1  0.4428697943119  0.1608019535162  0.4463800864127 1.0
C      1  0.3360189080668  0.3430588063339  0.2124579751949 1.0
C      1  0.3361258345055  0.3430794133010  0.7877316603050 1.0
C      1  0.3646967976520  0.2232002515630  0.6883127450370 1.0
C      1  0.3646454719139  0.2231504985605  0.3118508977211 1.0
C      1  0.2224778384377  0.2982275956240  0.6809760752710 1.0
C      1  0.2224276400929  0.2981582724634  0.3192318717342 1.0
C      1  0.5601955901136  0.5823744150326  0.7260512243575 1.0
C      1  0.5602189838695  0.5822881576709  0.2738138800530 1.0
C      1  0.1515518330394  0.3279069235686  0.5459587040829 1.0
C      1  0.1515233585846  0.3278607037408  0.4542916916278 1.0
C      1  0.4253249139676  0.7658375192648  0.7648010172281 1.0
C      1  0.4253311433864  0.7657351436050  0.2350846223017 1.0
C      1  0.6612622103365  0.5537043046621  0.1637354293070 1.0
C      1  0.6613102709881  0.5538939299516  0.8361213882682 1.0
C      1  0.4459725493585  0.0769624610093  0.5000910468302 1.0
C      1  0.4548428207504  0.9875906744203  0.5000331211085 1.0
C      1  0.5156398447314  0.7354788591693  0.8067569837877 1.0
C      1  0.5156253692814  0.7353671403063  0.1930418017299 1.0
C      1  0.2762543998414  0.2116921610074  0.4511151728371 1.0
C      1  0.2762560928099  0.2116922958125  0.5491033289016 1.0
C      1  0.3561060428984  0.4905984410506  0.8554987008267 1.0
C      1  0.3559867931287  0.4905329027657  0.1446348945211 1.0
C      1  0.3831532446212  0.6969130269156  0.1829473726216 1.0
C      1  0.3832048356378  0.6970562766623  0.8170087089410 1.0
C      1  0.4768799642840  0.3706510845434  0.4550179771664 1.0
C      1  0.4769154065505  0.3706803302682  0.5449813419759 1.0
C      1  0.5463503722091  0.2969607117530  0.5539804891386 1.0
C      1  0.5463123972855  0.2969303501536  0.4460740206928 1.0
C      1  0.5757876997312  0.7517824045324  0.5523395133599 1.0
C      1  0.5757665021232  0.7518227289652  0.4475084506428 1.0
C      1  0.5032802618255  0.5717539323748  0.1922429833448 1.0
C      1  0.5033299592680  0.5718808495389  0.8076883360828 1.0
C      1  0.4394841574168  0.6058795404207  0.9426110072521 1.0
C      1  0.4394171927357  0.6057743790858  0.0573098092812 1.0
C      1  0.6735194206082  0.5041754410959  0.4387313159749 1.0
C      1  0.6735150310167  0.5041825863860  0.5611817582126 1.0
C      1  0.5970410759915  0.4931282774797  0.6960815226669 1.0
C      1  0.5970069727955  0.4930800968770  0.3038702878018 1.0
C      1  0.4262104437617  0.8390621271847  0.5947343418750 1.0
C      1  0.4262172618196  0.8391148530846  0.4051274664256 1.0
C      1  0.1531989229160  0.4156396577410  0.5962169333487 1.0
C      1  0.1531491643900  0.4155595660012  0.4039787387319 1.0
C      1  0.5629759443742  0.9093212313975  0.4093874063555 1.0
C      1  0.5629677903899  0.9092287299790  0.5906114652206 1.0
C      1  0.3253951441713  0.4295600585245  0.4500032129557 1.0
C      1  0.3254101850683  0.4295673501431  0.5500866109405 1.0
C      1  0.5345093873980  0.5454088135711  0.6344607242597 1.0
C      1  0.5344977295480  0.5454091143694  0.3654478100227 1.0
C      1  0.8357205453667  0.4524985688506  0.3132127167889 1.0
C      1  0.8357528214651  0.4526134979705  0.6866603057544 1.0
C      1  0.7260616357268  0.3968134115660  0.7925993401493 1.0
C      1  0.7259432100457  0.3966597202076  0.2073817896088 1.0
C      1  0.5912951138019  0.5695788737712  0.5528782424322 1.0
C      1  0.5912926938620  0.5695854632466  0.4469879749604 1.0
C      1  0.3223420558534  0.6105620466156  0.6893066229751 1.0
C      1  0.3222588371656  0.6105810139802  0.3107563068515 1.0
C      1  0.7172813398413  0.6120691647694  0.3100050710597 1.0
C      1  0.7173046377727  0.6121213243300  0.6898330883320 1.0
C      1  0.4177444423854  0.4341399613935  0.5881522541437 1.0
C      1  0.4177307808444  0.4341632497728  0.4118705255506 1.0
C      1  0.2514989668078  0.4290148094072  0.6011507623742 1.0
C      1  0.2514576171645  0.4288760860770  0.3989932705358 1.0
C      1  0.6650837087602  0.4055818662044  0.4556424506321 1.0
C      1  0.6651106005796  0.4055944588765  0.5443121775247 1.0
C      1  0.7232856327445  0.6643872084258  0.3955580479757 1.0
C      1  0.7233017386279  0.6644210864372  0.6043026867941 1.0
C      1  0.3870370492060  0.5464672089463  0.2979880883755 1.0
C      1  0.3871078628824  0.5464352485211  0.7020707163215 1.0
C      1  0.6120025616846  0.8354086046788  0.5999353921419 1.0
C      1  0.6119389377597  0.8354634637167  0.3999256540909 1.0
C      1  0.1380672572438  0.5597025241727  0.6783611251063 1.0
C      1  0.1379788395606  0.5596543187008  0.3218835795508 1.0
C      1  0.1594414024957  0.5898512693682  0.4078740978172 1.0
C      1  0.1595106368450  0.5898492701105  0.5923451784819 1.0
C      1  0.5241930960474  0.5473981293003  0.9533003229878 1.0
C      1  0.5241582020762  0.5472996725933  0.0465906825585 1.0
C      1  0.8997025642193  0.3739001303354  0.4520264820318 1.0
C      1  0.8996646958145  0.3739300538811  0.5478416156343 1.0
C      1  0.5738318366014  0.5426973048422  0.1228652301620 1.0
C      1  0.5739040942654  0.5429159072339  0.8770340275975 1.0
C      1  0.6990898236734  0.2373331090124  0.5500459142823 1.0
C      1  0.6990666931561  0.2373012798367  0.4499921692175 1.0
C      1  0.7965047856069  0.6719228203097  0.4495447372243 1.0
C      1  0.7965215670811  0.6719238054269  0.5503213560879 1.0
C      1  0.9021234352378  0.5281412765758  0.5482805284982 1.0
C      1  0.9021208653476  0.5281113351617  0.4515543397737 1.0
C      1  0.8612253485753  0.2813350884018  0.4527699921574 1.0
C      1  0.8612354966635  0.2813726701883  0.5471575288517 1.0
C      1  0.2942450876160  0.4271186535493  0.8122263184878 1.0
C      1  0.2941404943731  0.4271103605339  0.1879801803161 1.0
C      1  0.1892195651030  0.5451948512347  0.2449651282324 1.0
C      1  0.1893677408158  0.5452307125243  0.7552182798245 1.0
C      1  0.6079617197402  0.7252104613785  0.7867376662193 1.0
C      1  0.6079476392093  0.7250846831841  0.2129768133799 1.0
C      1  0.4426699337007  0.5104743915845  0.3685779516398 1.0
C      1  0.4426833970760  0.5104490564986  0.6314333429027 1.0
C      1  0.2359419726502  0.6274800543280  0.4525420959239 1.0
C      1  0.2360056551496  0.6274413713964  0.5475841959235 1.0
C      1  0.3927153848325  0.6778223263585  0.4534798227162 1.0
C      1  0.3927728004804  0.6777893413053  0.5464807704698 1.0
C      1  0.3572452673401  0.1916212506006  0.5991707964520 1.0
C      1  0.3572431076299  0.1916285136745  0.4010195818274 1.0
C      1  0.3071116358419  0.8133382875658  0.6378561441526 1.0
C      1  0.3070350828460  0.8132525849349  0.3619465182783 1.0
C      1  0.3485553478059  0.5715507895035  0.0970782911251 1.0
C      1  0.3486867533718  0.5716871774463  0.9028954201752 1.0
C      1  0.2568577457382  0.6166134734726  0.7664936835219 1.0
C      1  0.2567415551050  0.6165543884098  0.2335662092434 1.0
C      1  0.7964458419617  0.3753516815469  0.2716255573564 1.0
C      1  0.7965499178604  0.3754758825813  0.7283356206596 1.0
C      1  0.3153488202160  0.6468130988337  0.5977258015397 1.0
C      1  0.3152420511296  0.6468943547305  0.4023136625353 1.0
C      1  0.6893818563016  0.5198869044953  0.3408364829142 1.0
C      1  0.6893888238109  0.5199190736677  0.6590738069630 1.0
C      1  0.7247039897990  0.4932835209940  0.1954825636592 1.0
C      1  0.7247734580678  0.4934500451970  0.8044312576371 1.0
C      1  0.4469834945288  0.2490333973780  0.7311895189786 1.0
C      1  0.4468855136433  0.2489823193029  0.2689422557880 1.0
C      1  0.7881044330620  0.2549284770840  0.4009167314568 1.0
C      1  0.7881429506502  0.2550025567643  0.5990640305926 1.0
C      1  0.4298442104570  0.3293679110965  0.7840336697048 1.0
C      1  0.4297344260229  0.3292907686495  0.2160952055888 1.0
C      1  0.2015417462944  0.3947949781172  0.3162663458490 1.0
C      1  0.2016111733770  0.3948660376808  0.6839183493234 1.0
C      1  0.6384327487329  0.3487641739552  0.7650125815420 1.0
C      1  0.6383093901524  0.3486291392528  0.2350290162625 1.0
C      1  0.6440982317752  0.6291791717185  0.7634661476694 1.0
C      1  0.6440929920264  0.6290806158985  0.2363358197907 1.0
C      1  0.8823210854195  0.6258684647302  0.4520205051050 1.0
C      1  0.8823253139699  0.6258730485823  0.5477951816312 1.0
C      1  0.6743406980245  0.8280244630112  0.3289450928019 1.0
C      1  0.6746174190306  0.8279395709260  0.6707284451512 1.0
C      1  0.7702196554264  0.5253890146352  0.7187568677363 1.0
C      1  0.7701893777516  0.5253075521463  0.2810999857946 1.0
C      1  0.6417900756553  0.3194073207807  0.4130816554690 1.0
C      1  0.6418301438076  0.3194606535919  0.5869457565704 1.0
C      1  0.4659098292113  0.6593828741363  0.8526030448906 1.0
C      1  0.4658358235287  0.6592318108973  0.1472826003571 1.0
C      1  0.3080947525983  0.6401971881728  0.8401516621134 1.0
C      1  0.3079859160744  0.6400637127984  0.1598805051660 1.0
C      1  0.2161088923886  0.4535807503777  0.7651046457928 1.0
C      1  0.2160514782697  0.4535566303242  0.2351218595554 1.0
C      1  0.3333920511773  0.8399788965113  0.4544474489195 1.0
C      1  0.3333729475614  0.8399742706216  0.5453655107896 1.0
C      1  0.4676768646136  0.7522205134577  0.4481781799080 1.0
C      1  0.4677022897728  0.7521942504958  0.5517399820601 1.0
C      1  0.5307189484302  0.2237714872227  0.3031366084112 1.0
C      1  0.5308316308055  0.2238202556605  0.6970148456082 1.0
C      1  0.6531301486148  0.7895128179729  0.2589163304087 1.0
C      1  0.6532339271314  0.7895268883880  0.7408105079467 1.0
C      1  0.8836221625509  0.4518063268151  0.6021385866580 1.0
C      1  0.8836379119298  0.4517503427740  0.3976982435692 1.0
END
