TITL C-20217-6445-16 -7.972 3375.00 -1603.49004418 0 0 195 (Cs) n - 1
REM
REM Run started: at 2021.01.02 21:40:09 in /gpfs/home/chem/mssmkc/CARBON/AIRSS/Generating-Clusters/Str-Search/Higher-Symm/C100-200
REM VASP from code version vasp.5.4.4.18Apr17-6-g9f103f2a35 (build Oct 11 2019 16:45:47) gamma-only
REM
REM
REM
REM
REM ./C.cell (533062f00bc710175b3da973d35f2034)
REM AIRSS Version 0.9.1 bugfix July 2018 build 013d7b7c2542+ Fri, 06 Jul 2018 19:26:36 +0100
REM compiler GCC version 6.3.0
REM options -cpp -iprefix /gpfs/warwick/csc/orac/software/Core/GCCcore/6.3.0/bin/../lib/gcc/x86_64-pc-linux-gnu/6.3.0/ -mtune=generic -march=x86-64 -g -O0
REM seed -1321189690 758191736 1965056443 1442147682 967995233 -1723636657 96876314 1521038759 -1568175776 1005607281 -1703601505 -1508549375
REM
REM C.POTCAR (d86ddea03c3ceb6dc662c8ad6801f873)
REM 
CELL 1.54180   15.00000   15.00000   15.00000   90.00000   90.00000   90.00000
LATT -1
SFAC C  
C      1  0.3749221812671  0.2487755574016  0.7602214328587 1.0
C      1  0.6962248529265  0.2519289717775  0.7421405052892 1.0
C      1  0.8040829285316  0.6084732770536  0.7287457424868 1.0
C      1  0.4718321867186  0.7836558058235  0.7544328021309 1.0
C      1  0.2147888959645  0.5929741583812  0.7683007552319 1.0
C      1  0.3749181793639  0.7512267863494  0.7602415575455 1.0
C      1  0.6962298495390  0.7479754778837  0.7421627047615 1.0
C      1  0.8039329170151  0.3915287605799  0.7287756391929 1.0
C      1  0.4718347465042  0.2163405073311  0.7544256991800 1.0
C      1  0.2147712253025  0.4069928564650  0.7682509079236 1.0
C      1  0.4980971057657  0.3433677443215  0.4403109730548 1.0
C      1  0.6749603675122  0.4458502662449  0.4301544503765 1.0
C      1  0.6082234729560  0.6318374900450  0.4376575913217 1.0
C      1  0.3984402291306  0.6277242643435  0.4447954519314 1.0
C      1  0.3259438312501  0.4507065821270  0.4505669521536 1.0
C      1  0.4980836095816  0.6566253708531  0.4403177122420 1.0
C      1  0.6749763694290  0.5541435697604  0.4301423634239 1.0
C      1  0.6082167485837  0.3681516881304  0.4376639665985 1.0
C      1  0.3984650043536  0.3722977081448  0.4447792546104 1.0
C      1  0.3259171987790  0.5493260477895  0.4505770418859 1.0
C      1  0.3530449559182  0.3380778753882  0.6032155062432 1.0
C      1  0.6171793606411  0.2868286299517  0.5925881943650 1.0
C      1  0.7614054405577  0.5452442260274  0.5756188168426 1.0
C      1  0.5271830308728  0.7223705934510  0.5924594534628 1.0
C      1  0.2822971032218  0.6052656416433  0.6104382095610 1.0
C      1  0.3530296708345  0.6619219624272  0.6032363412634 1.0
C      1  0.6171418417366  0.7130627474501  0.5926071336813 1.0
C      1  0.7613948082526  0.4548313911049  0.5756224071919 1.0
C      1  0.5272222155407  0.2775881788691  0.5924661916691 1.0
C      1  0.2823059512736  0.3947285461727  0.6104056498112 1.0
C      1  0.5948258756865  0.6338363494582  0.3320635645789 1.0
C      1  0.3907878004115  0.6303111894093  0.3414956624753 1.0
C      1  0.3232717720543  0.4473937430112  0.3449559251752 1.0
C      1  0.4943767138372  0.3395326883343  0.3372982831807 1.0
C      1  0.6607896374499  0.4489427257353  0.3263951225601 1.0
C      1  0.5948301372895  0.3661450838828  0.3320532774987 1.0
C      1  0.3907995478314  0.3697183603315  0.3414833589963 1.0
C      1  0.3232511394210  0.5526580305128  0.3449697014180 1.0
C      1  0.4943725206490  0.6604602639308  0.3373080588012 1.0
C      1  0.6607868746715  0.5510334229943  0.3263889695267 1.0
C      1  0.5392288681581  0.2661937483874  0.8062185043953 1.0
C      1  0.7544560887731  0.4515901811664  0.7852156141878 1.0
C      1  0.6311067880679  0.7124840098229  0.8033148488306 1.0
C      1  0.3554625543284  0.6747904283810  0.8175583309809 1.0
C      1  0.2928847007548  0.3956612594706  0.8229741673807 1.0
C      1  0.5392180029596  0.7338190185621  0.8062401489262 1.0
C      1  0.7544657979094  0.5484984086393  0.7851788200103 1.0
C      1  0.6311064493964  0.2875396679721  0.8032486516708 1.0
C      1  0.3554708146435  0.3252191830753  0.8175138928820 1.0
C      1  0.2928868205793  0.6043484660475  0.8230260937473 1.0
C      1  0.4702433972877  0.1271736608142  0.6272766077225 1.0
C      1  0.8730577009903  0.3389861293888  0.6125353820233 1.0
C      1  0.7520810683235  0.8017709382191  0.6213631037897 1.0
C      1  0.3042941774102  0.8146067028326  0.6384135470892 1.0
C      1  0.1249797766925  0.4088653128485  0.6542969743764 1.0
C      1  0.4702619224907  0.8728056508684  0.6272797076723 1.0
C      1  0.8732686357528  0.6609377502697  0.6124145540734 1.0
C      1  0.7522275194811  0.1982937708512  0.6212744002578 1.0
C      1  0.3043019091689  0.1854048991006  0.6383938942812 1.0
C      1  0.1249766015974  0.5911698629644  0.6543822748137 1.0
C      1  0.1641169231252  0.5960391593382  0.3462229450600 1.0
C      1  0.2981417529904  0.2290949013202  0.3433281094890 1.0
C      1  0.6925478739307  0.2366904292765  0.3189201987667 1.0
C      1  0.8123361485993  0.6093267990485  0.3068506084352 1.0
C      1  0.4828161265003  0.8324866555870  0.3332256344541 1.0
C      1  0.1641554720174  0.4040223872672  0.3461911417160 1.0
C      1  0.2981418600298  0.7709164349719  0.3433483127978 1.0
C      1  0.6925749728203  0.7632837306050  0.3189821906887 1.0
C      1  0.8123518188670  0.3906355015773  0.3068696808165 1.0
C      1  0.4827992100196  0.1675145120452  0.3332172867879 1.0
C      1  0.3601484131827  0.7166649347145  0.2842655819340 1.0
C      1  0.2341096932734  0.4461335895056  0.2853112413570 1.0
C      1  0.4616967404321  0.2509706552862  0.2795625526552 1.0
C      1  0.7235681066664  0.3982130489155  0.2565531017862 1.0
C      1  0.6583117606235  0.6872683486621  0.2625479082620 1.0
C      1  0.3601398160856  0.2833582912487  0.2842557689477 1.0
C      1  0.2340972319388  0.5539333668023  0.2853302399832 1.0
C      1  0.4617116864528  0.7490339063178  0.2795730248908 1.0
C      1  0.7235597311459  0.6017608597247  0.2565518099496 1.0
C      1  0.6582885626736  0.3127153126475  0.2625061054853 1.0
C      1  0.6759053569514  0.2459695067538  0.6517563672853 1.0
C      1  0.8108051722271  0.5950440173603  0.6365446041508 1.0
C      1  0.4706870680771  0.7736148973998  0.6502177135095 1.0
C      1  0.2171384808452  0.6067919417123  0.6763410004673 1.0
C      1  0.3714432563090  0.2607352795699  0.6560809435398 1.0
C      1  0.6758546756122  0.7539013876558  0.6517897943154 1.0
C      1  0.8106280732958  0.4049165349011  0.6365800442712 1.0
C      1  0.4706944140872  0.2263685305174  0.6502105165716 1.0
C      1  0.2171292539213  0.3931740932135  0.6763001455594 1.0
C      1  0.3714290837332  0.7392689200946  0.6561035053582 1.0
C      1  0.6137685327394  0.3772902611772  0.8448756253463 1.0
C      1  0.6698063180825  0.5506191861517  0.8374762635549 1.0
C      1  0.5161032409274  0.6476641382270  0.8504587121506 1.0
C      1  0.3628453497617  0.5452882912180  0.8638227625482 1.0
C      1  0.4283961020051  0.3791109350131  0.8570443460681 1.0
C      1  0.6137608972064  0.6227581081960  0.8449296322874 1.0
C      1  0.6697995530252  0.4494538314970  0.8374870104394 1.0
C      1  0.5161152671700  0.3523706211235  0.8504149457647 1.0
C      1  0.3628437306245  0.4547200397949  0.8637881097514 1.0
C      1  0.4283887944549  0.6209034714142  0.8570895995289 1.0
C      1  0.8460936953598  0.1334888042592  0.5081843990286 1.0
C      1  0.9539135467149  0.7410524129090  0.4948325676759 1.0
C      1  0.4276571851422  0.9483957260212  0.4717128894250 1.0
C      1  0.9957089430304  0.5878645444435  0.5490947784485 1.0
C      1  0.2738950704165  0.1121483818086  0.4822472178060 1.0
C      1  0.8462810138155  0.8661049459698  0.5087532005155 1.0
C      1  0.9539891249395  0.2589881942442  0.4947781271818 1.0
C      1  0.4276493171023  0.0516051272505  0.4717053714522 1.0
C      1  0.9957447902725  0.4121601905259  0.5490244963531 1.0
C      1  0.2738900030255  0.8878660592650  0.4822480068181 1.0
C      1  0.4761372118854  0.6535053339462  0.1324462576549 1.0
C      1  0.3298330638346  0.5456222427804  0.1385729269474 1.0
C      1  0.3896908734774  0.3744500952871  0.1370089273365 1.0
C      1  0.5709063197872  0.3767045634538  0.1251366097935 1.0
C      1  0.6246606970946  0.5499228522824  0.1206493380774 1.0
C      1  0.4761164026013  0.3465017238078  0.1324289023976 1.0
C      1  0.3298393346434  0.4544205982436  0.1385625426580 1.0
C      1  0.3897000214992  0.6255777615722  0.1370197470238 1.0
C      1  0.5709243474513  0.6232936903815  0.1251638551684 1.0
C      1  0.6246577429250  0.4500672624999  0.1206461281661 1.0
C      1  0.3285119154026  0.3311162871680  0.2022439105881 1.0
C      1  0.5960350160384  0.3023995944968  0.1861801860933 1.0
C      1  0.7078542721411  0.5466972022914  0.1753280923727 1.0
C      1  0.5071252036745  0.7255749437782  0.1937060016938 1.0
C      1  0.2715118699662  0.5946170222178  0.2028063858069 1.0
C      1  0.3285238821636  0.6689215718201  0.2022508880465 1.0
C      1  0.5960613943039  0.6975986965307  0.1862185183088 1.0
C      1  0.7078547627011  0.4532818704304  0.1753255611928 1.0
C      1  0.5070992986284  0.2744206281858  0.1936832596587 1.0
C      1  0.2715205974268  0.4054364255616  0.2027983137229 1.0
C      1  0.4246263278032  0.1392963326830  0.4098910142254 1.0
C      1  0.8128404364734  0.3283048753333  0.3789749424036 1.0
C      1  0.7549915342078  0.7397679799053  0.3863006607385 1.0
C      1  0.3329422330907  0.8270993502663  0.4161539947229 1.0
C      1  0.1362637548346  0.4554036938321  0.4202695118385 1.0
C      1  0.4246341729206  0.8607093341467  0.4098943144674 1.0
C      1  0.8128390067073  0.6716455188147  0.3789709978270 1.0
C      1  0.7549586800258  0.2602078619172  0.3862368605174 1.0
C      1  0.3329340250968  0.1729083011045  0.4161436633841 1.0
C      1  0.1362121217695  0.5446512309407  0.4202938876778 1.0
C      1  0.3341515438651  0.3243883354121  0.5055281939214 1.0
C      1  0.6295237394811  0.2831273480182  0.4926376693935 1.0
C      1  0.7681954070439  0.5534156086512  0.4767267914429 1.0
C      1  0.5262333091293  0.7379038174436  0.4930245852029 1.0
C      1  0.2607516203067  0.5999305038841  0.5126409120936 1.0
C      1  0.3341319361829  0.6756276690254  0.5055555229604 1.0
C      1  0.6295075344478  0.7168520366602  0.4926485024605 1.0
C      1  0.7681704859659  0.4465731808203  0.4767419149201 1.0
C      1  0.5262430433511  0.2620893673617  0.4930219533762 1.0
C      1  0.2607874049419  0.4000900862601  0.5126066121220 1.0
C      1  0.3420701716536  0.1535947518893  0.7258290796803 1.0
C      1  0.7920509283392  0.2277470139556  0.7106974053419 1.0
C      1  0.8496506744122  0.6998512058583  0.7050702170736 1.0
C      1  0.4323335213106  0.8786740284378  0.7199036894593 1.0
C      1  0.1248314082928  0.5466357492909  0.7460123115294 1.0
C      1  0.3420818966180  0.8464110498530  0.7258373508093 1.0
C      1  0.7920655435361  0.7722680520420  0.7106732717567 1.0
C      1  0.8496408696722  0.3001595049240  0.7052092624947 1.0
C      1  0.4323165271208  0.1213174884746  0.7199016942089 1.0
C      1  0.1248242640880  0.4533614332407  0.7459540734522 1.0
C      1  0.4823258450648  0.8979699739144  0.5413116904500 1.0
C      1  0.0904082068613  0.6098069493085  0.5708688502343 1.0
C      1  0.2675791003896  0.1769430798915  0.5555312049410 1.0
C      1  0.7629233265725  0.1712764111443  0.5328910692590 1.0
C      1  0.9215243540227  0.6520714081436  0.5207951025007 1.0
C      1  0.4823161381790  0.1020255951632  0.5413043886087 1.0
C      1  0.0904886606533  0.3902872968867  0.5707237429966 1.0
C      1  0.2675866679060  0.8230842583366  0.5555452951970 1.0
C      1  0.7628595768450  0.8287975821468  0.5329839590186 1.0
C      1  0.9215095598871  0.3478296827666  0.5211420169244 1.0
C      1  0.5062130492841  0.8324946909629  0.4701498723631 1.0
C      1  0.1577346913215  0.6137063753023  0.4895336169707 1.0
C      1  0.2885633500275  0.2416915670753  0.4825999893501 1.0
C      1  0.7022725872544  0.2143214922490  0.4592200653587 1.0
C      1  0.8519488841031  0.6065299706529  0.4432823716383 1.0
C      1  0.5062113467053  0.1675013064901  0.4701439866375 1.0
C      1  0.1578107703250  0.3863467989781  0.4894836455210 1.0
C      1  0.2885672071623  0.7583328217573  0.4826215652483 1.0
C      1  0.7022772233296  0.7856688627555  0.4592720486054 1.0
C      1  0.8519036550618  0.3934170739472  0.4433205236874 1.0
C      1  0.1700238952571  0.3286100791087  0.4021239813829 1.0
C      1  0.5601491871056  0.1526329535052  0.3835628561260 1.0
C      1  0.8647761186887  0.4528126076039  0.3557679934428 1.0
C      1  0.6490803129842  0.8231055452156  0.3766405141926 1.0
C      1  0.2310786280815  0.7389924289900  0.4010787528611 1.0
C      1  0.1699902837731  0.6714445558207  0.4021691011331 1.0
C      1  0.5601637596395  0.8473563191690  0.3835760471906 1.0
C      1  0.8647641424492  0.5471450607642  0.3557459582570 1.0
C      1  0.6490628103732  0.1768768870305  0.3765980475267 1.0
C      1  0.2310805716241  0.2610358384322  0.4010460934336 1.0
C      1  0.3318649367331  0.0441967727136  0.4995169893615 1.0
C      1  0.3318721685965  0.9558084953701  0.4995190467104 1.0
C      1  0.9804784205315  0.4999933138474  0.5505165652077 1.0
C      1  0.9051106433163  0.8092027978749  0.4776839124991 1.0
C      1  0.9049944639134  0.1908252743746  0.4781579279045 1.0
END
