TITL C-207890-3935-11 -5.033 3375.00 -866.55474122 0 0 107 (C1) n - 1
REM
REM Run started: at 2020.12.01 04:40:07 in /rds/project/t2_vol4/rds-t2-cs072/BORA/CARBON/AIRSS/Generating-Clusters/Str-Search/Higher-Symm/C100-200
REM VASP from code version vasp.5.4.4.18Apr17-6-g9f103f2a35 (build Oct 11 2019 16:45:47) gamma-only
REM
REM
REM
REM
REM ./C.cell (533062f00bc710175b3da973d35f2034)
REM AIRSS Version 0.9.1 bugfix July 2018 build 013d7b7c2542+ Fri, 06 Jul 2018 19:26:36 +0100
REM compiler GCC version 4.8.5 20150623 (Red Hat 4.8.5-39)
REM options -cpp -mtune=generic -march=x86-64 -g -O0
REM seed -2071778267 -960794693 -1980147265 -314008540 -1324842173 581159778 -2033707143 1547126106 1005542324 598592088 -1003988926 -1880550357
REM
REM C.POTCAR (d86ddea03c3ceb6dc662c8ad6801f873)
REM 
CELL 1.54180   15.00000   15.00000   15.00000   90.00000   90.00000   90.00000
LATT -1
SFAC C  
C      1  0.6330668698103  0.5578181746333  0.4953569294760 1.0
C      1  0.4964742126500  0.5574641725077  0.3607190293086 1.0
C      1  0.3636108825827  0.5581449196909  0.4979405509292 1.0
C      1  0.4992687515189  0.5566000783822  0.6333891026571 1.0
C      1  0.6058804146242  0.4613435924493  0.4908794993971 1.0
C      1  0.4909163240839  0.4581534043832  0.3763009155277 1.0
C      1  0.3888477236708  0.4614422776141  0.5033306915613 1.0
C      1  0.5051775303595  0.4579774096684  0.6165023293151 1.0
C      1  0.3109655889585  0.5430830560463  0.6964741484255 1.0
C      1  0.6990719404250  0.5466737905516  0.6831138059761 1.0
C      1  0.6817039588109  0.5437150284775  0.2948520054400 1.0
C      1  0.2960120908092  0.5430759571064  0.3094149102663 1.0
C      1  0.3143460482249  0.4380947598164  0.6958640345008 1.0
C      1  0.7000952307988  0.4426038823175  0.6799447579346 1.0
C      1  0.6781685845892  0.4381697152803  0.2954642542449 1.0
C      1  0.2969750151425  0.4383135311678  0.3125948292852 1.0
C      1  0.2605960871166  0.5787656188714  0.4809374348669 1.0
C      1  0.4823839865846  0.5796196423498  0.7373368238696 1.0
C      1  0.7361290552467  0.5783724738206  0.5097969558794 1.0
C      1  0.5106465407894  0.5807563147293  0.2582662248223 1.0
C      1  0.2010604650230  0.3937960185768  0.4773979327184 1.0
C      1  0.4803996378054  0.3989399882802  0.7842263543217 1.0
C      1  0.7893882903981  0.3954363488683  0.5143182648867 1.0
C      1  0.5149519396025  0.3950033755237  0.2013345649123 1.0
C      1  0.6234571257596  0.2317448659844  0.6826648008323 1.0
C      1  0.6717930996061  0.2456195273214  0.3789709565238 1.0
C      1  0.3789424531489  0.2466083157716  0.3211614996741 1.0
C      1  0.3201822054284  0.2458128896126  0.6090157852719 1.0
C      1  0.6271577841222  0.7659567123077  0.7017659275312 1.0
C      1  0.6862179007154  0.7482463853558  0.3793096224990 1.0
C      1  0.3851276881232  0.7474900645420  0.3082173015953 1.0
C      1  0.3075525276336  0.7480364078026  0.6068402063003 1.0
C      1  0.2637889987893  0.5982620433666  0.3797801195258 1.0
C      1  0.3804294281099  0.5983512614080  0.7319631414441 1.0
C      1  0.7315165044518  0.6009719501889  0.6108109567785 1.0
C      1  0.6117766703858  0.5999216844839  0.2610056511209 1.0
C      1  0.2523867614367  0.3855848947432  0.3838254637521 1.0
C      1  0.3863946498618  0.3869251924980  0.7399312654676 1.0
C      1  0.7431404103940  0.3903088712097  0.6082140763621 1.0
C      1  0.6078250286273  0.3858445064149  0.2509451230778 1.0
C      1  0.3933553300742  0.6821031706346  0.2453211673661 1.0
C      1  0.2466049691222  0.6811847312330  0.5966198871903 1.0
C      1  0.5955253413156  0.6860273342910  0.7370934720685 1.0
C      1  0.7459107788040  0.6814835775042  0.3948301207440 1.0
C      1  0.4001618414733  0.3009575735305  0.2521348908006 1.0
C      1  0.2512746687248  0.3007286022854  0.5912503078024 1.0
C      1  0.5977819565417  0.3036574212844  0.7365220077916 1.0
C      1  0.7396319378129  0.3003438029925  0.4008178517556 1.0
C      1  0.2725893546328  0.2987220488533  0.4184978650269 1.0
C      1  0.4219042028405  0.2972254213311  0.7177356312583 1.0
C      1  0.7175130421525  0.3039784619034  0.5716777869282 1.0
C      1  0.5725687325164  0.2974329766703  0.2720087148240 1.0
C      1  0.2760929809756  0.6951837572389  0.4114453425568 1.0
C      1  0.4130479616936  0.6948468136197  0.7168157692275 1.0
C      1  0.7187592391521  0.6944154541249  0.5792502604795 1.0
C      1  0.5798874253239  0.6969320040204  0.2725990960026 1.0
C      1  0.5734033877101  0.4126575656792  0.5642932868878 1.0
C      1  0.5612785729551  0.4137058963471  0.4202472072094 1.0
C      1  0.4219908559635  0.4140309835552  0.4296617654198 1.0
C      1  0.4333803338472  0.4137206422383  0.5748602993261 1.0
C      1  0.5700763002796  0.6023770774610  0.5641943884239 1.0
C      1  0.5642214908458  0.6009633114694  0.4263458934954 1.0
C      1  0.4280032134192  0.6011022589799  0.4305549936966 1.0
C      1  0.4329659778443  0.6005776845214  0.5676234003175 1.0
C      1  0.6349038571007  0.5925027398576  0.7434758957737 1.0
C      1  0.7444722019395  0.5873424105586  0.3582415989690 1.0
C      1  0.3588475120654  0.5878681239427  0.2464599788420 1.0
C      1  0.2486310017847  0.5872203036699  0.6328601300065 1.0
C      1  0.6358260649195  0.3945817776744  0.7390384276030 1.0
C      1  0.7376616408174  0.3922446960085  0.3620681105731 1.0
C      1  0.3621908662164  0.3933835783095  0.2530830462267 1.0
C      1  0.2544405720299  0.3928006677773  0.6297005290252 1.0
C      1  0.7746992666080  0.3038930502252  0.4926655288809 1.0
C      1  0.4915411148803  0.3046538488566  0.2186870274111 1.0
C      1  0.2156565296692  0.3037131205018  0.4998558512367 1.0
C      1  0.5055261711600  0.3095471248192  0.7625551074604 1.0
C      1  0.7477328195086  0.6747161133507  0.4907103776145 1.0
C      1  0.4894458347997  0.6775873230875  0.2472158484447 1.0
C      1  0.2480843253374  0.6754176963836  0.5008305663178 1.0
C      1  0.5018748414216  0.6750604418622  0.7403352348914 1.0
C      1  0.5625441797296  0.4472229286329  0.7771567428299 1.0
C      1  0.7787633637522  0.4436980730410  0.4322507474023 1.0
C      1  0.4347047290043  0.4450112408993  0.2143792783056 1.0
C      1  0.2150473844845  0.4438958934473  0.5582662172439 1.0
C      1  0.5639986540636  0.5384605283605  0.7756570493565 1.0
C      1  0.7744865572735  0.5345071828030  0.4304882687811 1.0
C      1  0.4324257119842  0.5362449435345  0.2179139721056 1.0
C      1  0.2203288984178  0.5346730023319  0.5595462071808 1.0
C      1  0.3630053095072  0.2644674591520  0.4061220720285 1.0
C      1  0.4046574130173  0.2627894267806  0.6286429705608 1.0
C      1  0.6314108303988  0.2585432119879  0.5838921040811 1.0
C      1  0.5866921453644  0.2626829441898  0.3621975442551 1.0
C      1  0.3615196095132  0.7396277898726  0.3949991369954 1.0
C      1  0.3933370660774  0.7386381463193  0.6317511590135 1.0
C      1  0.6392031832106  0.7514741771967  0.5979114613802 1.0
C      1  0.5994514015516  0.7400061757941  0.3582762739967 1.0
C      1  0.5569345353267  0.3140590965113  0.5427083379249 1.0
C      1  0.5411760221901  0.3151938684557  0.4374125591488 1.0
C      1  0.4376308707976  0.3158982274167  0.4525554267137 1.0
C      1  0.4529645283627  0.3149226451936  0.5559495876298 1.0
C      1  0.5593200414366  0.7045582376158  0.5475220376446 1.0
C      1  0.5464271696601  0.7036612322356  0.4381614852098 1.0
C      1  0.4394114375108  0.7033610157975  0.4499784677097 1.0
C      1  0.4511195906997  0.7031796302937  0.5563165597920 1.0
C      1  0.6356669936368  0.1650622808746  0.6256119877779 1.0
C      1  0.6411220621908  0.8359088918692  0.6515967648195 1.0
C      1  0.4989716883389  0.5676166566148  0.4969850659572 1.0
END
