TITL C-208023-555-16 -0.809 3375.00 -131.06676439 0 0 17 (Cs) n - 1
REM
REM Run started: at 2020.12.01 00:41:05 in /rds/project/t2_vol4/rds-t2-cs072/BORA/CARBON/AIRSS/Generating-Clusters/Str-Search/Higher-Symm/C10-100
REM VASP from code version vasp.5.4.4.18Apr17-6-g9f103f2a35 (build Oct 11 2019 16:45:47) gamma-only
REM
REM
REM
REM
REM ./C.cell (f39ce9773e2efe3fa5bbdf770a4156b8)
REM AIRSS Version 0.9.1 bugfix July 2018 build 013d7b7c2542+ Fri, 06 Jul 2018 19:26:36 +0100
REM compiler GCC version 4.8.5 20150623 (Red Hat 4.8.5-39)
REM options -cpp -mtune=generic -march=x86-64 -g -O0
REM seed 1741861153 425411647 -99543805 349900857 -730110102 -1075913535 -1318077039 -190920467 -400088178 1019481785 -1617464824 988918933
REM
REM C.POTCAR (d86ddea03c3ceb6dc662c8ad6801f873)
REM 
CELL 1.54180   15.00000   15.00000   15.00000   90.00000   90.00000   90.00000
LATT -1
SFAC C  
C      1  0.5983485730142  0.4830465951560  0.5815615427793 1.0
C      1  0.5603843994511  0.5757585518797  0.5809310991762 1.0
C      1  0.4070533596763  0.5313359336359  0.5804212299907 1.0
C      1  0.4241099812074  0.4327082165629  0.5810613454643 1.0
C      1  0.5139286215533  0.4486376282331  0.6311491020278 1.0
C      1  0.5926173223197  0.4800916551328  0.4163544033556 1.0
C      1  0.5597162425594  0.5778264895213  0.4153956487127 1.0
C      1  0.4074916758959  0.5337030394623  0.4149024362734 1.0
C      1  0.4318730595461  0.4336803658784  0.4158568742591 1.0
C      1  0.5117180552638  0.4592839488630  0.3672035798379 1.0
C      1  0.4229366079847  0.5769236500797  0.4985865711272 1.0
C      1  0.6016297842520  0.4349454601636  0.4994122905427 1.0
C      1  0.4474112325037  0.3903588172378  0.4989483295943 1.0
C      1  0.5228954021727  0.6058253892146  0.4989086927150 1.0
C      1  0.5378692268149  0.3659457901143  0.5251380713614 1.0
C      1  0.4868000562680  0.5421700518603  0.6344677522400 1.0
C      1  0.4848098995167  0.5523053170043  0.3589752305425 1.0
END
