TITL C-20217-6445-32 -6.237 3375.00 -1079.60065926 0 0 134 (C2) n - 1
REM
REM Run started: at 2021.01.03 14:20:44 in /gpfs/home/chem/mssmkc/CARBON/AIRSS/Generating-Clusters/Str-Search/Higher-Symm/C100-200
REM VASP from code version vasp.5.4.4.18Apr17-6-g9f103f2a35 (build Oct 11 2019 16:45:47) gamma-only
REM
REM
REM
REM
REM ./C.cell (533062f00bc710175b3da973d35f2034)
REM AIRSS Version 0.9.1 bugfix July 2018 build 013d7b7c2542+ Fri, 06 Jul 2018 19:26:36 +0100
REM compiler GCC version 6.3.0
REM options -cpp -iprefix /gpfs/warwick/csc/orac/software/Core/GCCcore/6.3.0/bin/../lib/gcc/x86_64-pc-linux-gnu/6.3.0/ -mtune=generic -march=x86-64 -g -O0
REM seed -1431616965 -291704558 -191003023 666142585 1410795606 1404838159 -1362250693 -895780324 -1536646566 -1931734922 1700494618 -1255087830
REM
REM C.POTCAR (d86ddea03c3ceb6dc662c8ad6801f873)
REM 
CELL 1.54180   15.00000   15.00000   15.00000   90.00000   90.00000   90.00000
LATT -1
SFAC C  
C      1  0.4200018805930  0.4136263578694  0.1350851890949 1.0
C      1  0.5799946769815  0.4136364535982  0.8649159831955 1.0
C      1  0.4211789550315  0.6010201707851  0.1417807666530 1.0
C      1  0.5788197565899  0.6010312607656  0.8582181026140 1.0
C      1  0.7208169518868  0.5839897060970  0.4062327910984 1.0
C      1  0.2791854788534  0.5839938614216  0.5937656334024 1.0
C      1  0.7774427924927  0.4121902768920  0.3903280996167 1.0
C      1  0.2225550143941  0.4121985140263  0.6096758221789 1.0
C      1  0.4999276490697  0.5539072323414  0.1759648916248 1.0
C      1  0.5000717648410  0.5539164757274  0.8240332598805 1.0
C      1  0.4963289181473  0.4633561637812  0.1723230250953 1.0
C      1  0.5036692346596  0.4633678199416  0.8276762299785 1.0
C      1  0.3347480447963  0.8052668452891  0.3957190767069 1.0
C      1  0.6652574941754  0.8052668675673  0.6042746029711 1.0
C      1  0.3459853572637  0.2046154431396  0.3851575951639 1.0
C      1  0.6540126174258  0.2046164197361  0.6148477104983 1.0
C      1  0.4846772574328  0.6947953125232  0.2367075839428 1.0
C      1  0.5153254007274  0.6948039784786  0.7632879290143 1.0
C      1  0.4916615376153  0.3200418984729  0.2320543058329 1.0
C      1  0.5083373613222  0.3200508713590  0.7679486656473 1.0
C      1  0.2546352477927  0.1954840785939  0.4027214823249 1.0
C      1  0.7453611202154  0.1954846864476  0.5972833711187 1.0
C      1  0.2446397641831  0.8056224945220  0.4208208462283 1.0
C      1  0.7553663195012  0.8056193657414  0.5791748752707 1.0
C      1  0.2794932565754  0.4141892718106  0.2153174221004 1.0
C      1  0.7205033100656  0.4141940318049  0.7846839650588 1.0
C      1  0.2775942681626  0.5963824708661  0.2150887727156 1.0
C      1  0.7224060965957  0.5963874743610  0.7849094782291 1.0
C      1  0.5499160870376  0.6002035930934  0.4879602568120 1.0
C      1  0.4500834931280  0.6002043656545  0.5120360814867 1.0
C      1  0.5599161509576  0.4095721298557  0.4885528748074 1.0
C      1  0.4400841133703  0.4095732258668  0.5114478330777 1.0
C      1  0.4127072544840  0.8525311872793  0.4514273327302 1.0
C      1  0.5872974863500  0.8525305609271  0.5485654550975 1.0
C      1  0.4224529472607  0.1601411002527  0.4426810416239 1.0
C      1  0.5775432099839  0.1601413471177  0.5573256427496 1.0
C      1  0.6296733585505  0.2803534254892  0.6686380237703 1.0
C      1  0.3703233243678  0.2803502117754  0.3313641753377 1.0
C      1  0.6409363031213  0.7339375505647  0.6644006164053 1.0
C      1  0.3590678573554  0.7339355122118  0.3355934482960 1.0
C      1  0.3487399405408  0.2083788684891  0.6806522159675 1.0
C      1  0.6512557721553  0.2083707513920  0.3193535510135 1.0
C      1  0.3468544637237  0.6541940710596  0.6134895568164 1.0
C      1  0.6531476282273  0.6541889148984  0.3865063701582 1.0
C      1  0.5343164716762  0.2872063729555  0.6856261633540 1.0
C      1  0.4656808371151  0.2872009328647  0.3143777022174 1.0
C      1  0.5472488978959  0.7276147587955  0.6844937952529 1.0
C      1  0.4527552347162  0.7276097008560  0.3155012524727 1.0
C      1  0.4620351974478  0.2519372512056  0.4679728171523 1.0
C      1  0.5379610842649  0.2519383642708  0.5320321802405 1.0
C      1  0.4566351565534  0.7614815741740  0.4747454693101 1.0
C      1  0.5433689209075  0.7614813015659  0.5252491533433 1.0
C      1  0.8242592480742  0.7598049243291  0.5789842107845 1.0
C      1  0.1757473360827  0.7598075848030  0.4210146421727 1.0
C      1  0.8126238866522  0.2437110849240  0.5936005634971 1.0
C      1  0.1873720935425  0.2437113382796  0.4064038661057 1.0
C      1  0.5581005028587  0.8291027254065  0.3751030337087 1.0
C      1  0.4419060060674  0.8291047615992  0.6248906969871 1.0
C      1  0.5781603358441  0.1850505266139  0.3767518106304 1.0
C      1  0.4218347951354  0.1850536365006  0.6232554064064 1.0
C      1  0.4201334368048  0.8830895053038  0.5466115032090 1.0
C      1  0.5798730681246  0.8830899392517  0.4533802619023 1.0
C      1  0.4153410941354  0.1276635600959  0.5380556629630 1.0
C      1  0.5846530314995  0.1276630815546  0.4619526282013 1.0
C      1  0.6842107040042  0.3752142144632  0.6924480374900 1.0
C      1  0.3157865820641  0.3752122081577  0.3075541150355 1.0
C      1  0.6884885015742  0.6367816610470  0.6919581086091 1.0
C      1  0.3115126681644  0.6367783066485  0.3080367779466 1.0
C      1  0.5100340533061  0.4516510767022  0.5694685824831 1.0
C      1  0.4899658397817  0.4516490221092  0.4305309360699 1.0
C      1  0.5129687081196  0.5532533275417  0.5696924472817 1.0
C      1  0.4870315290276  0.5532513935857  0.4303046922988 1.0
C      1  0.5226265269236  0.4542746548478  0.6710389111009 1.0
C      1  0.4773727869469  0.4542695404437  0.3289606913849 1.0
C      1  0.5256694460183  0.5579142199261  0.6701157406941 1.0
C      1  0.4743317108668  0.5579090259678  0.3298809312060 1.0
C      1  0.6647555876604  0.5548827126564  0.8503681146558 1.0
C      1  0.3352424158074  0.5548744347688  0.1496315438930 1.0
C      1  0.6648338103332  0.4578397536738  0.8519610988902 1.0
C      1  0.3351624571853  0.4578318942770  0.1480391158093 1.0
C      1  0.8320833803462  0.6673735987836  0.5914022252276 1.0
C      1  0.1679219715672  0.6673756095378  0.4085988225327 1.0
C      1  0.8331461757016  0.3331446226991  0.5999283426615 1.0
C      1  0.1668514389066  0.3331448815698  0.4000745139504 1.0
C      1  0.7909949681666  0.4567313413469  0.7368270521571 1.0
C      1  0.2090015764384  0.4567291816182  0.2631757921062 1.0
C      1  0.7922963355765  0.5518882488710  0.7372728458872 1.0
C      1  0.2077021460857  0.5518863581889  0.2627280189296 1.0
C      1  0.4779416309086  0.4100895983643  0.7507723106066 1.0
C      1  0.5220578758610  0.4100807372224  0.2492283307624 1.0
C      1  0.4639915060199  0.6060413230481  0.7421107711034 1.0
C      1  0.5360097518584  0.6060320422459  0.2578852718764 1.0
C      1  0.6249126329274  0.4590413803505  0.6790998454669 1.0
C      1  0.3750860323501  0.4590384480423  0.3208995889655 1.0
C      1  0.6257548612858  0.5539336433548  0.6795392337204 1.0
C      1  0.3742463816954  0.5539311129479  0.3204577691208 1.0
C      1  0.5792284102381  0.3217253397910  0.4691285388192 1.0
C      1  0.4207693316960  0.3217274067054  0.5308745678405 1.0
C      1  0.5807765663221  0.6870561291904  0.4501594353628 1.0
C      1  0.4192256800318  0.6870573721286  0.5498362124365 1.0
C      1  0.2186354504175  0.4000979328916  0.3466459334204 1.0
C      1  0.7813628768251  0.4000985856932  0.6533564058190 1.0
C      1  0.2191217635802  0.6084067529116  0.3461347052612 1.0
C      1  0.7808792961841  0.6084067738648  0.6538643826275 1.0
C      1  0.4274786015074  0.3232722385616  0.1601770826019 1.0
C      1  0.5725178340792  0.3232813162841  0.8398270321903 1.0
C      1  0.4260525858810  0.6914574678219  0.1632303109838 1.0
C      1  0.5739487833107  0.6914672860278  0.8367669335870 1.0
C      1  0.7694621922817  0.5472268466980  0.4761728564253 1.0
C      1  0.2305404840235  0.5472293826562  0.5238257033748 1.0
C      1  0.7929464952630  0.4518917741972  0.4738184133838 1.0
C      1  0.2070533034374  0.4518942844694  0.5261828371240 1.0
C      1  0.5115522198786  0.7379103880821  0.3928702257724 1.0
C      1  0.4884519146199  0.7379117486617  0.6071243608746 1.0
C      1  0.5246509027126  0.2766188689408  0.3928249262884 1.0
C      1  0.4753455386169  0.2766212362173  0.6071798062721 1.0
C      1  0.4970147569809  0.8948321205863  0.4092235951348 1.0
C      1  0.5029910739572  0.8948343673253  0.5907696019641 1.0
C      1  0.5114238981541  0.1186857688213  0.4081828750611 1.0
C      1  0.4885709620415  0.1186893784028  0.5918258433847 1.0
C      1  0.7384919377397  0.3566540024981  0.3258072953334 1.0
C      1  0.2615054599602  0.3566647433394  0.6741977241012 1.0
C      1  0.6944902281080  0.5370422927759  0.3250807225794 1.0
C      1  0.3055114412550  0.5370500699938  0.6749196091526 1.0
C      1  0.7982280827579  0.5932190899038  0.5560990400118 1.0
C      1  0.2017760090547  0.5932201344933  0.4438989111038 1.0
C      1  0.8123223193439  0.4095002951442  0.5566493425844 1.0
C      1  0.1876775871407  0.4095021075568  0.4433548066935 1.0
C      1  0.7011932561554  0.2743943640106  0.3113596636636 1.0
C      1  0.2988056564705  0.2744056167836  0.6886444806684 1.0
C      1  0.6268840636907  0.6079276062528  0.3050882888792 1.0
C      1  0.3731181364540  0.6079357166964  0.6949092690562 1.0
C      1  0.7282600972942  0.4516318066331  0.3180179267213 1.0
C      1  0.2717392556517  0.4516398667417  0.6819849801989 1.0
END
