TITL C-20921-2486-1 -4.935 3375.00 -775.00100479 0 0 96 (C1) n - 1
REM
REM Run started: at 2020.12.13 08:17:16 in /gpfs/home/chem/mssmkc/CARBON/AIRSS/Generating-Clusters/Str-Search/Higher-Symm
REM VASP from code version vasp.5.4.4.18Apr17-6-g9f103f2a35 (build Oct 11 2019 16:45:47) gamma-only
REM
REM
REM
REM
REM ./C.cell (e5ae0387ce4d49c7c0135a1433873289)
REM AIRSS Version 0.9.1 bugfix July 2018 build 013d7b7c2542+ Fri, 06 Jul 2018 19:26:36 +0100
REM compiler GCC version 6.3.0
REM options -cpp -iprefix /gpfs/warwick/csc/orac/software/Core/GCCcore/6.3.0/bin/../lib/gcc/x86_64-pc-linux-gnu/6.3.0/ -mtune=generic -march=x86-64 -g -O0
REM seed -709931042 -2104069697 -1524159906 -1738637187 1222888966 1000924417 -1041155382 425859871 -1590212220 479491223 1268896970 1655632070
REM
REM C.POTCAR (d86ddea03c3ceb6dc662c8ad6801f873)
REM 
CELL 1.54180   15.00000   15.00000   15.00000   90.00000   90.00000   90.00000
LATT -1
SFAC C  
C      1  0.8389223468334  0.8913746576747  0.3787054594604 1.0
C      1  0.7507923292940  0.3099500256820  0.4726922223836 1.0
C      1  0.0028086349974  0.7492117768933  0.5753511935760 1.0
C      1  0.3260741759768  0.1752170918044  0.6864584952352 1.0
C      1  0.7518041072071  0.7670643226458  0.5191695011163 1.0
C      1  0.9161067255748  0.6874014792405  0.3814240896289 1.0
C      1  0.8300440061262  0.4167511275426  0.3777574527174 1.0
C      1  0.7631941038864  0.6477826970295  0.7455698951457 1.0
C      1  0.2276655443563  0.3717317993355  0.0879120298269 1.0
C      1  0.9982854829135  0.3266863973219  0.0139654811329 1.0
C      1  0.2192228315542  0.6801239829698  0.0942013679203 1.0
C      1  0.2272281870212  0.0013584517364  0.2190230618007 1.0
C      1  0.2292070157915  0.6756352945451  0.0095678964567 1.0
C      1  0.8471760679586  0.0958037479787  0.0934136929322 1.0
C      1  0.7526262208672  0.4093472571548  0.3106435118528 1.0
C      1  0.5870008126910  0.2862401094889  0.4435988107427 1.0
C      1  0.3782366617742  0.3561575429271  0.3435477067506 1.0
C      1  0.1826006782932  0.4545817100952  0.2525138394422 1.0
C      1  0.2191721546017  0.5761490410887  0.4112052242085 1.0
C      1  0.4488861014260  0.5598323446347  0.4173987529117 1.0
C      1  0.6114663318269  0.6041510574690  0.4398206555428 1.0
C      1  0.2644151898658  0.4643997758137  0.2977430071331 1.0
C      1  0.2841327837128  0.5291933510997  0.3623315685220 1.0
C      1  0.3734469517915  0.5446332238569  0.3897850008037 1.0
C      1  0.5329595671831  0.5546903767991  0.4611830926935 1.0
C      1  0.6740183877115  0.3636754539165  0.3312064842318 1.0
C      1  0.6691147115793  0.3185458177975  0.4172992904545 1.0
C      1  0.3367513872245  0.3993793446482  0.2754598406067 1.0
C      1  0.2935024023429  0.0236049346716  0.1663413066473 1.0
C      1  0.5139473610292  0.3649222186487  0.9057986067591 1.0
C      1  0.8432922883484  0.6736079353041  0.7489546201370 1.0
C      1  0.0907203027764  0.6852945167989  0.8061302805123 1.0
C      1  0.7004093738401  0.2006120887427  0.9264735741822 1.0
C      1  0.8602196066604  0.2290229287193 -0.0211172422325 1.0
C      1  0.4988281215989  0.3579075077671  0.9933519221199 1.0
C      1  0.4250546908712  0.3135089846151  0.3985410908276 1.0
C      1  0.0115781818903  0.9352943688921  0.3367013276617 1.0
C      1  0.1356079860457  0.4303871538957  0.1892592222715 1.0
C      1  0.8457797644941  0.9383228963393  0.2975260142131 1.0
C      1  0.0855451490946  0.9573953148592  0.3045370130663 1.0
C      1  0.8251846099717  0.4598618488678  0.2937437415598 1.0
C      1  0.9242435104242  0.9193524420936  0.3480496761047 1.0
C      1  0.6869165193156  0.6055306446965  0.7374967676426 1.0
C      1  0.7781516131046  0.2300867741366  0.9312926008421 1.0
C      1  0.6190463779241  0.1676452904541  0.9374718164554 1.0
C      1  0.5276607516938  0.3746705669374  0.8252168154589 1.0
C      1  0.1592184101301  0.6783062809941  0.8561841290509 1.0
C      1  0.2079255408531  0.6736852707887  0.9265290571771 1.0
C      1  0.6219141595155  0.5543445437124  0.7278335598359 1.0
C      1  0.2069019976851  0.4028702026762  0.6621902895457 1.0
C      1  0.5583656793780  0.4933804693666  0.7030560474990 1.0
C      1  0.1210686600494  0.6198877077078  0.5495512419370 1.0
C      1  0.2446909834945  0.3282090704228  0.6730190210119 1.0
C      1  0.7497972300625  0.0884400244259  0.6050433633280 1.0
C      1  0.7487731181073  0.0032843666860  0.6086641650315 1.0
C      1  0.1400493144505  0.5516388275360  0.6094245044002 1.0
C      1  0.1297490266207  0.6889763438165  0.2378853797251 1.0
C      1  0.1347846952982  0.3888490706833  0.1027299974812 1.0
C      1  0.4795175330081  0.0993694462024  0.0091328009502 1.0
C      1  0.5491126724459  0.1325392941522  0.9670564685264 1.0
C      1  0.1840405656086  0.6861093991362  0.1725526558275 1.0
C      1  0.3039666977851  0.3720439913725  0.1184118530067 1.0
C      1  0.6003122637806  0.3670776925547  0.2728471155792 1.0
C      1  0.4613246176570  0.3661936050681  0.1647030468029 1.0
C      1  0.1600500497420  0.9807372091415  0.2647776359703 1.0
C      1  0.3697736576041  0.3780565172287  0.1853590525417 1.0
C      1  0.9931440042568  0.6878436983285  0.3401912182691 1.0
C      1  0.0636850508375  0.6891897564181  0.2938343380145 1.0
C      1  0.5046236768636  0.2939473328385  0.4302572249646 1.0
C      1  0.8363686163208  0.0356214706788  0.1574595302424 1.0
C      1  0.3539141026719  0.0456997866542  0.1125002772596 1.0
C      1  0.8615095404087  0.1566307479239  0.0395011686029 1.0
C      1  0.0111356666997  0.6902295301356  0.7741998931415 1.0
C      1  0.9294910513714  0.2871934482289 -0.0178477524922 1.0
C      1  0.4175873194818  0.0713206299600  0.0581663499718 1.0
C      1  0.0650719149647  0.3632464567500  0.0520152684768 1.0
C      1  0.9283496760529  0.6890282646349  0.7559195741251 1.0
C      1  0.7479307508583  0.9184593024314  0.5965648193484 1.0
C      1  0.7587521236667  0.6976090866121  0.4596568619007 1.0
C      1  0.8193789004516  0.3686685747034  0.4474749154242 1.0
C      1  0.7509911857151  0.1704530169767  0.5761845719551 1.0
C      1  0.2845565175450  0.2505028632289  0.6820434495115 1.0
C      1  0.1723920514518  0.4794683742765  0.6375942026610 1.0
C      1  0.0612854415060  0.6890730484072  0.5628147086730 1.0
C      1  0.7496048664361  0.8387710244468  0.5633323932221 1.0
C      1  0.7522812030142  0.2440708352579  0.5361102919048 1.0
C      1  0.5395291575256  0.5014290311624  0.5328686112643 1.0
C      1  0.1711046354276  0.6070458326067  0.4698244374021 1.0
C      1  0.6838211303200  0.6418924749238  0.4438384301040 1.0
C      1  0.8402995756095  0.6895009075150  0.4162561984166 1.0
C      1  0.8288464882302  0.9832929430362  0.2213231439658 1.0
C      1  0.5329363928889  0.3696605105206  0.2260604328523 1.0
C      1  0.4836528861006  0.3574215652124  0.0741284401534 1.0
C      1  0.5632181104323  0.3738547866554  0.6536771985880 1.0
C      1  0.5388998131897  0.4044319181585  0.7393686596722 1.0
C      1  0.5475018649584  0.4622099720145  0.6094697777171 1.0
END
