TITL C-204172-6179-3 -8.304 3375.00 -1460.82478024 0 0 180 (C1) n - 1
REM
REM Run started: at 2020.12.23 08:11:21 in /rds/project/t2_vol4/rds-t2-cs072/BORA/CARBON/AIRSS/Generating-Clusters/Str-Search/Higher-Symm/Only-C180
REM VASP from code version vasp.5.4.4.18Apr17-6-g9f103f2a35 (build Oct 11 2019 16:45:47) gamma-only
REM
REM
REM
REM
REM ./C.cell (f712cfaf3acf65fd2d5dcba0fd1fd40b)
REM AIRSS Version 0.9.1 bugfix July 2018 build 013d7b7c2542+ Fri, 06 Jul 2018 19:26:36 +0100
REM compiler GCC version 4.8.5 20150623 (Red Hat 4.8.5-39)
REM options -cpp -mtune=generic -march=x86-64 -g -O0
REM seed 1661865754 45659776 -685407619 519705913 266893465 -1838889105 -209796413 -1888796298 797170086 -346354059 2045307919 782624787
REM
REM C.POTCAR (d86ddea03c3ceb6dc662c8ad6801f873)
REM 
CELL 1.54180   15.00000   15.00000   15.00000   90.00000   90.00000   90.00000
LATT -1
SFAC C  
C      1  0.7131703928246  0.6936632406573  0.7881654682311 1.0
C      1  0.3609856176851  0.2990530449325  0.2428661316586 1.0
C      1  0.7718796034062  0.7189470452012  0.3947852388948 1.0
C      1  0.7565215759096  0.7659983537332  0.6372191968888 1.0
C      1  0.3071806126766  0.3073019890535  0.3216450232639 1.0
C      1  0.4412590009248  0.8330317390014  0.4825853361922 1.0
C      1  0.3940469389697  0.7721862736853  0.4235735250783 1.0
C      1  0.2474635530623  0.5656146174650  0.2570510448080 1.0
C      1  0.6838859280578  0.1889289229187  0.3615239421957 1.0
C      1  0.1860146642932  0.5512997355502  0.6798040313460 1.0
C      1  0.6483736448617  0.4869215335450  0.4477309632097 1.0
C      1  0.5778148161802  0.6562315728510  0.4758854497837 1.0
C      1  0.5461491142372  0.6044371468761  0.8505367490266 1.0
C      1  0.5430451676164  0.7113052574441  0.5585941469028 1.0
C      1  0.4203720398492  0.1526737697389  0.6401935847558 1.0
C      1  0.7914425547739  0.4867365462466  0.5831192348855 1.0
C      1  0.3589835434475  0.6851918934575  0.4545738277533 1.0
C      1  0.7755522452174  0.7005263021407  0.7121872797186 1.0
C      1  0.7671523596640  0.6241580163697  0.2634040308051 1.0
C      1  0.2648814306602  0.1725826197721  0.5953235092602 1.0
C      1  0.1588448376659  0.3882497658157  0.3647189820050 1.0
C      1  0.3284412622123  0.7495789788663  0.2955705017611 1.0
C      1  0.5376362052772  0.1969207821185  0.4269514353094 1.0
C      1  0.8077631296901  0.5833121003776  0.5903492530419 1.0
C      1  0.5652010593947  0.2941266485852  0.8085293145055 1.0
C      1  0.7672821393567  0.7128064631685  0.2992018913209 1.0
C      1  0.3419718330405  0.5014863363130  0.6025918057039 1.0
C      1  0.6330677519554  0.4866631305696  0.1595894378639 1.0
C      1  0.4884534850236  0.8341090395198  0.3261884653966 1.0
C      1  0.6218273684544  0.1874254740682  0.2863350096833 1.0
C      1  0.3012873108239  0.7718783242334  0.4594652686803 1.0
C      1  0.5466563891013  0.1302382329131  0.2939577582054 1.0
C      1  0.7032756796452  0.5924570780938  0.8121657569595 1.0
C      1  0.5255819819568  0.4236642479203  0.2615596967986 1.0
C      1  0.3890140528452  0.4342401149437  0.3929364089325 1.0
C      1  0.6328935784567  0.7403653697470  0.8022362107419 1.0
C      1  0.2972553290249  0.5513513997109  0.4686626279688 1.0
C      1  0.4738049470410  0.6999732421014  0.2224236197026 1.0
C      1  0.7661072510217  0.5428752917833  0.7479791778797 1.0
C      1  0.6855630125884  0.3849231608466  0.4458400031528 1.0
C      1  0.8560318460514  0.4988536369925  0.3602699370307 1.0
C      1  0.3464779498564  0.8457564510075  0.6208765343818 1.0
C      1  0.3486889752219  0.4740102877566  0.0607296753730 1.0
C      1  0.3464150709230  0.4589994360681  0.2183471393372 1.0
C      1  0.3851515552677  0.6762791093226  0.2548076993639 1.0
C      1  0.4259577299272  0.2051847057097  0.7249985014979 1.0
C      1  0.2795565670955  0.5136883799710  0.0880523323202 1.0
C      1  0.6003012528838  0.4972256540906  0.5376057515075 1.0
C      1  0.3425695685303  0.2460160462334  0.7387286786097 1.0
C      1  0.4589782946484  0.4042316114220  0.7998414816346 1.0
C      1  0.3770194339639  0.1018114637683  0.4909653500325 1.0
C      1  0.5214335359683  0.8049727764476  0.5341968643297 1.0
C      1  0.3346170464297  0.4064493443967  0.5550418792938 1.0
C      1  0.2106584304968  0.6478231726290  0.3845784856011 1.0
C      1  0.5298491032871  0.3667367865755  0.5962877343928 1.0
C      1  0.5693826692926  0.2044391643754  0.6574172968179 1.0
C      1  0.2401639989623  0.6029013661313  0.5340475390934 1.0
C      1  0.5717616297622  0.2958379159037  0.5417580027012 1.0
C      1  0.8491810194909  0.4511794337652  0.5107956403133 1.0
C      1  0.6001746437097  0.2728132838915  0.2456665472823 1.0
C      1  0.7781972552581  0.3458884694411  0.3949667439779 1.0
C      1  0.2808617902561  0.8019902222284  0.6735785129783 1.0
C      1  0.2690006292734  0.2310440734417  0.6727897976949 1.0
C      1  0.6153971348899  0.5768462532654  0.1860653853413 1.0
C      1  0.4993811228098  0.1733999232130  0.5978485094949 1.0
C      1  0.6362280891317  0.3619735169607  0.8236897745682 1.0
C      1  0.3884340496899  0.4957567058432  0.3041391626386 1.0
C      1  0.2765881423249  0.6565700487467  0.7557889032768 1.0
C      1  0.5238784244078  0.7834152639206  0.2532761411225 1.0
C      1  0.6865316378302  0.7714504380251  0.3973766666032 1.0
C      1  0.7375842710621  0.2716841056743  0.5804275171161 1.0
C      1  0.1764628516280  0.4114416988372  0.5216470050628 1.0
C      1  0.6156638341457  0.6201391672008  0.3354888494647 1.0
C      1  0.1725695526848  0.2572640000227  0.4781074430902 1.0
C      1  0.4190666278821  0.0944297988992  0.4189911068588 1.0
C      1  0.7199416130457  0.3435928346657  0.1616620809732 1.0
C      1  0.3865662835046  0.5362474113886  0.5166591976288 1.0
C      1  0.5566688230133  0.6965074757762  0.8356079446882 1.0
C      1  0.4903739916270  0.1302197504628  0.3657861514793 1.0
C      1  0.5319595896248  0.4707175318753  0.7780672556616 1.0
C      1  0.7543453675406  0.2434367645408  0.4037315111825 1.0
C      1  0.4755042532252  0.3841197472228  0.1664660327998 1.0
C      1  0.3396846183484  0.5926475584558  0.2987871946940 1.0
C      1  0.5930715442241  0.4500034879468  0.8580365676112 1.0
C      1  0.2512409629795  0.3226668201686  0.6663135189981 1.0
C      1  0.2556031099073  0.7414742164717  0.3622650024392 1.0
C      1  0.3568945013881  0.3321516231264  0.4053191853828 1.0
C      1  0.5709307694850  0.4091932301258  0.1695037395804 1.0
C      1  0.1513605810955  0.3433005756601  0.4479525486813 1.0
C      1  0.6071098782655  0.6815501903614  0.6270950390921 1.0
C      1  0.1121764053549  0.4857185203228  0.5477369200925 1.0
C      1  0.6107151241334  0.4422240563610  0.6178751885807 1.0
C      1  0.4991767116260  0.9260552906356  0.6364990519987 1.0
C      1  0.2488364204142  0.7424943737596  0.7213740145631 1.0
C      1  0.4997189581810  0.4121374488899  0.8986716586690 1.0
C      1  0.3639895993361  0.6453934853947  0.7289852864401 1.0
C      1  0.3995854173874  0.8004700590892  0.3356067537623 1.0
C      1  0.2596604939917  0.4996636223904  0.1867864969424 1.0
C      1  0.4551988579023  0.6754461048442  0.5890963247509 1.0
C      1  0.4397590714725  0.3018809954066  0.4653494064786 1.0
C      1  0.2453521016399  0.4018469517740  0.2138845392309 1.0
C      1  0.6785937465304  0.8372014517808  0.4761908606655 1.0
C      1  0.4106301825671  0.5632139854198  0.7454727185903 1.0
C      1  0.6285332293781  0.1601957301325  0.4365155595743 1.0
C      1  0.2595378715055  0.4049287380606  0.8122695944379 1.0
C      1  0.8134688820484  0.4158454610581  0.3284322456405 1.0
C      1  0.3227789044416  0.3572378704248  0.1769715335163 1.0
C      1  0.4528103882064  0.3145990866573  0.2342941675157 1.0
C      1  0.7225488443583  0.3773121062021  0.7922721016749 1.0
C      1  0.1139301502705  0.5418981608285  0.4671097930093 1.0
C      1  0.6292476677002  0.3272011826328  0.1776555314390 1.0
C      1  0.4493970986990  0.4610560700448  0.4703444205701 1.0
C      1  0.5522089667261  0.4539806641242  0.4634712520019 1.0
C      1  0.5394635871808  0.7654658457274  0.7761167317144 1.0
C      1  0.1188945312507  0.5171773001775  0.6319725162014 1.0
C      1  0.7175158734432  0.8004588452527  0.5626340716862 1.0
C      1  0.5880994956693  0.3523735863045  0.4545273980964 1.0
C      1  0.2454162447491  0.3720268127714  0.5859670359839 1.0
C      1  0.6721947417133  0.5989355866405  0.2610879199281 1.0
C      1  0.8096894145379  0.6145247476849  0.6877481325698 1.0
C      1  0.7900722691543  0.2854564309563  0.6631306119879 1.0
C      1  0.1654930820215  0.6224123334462  0.4738528219829 1.0
C      1  0.8575453007446  0.6021580055375  0.4975147244914 1.0
C      1  0.6267856763005  0.5489686277693  0.8644698792325 1.0
C      1  0.7949411713792  0.6647141998037  0.4665755442420 1.0
C      1  0.4996686941300  0.2259302294928  0.5132087134964 1.0
C      1  0.2391330859593  0.4686291684206  0.4514161152108 1.0
C      1  0.2441973553483  0.4888215041128  0.8071366381384 1.0
C      1  0.7343262556159  0.3612389969821  0.5361815786857 1.0
C      1  0.3874193617889  0.4096605283567  0.7386793775229 1.0
C      1  0.3479820664748  0.8441198559739  0.5278133792044 1.0
C      1  0.5266197862265  0.3221147177540  0.2984267070980 1.0
C      1  0.6471708984098  0.5772417901770  0.5026289102078 1.0
C      1  0.5138389690232  0.8689768793276  0.4168248087921 1.0
C      1  0.6690348972692  0.5538557519992  0.7199974505788 1.0
C      1  0.5261079351121  0.5778711671103  0.3520444569914 1.0
C      1  0.7291122943908  0.6336130097514  0.5372958519983 1.0
C      1  0.1869793253943  0.5690897669799  0.3249602367118 1.0
C      1  0.8135285422431  0.5461253674808  0.2812757867220 1.0
C      1  0.6275012217867  0.6903698293036  0.3995005535213 1.0
C      1  0.7171592397520  0.4329711622478  0.5981235360369 1.0
C      1  0.6898867849855  0.7699184662267  0.2880567421789 1.0
C      1  0.3098679340461  0.6182828033408  0.3955979599647 1.0
C      1  0.6098580200149  0.7504684980944  0.2343030504051 1.0
C      1  0.3866451463699  0.4896387992038  0.6900262190870 1.0
C      1  0.5252273021847  0.2985939573468  0.3966240765063 1.0
C      1  0.3892445613807  0.4201027802380  0.1334352505918 1.0
C      1  0.4831712616777  0.5538934502518  0.8024866761256 1.0
C      1  0.5636583560400  0.6624081243434  0.1940329671141 1.0
C      1  0.7815435827863  0.3520936019804  0.7207504963997 1.0
C      1  0.5301861069918  0.2323095945147  0.7380681802589 1.0
C      1  0.6717581932010  0.1661706096807  0.5166574693978 1.0
C      1  0.7193523510135  0.4385911442124  0.1799729641042 1.0
C      1  0.5897436023720  0.5013071150032  0.6973769203450 1.0
C      1  0.5933717613725  0.8797999711613  0.4819723310293 1.0
C      1  0.6923486322076  0.7074052779796  0.5888763558064 1.0
C      1  0.8766755759443  0.5213021087114  0.4496221648853 1.0
C      1  0.8180391604105  0.3710351754068  0.4845564328793 1.0
C      1  0.7531521737197  0.2136624560974  0.4975960130433 1.0
C      1  0.4238863998032  0.6269521401994  0.5069632108783 1.0
C      1  0.6052784104064  0.6009972591978  0.6701466677459 1.0
C      1  0.2043745425268  0.1998570512206  0.5291743137517 1.0
C      1  0.2262790818371  0.3589529834220  0.3000051943533 1.0
C      1  0.4981601954093  0.6171987955395  0.4352616017711 1.0
C      1  0.7804681064375  0.4614024930397  0.2490988183353 1.0
C      1  0.2570474265600  0.5612521964889  0.6111286473223 1.0
C      1  0.4674358312683  0.7829549620289  0.7140040536998 1.0
C      1  0.4401221485975  0.3802011095298  0.5358157949487 1.0
C      1  0.4881348738912  0.5079676675520  0.2952816586802 1.0
C      1  0.5506665276085  0.8909730332899  0.5714480773575 1.0
C      1  0.4377074458353  0.8610151563309  0.6672689152574 1.0
C      1  0.4913636057318  0.3290889600168  0.8587810148403 1.0
C      1  0.1577077812831  0.4916410258419  0.3851042188268 1.0
C      1  0.6402756715869  0.2319983452654  0.5893298166048 1.0
C      1  0.3121616332161  0.3465553017861  0.7471586294669 1.0
C      1  0.7828590857069  0.4422509013506  0.7664169682904 1.0
C      1  0.3138299692072  0.4068952172309  0.4525421501408 1.0
C      1  0.2229400371059  0.5706217000233  0.7694497504708 1.0
C      1  0.4238439155470  0.7004426868408  0.6733044010567 1.0
C      1  0.3484051615631  0.1307255834711  0.5778593155312 1.0
END
