TITL C-208172-2921-1 -7.617 3375.00 -1327.43685550 0 0 163 (C1) n - 1
REM
REM Run started: at 2020.12.03 08:09:46 in /rds/project/t2_vol4/rds-t2-cs072/BORA/CARBON/AIRSS/Generating-Clusters/Str-Search/Higher-Symm/C100-200
REM VASP from code version vasp.5.4.4.18Apr17-6-g9f103f2a35 (build Oct 11 2019 16:45:47) gamma-only
REM
REM
REM
REM
REM ./C.cell (533062f00bc710175b3da973d35f2034)
REM AIRSS Version 0.9.1 bugfix July 2018 build 013d7b7c2542+ Fri, 06 Jul 2018 19:26:36 +0100
REM compiler GCC version 4.8.5 20150623 (Red Hat 4.8.5-39)
REM options -cpp -mtune=generic -march=x86-64 -g -O0
REM seed -2065986189 1232217445 -1232688309 2049162093 -1018691508 1131935963 -885374993 1659039945 -1147307996 -1873366484 -1669508785 -2034811918
REM
REM C.POTCAR (d86ddea03c3ceb6dc662c8ad6801f873)
REM 
CELL 1.54180   15.00000   15.00000   15.00000   90.00000   90.00000   90.00000
LATT -1
SFAC C  
C      1  0.2664335308649  0.6923333726846  0.5736590641718 1.0
C      1  0.4187681048184  0.6669771456076  0.8442692597962 1.0
C      1  0.5626722280042  0.1651763926626  0.5933213214615 1.0
C      1  0.4980111629900  0.6466904114638  0.5535305994762 1.0
C      1  0.1287358239909  0.4722560606778  0.5684650648716 1.0
C      1  0.6715566872810  0.3401111678379  0.3894532805221 1.0
C      1  0.5571840354866  0.5757741607814  0.5027352425234 1.0
C      1  0.1850179930960  0.6408268698602  0.4725169116906 1.0
C      1  0.4757297058427  0.1622174232216  0.4665702070684 1.0
C      1  0.2519609018910  0.5969311599362  0.5333246153629 1.0
C      1  0.4622759048527  0.5151726683120  0.7026574550521 1.0
C      1  0.5872810835818  0.2748855613929  0.1985340437014 1.0
C      1  0.6150576079087  0.8232371328932  0.3866607549822 1.0
C      1  0.1610421767631  0.3717508675961  0.5548548649828 1.0
C      1  0.1654154805874  0.3044140487431  0.6268663355240 1.0
C      1  0.5855319993736  0.1859949193217  0.6835945220595 1.0
C      1  0.8218922610150  0.5871111286440  0.6893245920300 1.0
C      1  0.7084669626083  0.3291129826513  0.4825896675573 1.0
C      1  0.3908193996086  0.3792712506661  0.6112934333714 1.0
C      1  0.7164726843461  0.5506100800109  0.7726460589494 1.0
C      1  0.8116502412820  0.6762660926842  0.4428242972188 1.0
C      1  0.1148392615751  0.3053976811330  0.4938440205284 1.0
C      1  0.8310230282619  0.6643793473754  0.5414579616579 1.0
C      1  0.8612335249246  0.5969627148177  0.6039770674225 1.0
C      1  0.2259180894523  0.5095169520772  0.5700580705735 1.0
C      1  0.7028386509570  0.7782949985716  0.3935956861179 1.0
C      1  0.3495730028615  0.4041365181923  0.5208049954356 1.0
C      1  0.5691502540540  0.4606932019423  0.8113095694590 1.0
C      1  0.2595737765458  0.7807586797385  0.4379601596329 1.0
C      1  0.6080310738642  0.5732048195474  0.6389692023847 1.0
C      1  0.8779701405602  0.4262899936591  0.6172789739622 1.0
C      1  0.5701985367045  0.1730165465422  0.4426596422981 1.0
C      1  0.4249904384661  0.5447936095176  0.2222499538772 1.0
C      1  0.5290006393111  0.5961735099706  0.3225544947098 1.0
C      1  0.5391675552254  0.3953103392996  0.6708935991381 1.0
C      1  0.3984612257399  0.1885382318086  0.6319945633183 1.0
C      1  0.3842398252954  0.3104385244301  0.4944225935955 1.0
C      1  0.4435415059886  0.9290085483215  0.5495917678226 1.0
C      1  0.3569126925801  0.5828171471130  0.5038123726011 1.0
C      1  0.2491009807769  0.4226786078028  0.5172956738169 1.0
C      1  0.5427259749233  0.4188301986603  0.2716277886714 1.0
C      1  0.3440131928787  0.6342150029613  0.4209009242231 1.0
C      1  0.7082492053845  0.5736144234293  0.1422858165213 1.0
C      1  0.5794184350723  0.8326392840769  0.2791598256935 1.0
C      1  0.1396653142158  0.5818727946359  0.4126887453335 1.0
C      1  0.1711059445154  0.2633628177845  0.4473780064991 1.0
C      1  0.4693428054520  0.1607757802719  0.5658073591576 1.0
C      1  0.5861126089391  0.3664618080333  0.7684197249743 1.0
C      1  0.6769746279069  0.4155732870295  0.1703450616374 1.0
C      1  0.7537047748607  0.6352208377072  0.7390008501669 1.0
C      1  0.4525260954061  0.1907643554775  0.3741466384924 1.0
C      1  0.5340864831619  0.3433472120334  0.5859497046088 1.0
C      1  0.5599068094242  0.6624633399791  0.6322852023506 1.0
C      1  0.5175639954658  0.2101315702117  0.7425509216105 1.0
C      1  0.4682173958935  0.7510494344044  0.3611395938172 1.0
C      1  0.3856300354328  0.7794152755454  0.3835185498114 1.0
C      1  0.4759501714406  0.4760860019498  0.7994173423058 1.0
C      1  0.2387684317501  0.5939806625426  0.2617932051149 1.0
C      1  0.7960096059954  0.4076522628875  0.2815687244355 1.0
C      1  0.7210634638779  0.2676772468402  0.6295042514668 1.0
C      1  0.7715071146170  0.2598742690295  0.2942306799013 1.0
C      1  0.4840458740974  0.8001515464998  0.6674984619391 1.0
C      1  0.3051994911167  0.2839706509461  0.3432019666700 1.0
C      1  0.5791753502662  0.5887838985320  0.4086211383134 1.0
C      1  0.7806537646936  0.4998545063716  0.4666273135861 1.0
C      1  0.5144681712371  0.4081557538344  0.3634141615399 1.0
C      1  0.5159113890933  0.9321203621424  0.5932273633000 1.0
C      1  0.3969805431434  0.4508557920133  0.2020861368980 1.0
C      1  0.3469128905339  0.6704134338126  0.8904990326250 1.0
C      1  0.2362273211299  0.3912204379530  0.7749634399929 1.0
C      1  0.4270042664005  0.2159296212741  0.7211615590502 1.0
C      1  0.1720047233536  0.4822116862746  0.2876971310111 1.0
C      1  0.6722675427892  0.4095906351276  0.5272723061108 1.0
C      1  0.3065106197057  0.4287618112606  0.2262190946782 1.0
C      1  0.4017829440748  0.6236616577639  0.5865071541049 1.0
C      1  0.4906820332142  0.2985068784793  0.1919253574355 1.0
C      1  0.5554623351146  0.8627514896358  0.6404071654305 1.0
C      1  0.2263441866866  0.5221088441126  0.6656057398301 1.0
C      1  0.6623748809708  0.7031158922452  0.2488961557021 1.0
C      1  0.7968181163881  0.5605757272028  0.3107200325963 1.0
C      1  0.5203494119170  0.2926904163786  0.7967507824682 1.0
C      1  0.4124923170059  0.4843529394963  0.4849298113412 1.0
C      1  0.3515869991248  0.7105185451902  0.6029975938066 1.0
C      1  0.7961477687891  0.6533682646177  0.3480820217100 1.0
C      1  0.4018353292626  0.7944489977012  0.6150661615197 1.0
C      1  0.4742471436967  0.3962043927576  0.2053148076363 1.0
C      1  0.3135044370265  0.4442252450036  0.7701301666815 1.0
C      1  0.3411541726682  0.8250118159657  0.4572904304403 1.0
C      1  0.4069767300353  0.6433844111218  0.2271138901631 1.0
C      1  0.6005331356250  0.7375308988256  0.5722857709049 1.0
C      1  0.6347316769406  0.4494650920870  0.2602568873749 1.0
C      1  0.6237669024080  0.1867264838040  0.5187645427617 1.0
C      1  0.8281766329512  0.3237282194774  0.2805971767356 1.0
C      1  0.5860833542290  0.6309731675459  0.8075245076449 1.0
C      1  0.7086605049571  0.7153923937320  0.7233206226842 1.0
C      1  0.4243214453701  0.2610859688607  0.2366591298942 1.0
C      1  0.6658119896169  0.6146297042352  0.2081233407629 1.0
C      1  0.2416411745190  0.5006592140742  0.2250023333909 1.0
C      1  0.3886624979304  0.2387573659252  0.3186793642414 1.0
C      1  0.7480470570885  0.3459121916803  0.6867618711296 1.0
C      1  0.3625014888729  0.5928372175567  0.3445806692904 1.0
C      1  0.2454017592980  0.2547132560736  0.6512936000347 1.0
C      1  0.6259834500222  0.5408532021372  0.8051325739237 1.0
C      1  0.4401624837138  0.4134155199559  0.6873716511090 1.0
C      1  0.3084730909718  0.5253075709004  0.7126189864940 1.0
C      1  0.5411541593307  0.4978620298065  0.6431697268534 1.0
C      1  0.7100365056270  0.4206956201595  0.3346178103839 1.0
C      1  0.1455879440370  0.4156862811456  0.7386450097910 1.0
C      1  0.6057329347291  0.2247982541515  0.2829284191024 1.0
C      1  0.7399739276278  0.5098495819016  0.3792573184994 1.0
C      1  0.7042336546638  0.4926745086626  0.5291133558130 1.0
C      1  0.6720885577392  0.3214830331021  0.7425467735221 1.0
C      1  0.4281875066248  0.3054068823237  0.7912888125439 1.0
C      1  0.7213174621872  0.7692574981319  0.6416590040775 1.0
C      1  0.8023260866387  0.4957837241808  0.2381416018170 1.0
C      1  0.4413609775854  0.5398242868456  0.3240083190031 1.0
C      1  0.7693314526519  0.7387047057078  0.5632403381613 1.0
C      1  0.3844764785386  0.8581911683343  0.5418387970597 1.0
C      1  0.6878948237137  0.2567690571048  0.3246359329546 1.0
C      1  0.2764071362721  0.3648598394951  0.3005163346724 1.0
C      1  0.5393076966468  0.7717950427480  0.4242041651250 1.0
C      1  0.2596108086189  0.2489025857433  0.4241088413014 1.0
C      1  0.3082439116451  0.7186431848605  0.3690743048129 1.0
C      1  0.6641568972439  0.2348852178062  0.6988725928173 1.0
C      1  0.3156282725709  0.6541829134946  0.2781036631227 1.0
C      1  0.1604652838498  0.5733190059225  0.3199185294837 1.0
C      1  0.7454240281293  0.4904131398307  0.1576532337339 1.0
C      1  0.7271277851019  0.7196125754414  0.3177128092492 1.0
C      1  0.5267052708815  0.7182602347106  0.7138386791662 1.0
C      1  0.4442804201165  0.4663545665721  0.3890412606321 1.0
C      1  0.4946719297030  0.6653672461876  0.7955973573561 1.0
C      1  0.8906306521450  0.5077528773424  0.5758510508084 1.0
C      1  0.3867571080341  0.5639277874564  0.6717800802257 1.0
C      1  0.7541606309819  0.7521629875053  0.4662104009661 1.0
C      1  0.6490264250263  0.3313800208346  0.1588397527813 1.0
C      1  0.5485287442770  0.1912671945666  0.3480955948640 1.0
C      1  0.1923731308902  0.4387238152429  0.4332988686538 1.0
C      1  0.6550297976233  0.5598846747638  0.3701815657722 1.0
C      1  0.3121111332108  0.2148353912615  0.5967874971613 1.0
C      1  0.2105560496188  0.7276523176552  0.5008174765982 1.0
C      1  0.5345928335936  0.7321888557745  0.5067829575931 1.0
C      1  0.5751324587164  0.7445026236354  0.2493633120422 1.0
C      1  0.8057691999735  0.4204021773877  0.6814289572004 1.0
C      1  0.6203887683586  0.7061610943245  0.7604230933941 1.0
C      1  0.4046635200888  0.4016987060231  0.7814282883635 1.0
C      1  0.2032971558935  0.4139895349194  0.3439603374704 1.0
C      1  0.6198634394719  0.5537217461400  0.2773414622225 1.0
C      1  0.5762729968026  0.3683489320305  0.4192158535747 1.0
C      1  0.1396467631277  0.4860428129691  0.6757866163091 1.0
C      1  0.5143583891033  0.4873140868373  0.5341745950777 1.0
C      1  0.5997882956663  0.9021721768459  0.3268685376870 1.0
C      1  0.7895520925184  0.5029918787866  0.7252100971661 1.0
C      1  0.3160551978013  0.2430834502869  0.5003061468067 1.0
C      1  0.8660841982106  0.4865792432065  0.4879251195192 1.0
C      1  0.6474597662932  0.5673281185690  0.5529546369543 1.0
C      1  0.1293796807680  0.3222108787166  0.7135899167842 1.0
C      1  0.6386793502306  0.8137297176330  0.6141751396634 1.0
C      1  0.5725861726812  0.3989950656090  0.5145105389088 1.0
C      1  0.1203559986150  0.4970523713172  0.4622250722020 1.0
C      1  0.2229116898836  0.2995723276298  0.7368987891269 1.0
C      1  0.4464932133973  0.3169930837661  0.5683168568288 1.0
C      1  0.4920226419494  0.6876583072515  0.2826208030977 1.0
C      1  0.6973780285716  0.2526217037538  0.5375571106446 1.0
END
