TITL C-209297-6453-2 -4.751 3375.00 -798.13904183 0 0 100 (C4h) n - 1
REM
REM Run started: at 2021.01.02 16:02:54 in /rds/project/t2_vol4/rds-t2-cs072/BORA/CARBON/AIRSS/Generating-Clusters/Str-Search/Higher-Symm/C100-200
REM VASP from code version vasp.5.4.4.18Apr17-6-g9f103f2a35 (build Oct 11 2019 16:45:47) gamma-only
REM
REM
REM
REM
REM ./C.cell (533062f00bc710175b3da973d35f2034)
REM AIRSS Version 0.9.1 bugfix July 2018 build 013d7b7c2542+ Fri, 06 Jul 2018 19:26:36 +0100
REM compiler GCC version 4.8.5 20150623 (Red Hat 4.8.5-39)
REM options -cpp -mtune=generic -march=x86-64 -g -O0
REM seed 827694034 -270666643 -855351235 -843192881 1526392513 1999084740 -439514082 996876222 -73578170 -504760908 1060219399 910393772
REM
REM C.POTCAR (d86ddea03c3ceb6dc662c8ad6801f873)
REM 
CELL 1.54180   15.00000   15.00000   15.00000   90.00000   90.00000   90.00000
LATT -1
SFAC C  
C      1  0.1673933043028  0.5034366160239  0.3860469839925 1.0
C      1  0.5034360661336  0.8326058811188  0.3860467571716 1.0
C      1  0.8326065112278  0.4965627316921  0.3860467019129 1.0
C      1  0.4965632819900  0.1673939505024  0.3860471700149 1.0
C      1  0.1674064286592  0.5037434529571  0.6112070149491 1.0
C      1  0.5037431573759  0.8325931564340  0.6112071524285 1.0
C      1  0.8325935765647  0.4962561308695  0.6112068667597 1.0
C      1  0.4962569304960  0.1674076799215  0.6112083028502 1.0
C      1  0.6126424274579  0.6509217083671  0.3072604728130 1.0
C      1  0.6509217344821  0.3873572655829  0.3072602684529 1.0
C      1  0.3873572547470  0.3490782707485  0.3072606911409 1.0
C      1  0.3490777896323  0.6126423360758  0.3072605313055 1.0
C      1  0.6129472861508  0.6506515919605  0.6889563110146 1.0
C      1  0.6506517696077  0.3870531488201  0.6889562896793 1.0
C      1  0.3870533002099  0.3493486402474  0.6889574045310 1.0
C      1  0.3493485521681  0.6129474756992  0.6889556545191 1.0
C      1  0.5433852436903  0.7702177881871  0.3285014771287 1.0
C      1  0.7702179175479  0.4566139190199  0.3285011186343 1.0
C      1  0.4566137781872  0.2297817298914  0.3285015678859 1.0
C      1  0.2297816509876  0.5433854815696  0.3285013942272 1.0
C      1  0.5438545579163  0.7702916926749  0.6686784758896 1.0
C      1  0.7702921546870  0.4561451505356  0.6686779921589 1.0
C      1  0.4561456010896  0.2297086383704  0.6686801862192 1.0
C      1  0.2297081327473  0.5438547705722  0.6686783237579 1.0
C      1  0.3153748237849  0.5190107272406  0.2926371252053 1.0
C      1  0.5190105762084  0.6846244271660  0.2926369202922 1.0
C      1  0.6846250425737  0.4809888850215  0.2926370911797 1.0
C      1  0.4809886806911  0.3153749932920  0.2926368887392 1.0
C      1  0.3156260771285  0.5194150086547  0.7038389321662 1.0
C      1  0.5194148402742  0.6843739658105  0.7038390426739 1.0
C      1  0.6843745796456  0.4805852510093  0.7038393441133 1.0
C      1  0.4805853505718  0.3156268676895  0.7038403072122 1.0
C      1  0.5728437997428  0.8473819214809  0.4517520857831 1.0
C      1  0.8473819947158  0.4271551828563  0.4517516911312 1.0
C      1  0.4271558505449  0.1526186675970  0.4517529917152 1.0
C      1  0.1526177954452  0.5728445236078  0.4517519993140 1.0
C      1  0.5730406248098  0.8474027966621  0.5454225319335 1.0
C      1  0.8474024405292  0.4269585318433  0.5454223291268 1.0
C      1  0.4269595886442  0.1525980852919  0.5454237364304 1.0
C      1  0.1525972083420  0.5730412038842  0.5454227428478 1.0
C      1  0.4323862653492  0.4720832845009  0.3796978855522 1.0
C      1  0.4720837231838  0.5676134997597  0.3796978022273 1.0
C      1  0.5676140846387  0.5279161385833  0.3796976373424 1.0
C      1  0.5279166828147  0.4323860105606  0.3796973997164 1.0
C      1  0.4323781692792  0.4722730008237  0.6161883606146 1.0
C      1  0.4722732548908  0.5676218314850  0.6161884859838 1.0
C      1  0.5676222264963  0.5277269597819  0.6161884748808 1.0
C      1  0.5277271303511  0.4323783338565  0.6161879136205 1.0
C      1  0.6307187776057  0.5523699191917  0.5433847460252 1.0
C      1  0.5523701173834  0.3692818951594  0.5433850712075 1.0
C      1  0.3692813446577  0.4476299635979  0.5433848466914 1.0
C      1  0.4476307340918  0.6307182423740  0.5433846442287 1.0
C      1  0.6307064258849  0.5526114089371  0.4527190649097 1.0
C      1  0.5526122692359  0.3692939801433  0.4527187548783 1.0
C      1  0.3692937785923  0.4473883301508  0.4527191730091 1.0
C      1  0.4473887797628  0.6307060453580  0.4527188710164 1.0
C      1  0.5960706033770  0.2744697097738  0.4520392614462 1.0
C      1  0.2744690957265  0.4039304472750  0.4520399252285 1.0
C      1  0.4039296244625  0.7255302296397  0.4520394247762 1.0
C      1  0.7255308854276  0.5960694832553  0.4520395572962 1.0
C      1  0.5955551170990  0.2745130342377  0.5445626072942 1.0
C      1  0.2745123239344  0.4044448020103  0.5445632113156 1.0
C      1  0.4044444881519  0.7254869587643  0.5445626771991 1.0
C      1  0.7254878818774  0.5955551836171  0.5445629168643 1.0
C      1  0.3722636051643  0.4443493821881  0.6935219977515 1.0
C      1  0.4443489632151  0.6277370426636  0.6935211424829 1.0
C      1  0.6277371147751  0.5556509036452  0.6935218603367 1.0
C      1  0.5556510620935  0.3722639191257  0.6935212411133 1.0
C      1  0.3723505216944  0.4440363279516  0.3023036080296 1.0
C      1  0.4440362157577  0.6276492989496  0.3023035653850 1.0
C      1  0.6276494392383  0.5559636205814  0.3023034461720 1.0
C      1  0.5559631303173  0.3723503449368  0.3023024583404 1.0
C      1  0.8206691801555  0.5828470551978  0.5708656420374 1.0
C      1  0.5828474394700  0.1793318867037  0.5708669734266 1.0
C      1  0.1793310623460  0.4171526516657  0.5708662127862 1.0
C      1  0.4171525899015  0.8206684584083  0.5708659078640 1.0
C      1  0.8208057308106  0.5832236519322  0.4260840139877 1.0
C      1  0.5832239744702  0.1791941723831  0.4260841736650 1.0
C      1  0.1791939332696  0.4167756481695  0.4260844982926 1.0
C      1  0.4167753462376  0.8208053503913  0.4260838277458 1.0
C      1  0.2220560586103  0.6443445777485  0.5506853467773 1.0
C      1  0.6443441865965  0.7779437729623  0.5506853787060 1.0
C      1  0.7779435788331  0.3556551402350  0.5506853504794 1.0
C      1  0.3556561161268  0.2220570835997  0.5506865346825 1.0
C      1  0.2220630233257  0.6441545351800  0.4461107137021 1.0
C      1  0.6441538821282  0.7779371175008  0.4461108248332 1.0
C      1  0.7779369436467  0.3558450279058  0.4461104781835 1.0
C      1  0.3558464248065  0.2220638382540  0.4461118923163 1.0
C      1  0.2649140609410  0.6306199105687  0.3607138160524 1.0
C      1  0.6306196317564  0.7350856309605  0.3607142260943 1.0
C      1  0.7350858835960  0.3693796034826  0.3607136938892 1.0
C      1  0.3693798627970  0.2649149080737  0.3607150337880 1.0
C      1  0.2650123737900  0.6309563762061  0.6360403612295 1.0
C      1  0.6309561256771  0.7349873961144  0.6360406519503 1.0
C      1  0.7349873777909  0.3690435188823  0.6360405215847 1.0
C      1  0.3690442704154  0.2650128389649  0.6360418633476 1.0
C      1  0.8784765202051  0.6060775738631  0.4986178664806 1.0
C      1  0.6060768104647  0.1215243296532  0.4986187934401 1.0
C      1  0.1215233267293  0.3939220151278  0.4986185678417 1.0
C      1  0.3939227668608  0.8784761500368  0.4986179325787 1.0
END
