TITL C-206338-5033-12 -4.734 3375.00 -828.14996951 0 0 102 (C2h) n - 1
REM
REM Run started: at 2020.12.01 20:23:35 in /rds/project/t2_vol4/rds-t2-cs072/BORA/CARBON/AIRSS/Generating-Clusters/Str-Search/Higher-Symm/C100-200
REM VASP from code version vasp.5.4.4.18Apr17-6-g9f103f2a35 (build Oct 11 2019 16:45:47) gamma-only
REM
REM
REM
REM
REM ./C.cell (533062f00bc710175b3da973d35f2034)
REM AIRSS Version 0.9.1 bugfix July 2018 build 013d7b7c2542+ Fri, 06 Jul 2018 19:26:36 +0100
REM compiler GCC version 4.8.5 20150623 (Red Hat 4.8.5-39)
REM options -cpp -mtune=generic -march=x86-64 -g -O0
REM seed 1210914496 -101581782 -1471458973 159698139 -773536992 1677460284 1514728811 -834288241 -1619014946 -631208402 -1374199730 -273712275
REM
REM C.POTCAR (d86ddea03c3ceb6dc662c8ad6801f873)
REM 
CELL 1.54180   15.00000   15.00000   15.00000   90.00000   90.00000   90.00000
LATT -1
SFAC C  
C      1  0.5158299562709  0.2425002707123  0.4421483284193 1.0
C      1  0.4841639802681  0.2425012235306  0.5578545645590 1.0
C      1  0.5158699291487  0.7574058060965  0.4421809993237 1.0
C      1  0.4841380721334  0.7574074780613  0.5578159047577 1.0
C      1  0.3967757481539  0.4544640124453  0.5485529119183 1.0
C      1  0.6032230351179  0.4544607058679  0.4514482803483 1.0
C      1  0.3967994753547  0.5453842517263  0.5485601352989 1.0
C      1  0.6032023160892  0.5453806689234  0.4514396566534 1.0
C      1  0.7783761504640  0.3285288490939  0.5868757329618 1.0
C      1  0.2216185753096  0.3285342314951  0.4131252894810 1.0
C      1  0.7783636971292  0.6713245261539  0.5868659991217 1.0
C      1  0.2216408793782  0.6713320529790  0.4131315095193 1.0
C      1  0.6603820818121  0.2479310365766  0.5253052018235 1.0
C      1  0.3396113543271  0.2479345172093  0.4746972435007 1.0
C      1  0.6604091792520  0.7519959921458  0.5253020188763 1.0
C      1  0.3395985249171  0.7520001226618  0.4746945989110 1.0
C      1  0.3757633395534  0.5483191908881  0.2401625771857 1.0
C      1  0.6242383287866  0.5483187381131  0.7598372632397 1.0
C      1  0.3757442200068  0.4516245965104  0.2401109964183 1.0
C      1  0.6242536337206  0.4516238713308  0.7598898360164 1.0
C      1  0.6856100117959  0.3966662597933  0.3123121435187 1.0
C      1  0.3143867467845  0.3966723732290  0.6876892046748 1.0
C      1  0.6856046848271  0.6031939497638  0.3123132686985 1.0
C      1  0.3143985653768  0.6032009463187  0.6876854633709 1.0
C      1  0.4097756312044  0.3573834046245  0.2487689109267 1.0
C      1  0.5902210891044  0.3573830577642  0.7512337537391 1.0
C      1  0.4097750572190  0.6425375703163  0.2488398146953 1.0
C      1  0.5902293765942  0.6425373579996  0.7511588815906 1.0
C      1  0.2453242807342  0.5478478330401  0.6519909052970 1.0
C      1  0.7546776647578  0.5478404074344  0.3480080185758 1.0
C      1  0.2453440100187  0.4520322169399  0.6520016968029 1.0
C      1  0.7546546734046  0.4520244241423  0.3479976457966 1.0
C      1  0.6380722194170  0.5456364429143  0.2488582235147 1.0
C      1  0.3619264179063  0.5456439110853  0.7511418973995 1.0
C      1  0.6380746672873  0.4542372184285  0.2488666929756 1.0
C      1  0.3619219342686  0.4542424325723  0.7511351232789 1.0
C      1  0.6615383500226  0.5959121961658  0.5126146340934 1.0
C      1  0.3384652639066  0.5959176769477  0.4873852426580 1.0
C      1  0.6615833610696  0.4040267992978  0.5126412692976 1.0
C      1  0.3384144957340  0.4040313376183  0.4873600336879 1.0
C      1  0.7576540944628  0.6245580461959  0.4959833257662 1.0
C      1  0.2423494335555  0.6245644999357  0.5040156179742 1.0
C      1  0.7576686264700  0.3752996039000  0.4959715171655 1.0
C      1  0.2423279683177  0.3753054008714  0.5040291457279 1.0
C      1  0.4292179510101  0.2213737556910  0.4820561655621 1.0
C      1  0.5707749814148  0.2213712443025  0.5179465011824 1.0
C      1  0.4292321142614  0.7785473513303  0.4820346395982 1.0
C      1  0.5707765918851  0.7785454472300  0.5179600129187 1.0
C      1  0.1755888911537  0.3802387162911  0.3552130528898 1.0
C      1  0.8244072949194  0.3802328488959  0.6447880031272 1.0
C      1  0.1756221141731  0.6196953948623  0.3552003948127 1.0
C      1  0.8243799270699  0.6196854122704  0.6447985705527 1.0
C      1  0.6494045925793  0.3229737798745  0.3633492027924 1.0
C      1  0.3505906538845  0.3229784155372  0.6366527634736 1.0
C      1  0.6494200262756  0.6768770862093  0.3633685333157 1.0
C      1  0.3505852229658  0.6768830658698  0.6366293148737 1.0
C      1  0.6889537355042  0.6883797010235  0.4540913949833 1.0
C      1  0.3110524705151  0.6883845342053  0.5459064745687 1.0
C      1  0.6889596713531  0.3114676548489  0.4540466941642 1.0
C      1  0.3110356155903  0.3114725057890  0.5459545587373 1.0
C      1  0.3686792572809  0.4057461858750  0.3917198920909 1.0
C      1  0.6313175758001  0.4057430420113  0.6082808224753 1.0
C      1  0.3687124093145  0.5941665022162  0.3917323355821 1.0
C      1  0.6312905418313  0.5941636510151  0.6082661840667 1.0
C      1  0.4564178852710  0.6878652093111  0.6279250394171 1.0
C      1  0.5435874859474  0.6878601712116  0.3720699901731 1.0
C      1  0.4564228392037  0.3120388806920  0.6279671091751 1.0
C      1  0.5435730123457  0.3120373442378  0.3720353102495 1.0
C      1  0.7886578763018  0.5491427094161  0.6860809082420 1.0
C      1  0.2113439115903  0.5491493389519  0.3139184178621 1.0
C      1  0.7886905337570  0.4507290530072  0.6861092547347 1.0
C      1  0.2113076317893  0.4507359137051  0.3138915526151 1.0
C      1  0.7934183418633  0.5483140067885  0.4404096253752 1.0
C      1  0.2065827919629  0.5483221784807  0.5595905388908 1.0
C      1  0.7933822586777  0.4515150509112  0.4403940708732 1.0
C      1  0.2066160714792  0.4515227883919  0.5596061901357 1.0
C      1  0.3721248859352  0.3152010903571  0.3358911526301 1.0
C      1  0.6278708179025  0.3151987858808  0.6641111828069 1.0
C      1  0.3721169156616  0.6847386938398  0.3359448392659 1.0
C      1  0.6278884191302  0.6847372311303  0.6640529822641 1.0
C      1  0.2968064334192  0.2670847547413  0.3928831848203 1.0
C      1  0.7031872588151  0.2670810364374  0.6071188093467 1.0
C      1  0.2967887230497  0.7328429714137  0.3929193623104 1.0
C      1  0.7032173298218  0.7328384648984  0.6070771025177 1.0
C      1  0.4555776102047  0.4537760424145  0.3914788352626 1.0
C      1  0.5444204184579  0.4537755640541  0.6085226831449 1.0
C      1  0.4555323160416  0.5461348983301  0.3914917791000 1.0
C      1  0.5444697643562  0.5461346045506  0.6085084265416 1.0
C      1  0.4658544017573  0.6915845840207  0.3028831157787 1.0
C      1  0.5341520100814  0.6915858411682  0.6971143544874 1.0
C      1  0.4658744629060  0.3083190759474  0.3028327732359 1.0
C      1  0.5341209984252  0.3083196452296  0.6971699042676 1.0
C      1  0.5326140123016  0.4073874055312  0.4090661788356 1.0
C      1  0.4673838664176  0.4073894437954  0.5909354243167 1.0
C      1  0.5326036686132  0.5924848060335  0.4091170078890 1.0
C      1  0.4673989816495  0.5924877795403  0.5908817566833 1.0
C      1  0.6864157222038  0.4510162287933  0.6800456552434 1.0
C      1  0.3135820753521  0.4510192072835  0.3199550119399 1.0
C      1  0.6863979957721  0.5488446628218  0.6800016985411 1.0
C      1  0.3136028524485  0.5488484847231  0.3199978722104 1.0
C      1  0.4184834175074  0.4999251564750  0.8146116505001 1.0
C      1  0.5815112613634  0.4999214903148  0.1853922569885 1.0
END
