TITL C-200799-6201-3 -10.971 3375.00 -1791.67657445 0 0 214 (C1) n - 1
REM
REM Run started: at 2020.12.13 10:11:05 in /rds/project/t2_vol4/rds-t2-cs072/BORA/CARBON/AIRSS/Generating-Clusters/Str-Search/Higher-Symm/C200-350
REM VASP from code version vasp.5.4.4.18Apr17-6-g9f103f2a35 (build Oct 11 2019 16:45:47) gamma-only
REM
REM
REM
REM
REM ./C.cell (8a36a0f86d45ee02852e7beefdfb7796)
REM AIRSS Version 0.9.1 bugfix July 2018 build 013d7b7c2542+ Fri, 06 Jul 2018 19:26:36 +0100
REM compiler GCC version 4.8.5 20150623 (Red Hat 4.8.5-39)
REM options -cpp -mtune=generic -march=x86-64 -g -O0
REM seed -1263491567 1400607378 -1506774012 -1111731026 -475620730 -923342004 -1418152032 -1857178399 920821555 43239375 -1278440722 -902591511
REM
REM C.POTCAR (d86ddea03c3ceb6dc662c8ad6801f873)
REM 
CELL 1.54180   15.00000   15.00000   15.00000   90.00000   90.00000   90.00000
LATT -1
SFAC C  
C      1  0.7718468952861  0.7597037219606  0.6416009811525 1.0
C      1  0.9213456659711  0.5317905591784  0.3786702987294 1.0
C      1  0.7968011117329  0.2893995690055  0.5852501044501 1.0
C      1  0.6533418856874  0.1755506775024  0.3907304564190 1.0
C      1  0.3941329148899  0.1227855571395  0.5788481616011 1.0
C      1  0.1893346371471  0.2690201256170  0.4456948799411 1.0
C      1  0.0862329750925  0.4892881947091  0.5615409173293 1.0
C      1  0.1202761929970  0.6866482837437  0.3818757294184 1.0
C      1  0.3730223772455  0.8645285597950  0.6021676840147 1.0
C      1  0.5840377613748  0.8490658505116  0.4406239949369 1.0
C      1  0.3640323662895  0.4443893161563  0.6396138111234 1.0
C      1  0.4301713106055  0.5195186675287  0.4104010901576 1.0
C      1  0.4131702945011  0.6043705026176  0.6464028350448 1.0
C      1  0.5090979745427  0.5665152706198  0.4036677714057 1.0
C      1  0.6623816982760  0.5383854112480  0.6105856722759 1.0
C      1  0.6558505718282  0.5901226352936  0.3479316528871 1.0
C      1  0.6067659526346  0.4743903027861  0.6672657314815 1.0
C      1  0.4707177517312  0.3730005955419  0.3339396569647 1.0
C      1  0.5723641280690  0.4000598012273  0.6231697611671 1.0
C      1  0.4460381711624  0.4265191910573  0.4035817582841 1.0
C      1  0.6906191059722  0.5684375568399  0.4401484301427 1.0
C      1  0.6946620901431  0.4678193926109  0.4363644673680 1.0
C      1  0.6257522347340  0.4046658099609  0.4625025432287 1.0
C      1  0.5447943283777  0.3877405716457  0.5261903672914 1.0
C      1  0.4460732159929  0.3950699912903  0.4980290019779 1.0
C      1  0.3754553812193  0.4536138643342  0.5407923470069 1.0
C      1  0.3805097633719  0.5414487775208  0.4941735471385 1.0
C      1  0.4434462502450  0.5943551105885  0.5484038768167 1.0
C      1  0.5307151067845  0.6077335814032  0.4924348490165 1.0
C      1  0.6310075927346  0.6006616451156  0.5236605848088 1.0
C      1  0.4657698814350  0.8373229921413  0.7522232014790 1.0
C      1  0.6691323279163  0.8047090274335  0.2991776277917 1.0
C      1  0.8132926674143  0.6527488704059  0.7589997870061 1.0
C      1  0.8976895990216  0.4490369149483  0.2400824742266 1.0
C      1  0.7075399830438  0.2356937793431  0.7184547898778 1.0
C      1  0.5745181057073  0.1578948950721  0.2563214203837 1.0
C      1  0.2960958806739  0.2008504681620  0.6860824893952 1.0
C      1  0.1789562712752  0.3130945481234  0.2801776280219 1.0
C      1  0.1439859490788  0.5790113509988  0.7018206892913 1.0
C      1  0.2526996216898  0.7209044015414  0.2750068078634 1.0
C      1  0.2565584868842  0.6655138830964  0.7731333041321 1.0
C      1  0.4030002094597  0.7469871298055  0.2388932878404 1.0
C      1  0.5462729178472  0.7141474407243  0.8231084164055 1.0
C      1  0.7403684740397  0.6851369771211  0.2180556528436 1.0
C      1  0.7777156989103  0.5002555622110  0.7829610435975 1.0
C      1  0.7602248428620  0.3761985794186  0.2104982545486 1.0
C      1  0.5616423120769  0.2205188886256  0.7816776435238 1.0
C      1  0.4422975672709  0.2300449494893  0.2193331180369 1.0
C      1  0.2398330198813  0.3361703367311  0.7270885935326 1.0
C      1  0.2036510041091  0.4567348873123  0.2269255179641 1.0
C      1  0.4003569735074  0.4275765751275  0.1772835908366 1.0
C      1  0.3648550650748  0.4864195325531  0.7978849557419 1.0
C      1  0.3705491078999  0.5223518838868  0.1396016237837 1.0
C      1  0.4168082448035  0.5464838221310  0.8713774803097 1.0
C      1  0.5765781680511  0.6483654689769  0.1210073661514 1.0
C      1  0.6074773871596  0.5439469748781  0.8270031296084 1.0
C      1  0.5301924624847  0.4974395826064  0.2664207287711 1.0
C      1  0.6064835493516  0.4594550756208  0.7673452637919 1.0
C      1  0.4688671204142  0.4337989335450  0.2534601973393 1.0
C      1  0.4245332889223  0.3940706658142  0.8074147393891 1.0
C      1  0.2977279991386  0.8084332209589  0.5856347691183 1.0
C      1  0.4854931373882  0.8699582059644  0.4514389816087 1.0
C      1  0.6728771562943  0.7698874116955  0.6051046384786 1.0
C      1  0.8672607430238  0.6078398828667  0.3996705334091 1.0
C      1  0.8503905671570  0.3801738321145  0.5815274045792 1.0
C      1  0.7143302945605  0.2473232744628  0.4286586528297 1.0
C      1  0.4972900771140  0.1058388999483  0.5849972586891 1.0
C      1  0.3992580238685  0.2277945968350  0.4562550980926 1.0
C      1  0.0956412134783  0.3873768705440  0.5487192152999 1.0
C      1  0.0937734353076  0.5993150299998  0.4127303239999 1.0
C      1  0.9035926046088  0.3745628480391  0.2986189956401 1.0
C      1  0.6681055984166  0.1609977361293  0.6775179987470 1.0
C      1  0.5189657553328  0.1267732220566  0.3256506100509 1.0
C      1  0.2217278308703  0.2173630390957  0.6274911108477 1.0
C      1  0.1016434852461  0.3564690985360  0.3057519922423 1.0
C      1  0.1614823950473  0.6494419003841  0.6436184525868 1.0
C      1  0.2804409980065  0.7893546649617  0.3434007160577 1.0
C      1  0.5421833246068  0.8426246782720  0.6928940071888 1.0
C      1  0.7400844696749  0.7794422293233  0.3555036430576 1.0
C      1  0.8618172668501  0.6028175093054  0.6936150955268 1.0
C      1  0.5927618318425  0.5809135803428  0.0746956204886 1.0
C      1  0.5930878077994  0.5034711203772  0.9160375460316 1.0
C      1  0.5929714076800  0.4131012469737  0.0131713457595 1.0
C      1  0.5947625910218  0.4023487111111  0.9038769724150 1.0
C      1  0.5426210332508  0.3737810263404  0.0893827658954 1.0
C      1  0.5144632181381  0.4273039854372  0.8289350103874 1.0
C      1  0.4599220294576  0.4204835771227  0.0936267606507 1.0
C      1  0.3997943923373  0.5628951285330  0.9706780397988 1.0
C      1  0.4108362105107  0.5091579973090  0.0564956736001 1.0
C      1  0.3945579600568  0.6338766570135  0.9134204293108 1.0
C      1  0.7594523392108  0.5899410902579  0.8106959932629 1.0
C      1  0.8145655804393  0.4507412565361  0.1815578981157 1.0
C      1  0.6314078474146  0.2918709148713  0.7599947331580 1.0
C      1  0.5366445692985  0.2292058462009  0.1923801893160 1.0
C      1  0.3221838316764  0.2854660657480  0.7339273864878 1.0
C      1  0.2386371116455  0.3718480369834  0.2207033027781 1.0
C      1  0.2161849773646  0.5766693631651  0.7729401457767 1.0
C      1  0.3253967188315  0.6837585927931  0.2210622350337 1.0
C      1  0.4657707107479  0.7696595560956  0.8329255087884 1.0
C      1  0.6596742384669  0.7495388247066  0.2164795861078 1.0
C      1  0.3821663679759  0.7176272269453  0.4705680117545 1.0
C      1  0.4955127515818  0.7315254575087  0.5906777615954 1.0
C      1  0.7658471821344  0.6991258313177  0.5012778720276 1.0
C      1  0.8239025349880  0.5553218659272  0.5462791677348 1.0
C      1  0.7856487333041  0.4363863797623  0.4526736364687 1.0
C      1  0.5961883950324  0.2552248402351  0.5912663013759 1.0
C      1  0.5037487365662  0.2375523355994  0.4440180352403 1.0
C      1  0.3023341547411  0.3236730763722  0.5564186316543 1.0
C      1  0.2464600748248  0.4743170576110  0.4478538925768 1.0
C      1  0.2435210098711  0.6413286297515  0.5144907680234 1.0
C      1  0.0965259529841  0.5713445191954  0.5074418026767 1.0
C      1  0.1406229953199  0.7732690309409  0.4141576787564 1.0
C      1  0.4519417345298  0.8724471697483  0.5410493760507 1.0
C      1  0.6566940406268  0.8155504375472  0.4984740288654 1.0
C      1  0.8240533091473  0.7123675406683  0.5807600332251 1.0
C      1  0.9297230395422  0.4568252137998  0.4349900550561 1.0
C      1  0.7412317190198  0.2329370734406  0.5290509568368 1.0
C      1  0.5714175694538  0.1176419945360  0.5254057814354 1.0
C      1  0.3462440298219  0.1740083419382  0.5187674458682 1.0
C      1  0.1110381164590  0.3308156839401  0.4655661337248 1.0
C      1  0.1243961771954  0.5400333624581  0.3385952056517 1.0
C      1  0.2574167544208  0.7880278687806  0.6692402456112 1.0
C      1  0.4480335425242  0.8598438847180  0.3573654182926 1.0
C      1  0.6186771483790  0.7764699392161  0.6979000829627 1.0
C      1  0.8628889924572  0.6612160071303  0.3241171819512 1.0
C      1  0.8486015617723  0.4162718226688  0.6671940865851 1.0
C      1  0.7605809626838  0.2765776881289  0.3390610507261 1.0
C      1  0.5125304815293  0.1100984445759  0.6813468502077 1.0
C      1  0.3742538062196  0.2073234409043  0.3631729607533 1.0
C      1  0.1181434167126  0.3552649565517  0.6362597644025 1.0
C      1  0.5633996937398  0.1493359499617  0.4254870339576 1.0
C      1  0.2548891172727  0.2334964015401  0.5319912687992 1.0
C      1  0.0504503728389  0.3457297362740  0.3886677435895 1.0
C      1  0.1524868912039  0.6371850843971  0.5521727305793 1.0
C      1  0.2041892199975  0.8231936037921  0.3934996191321 1.0
C      1  0.5098767449023  0.8235062232923  0.6025510434017 1.0
C      1  0.7324532854305  0.7783053289257  0.4480613447803 1.0
C      1  0.8659045484369  0.6305896022946  0.6043824339834 1.0
C      1  0.9626185219707  0.3802726027979  0.3814230770630 1.0
C      1  0.6565692888982  0.1749723522663  0.5772449806301 1.0
C      1  0.3642651844778  0.1417927471161  0.6709325558284 1.0
C      1  0.2207001182035  0.2618871472650  0.3492431909713 1.0
C      1  0.1047301815160  0.5048141142475  0.6587944988744 1.0
C      1  0.1724988903141  0.6790959262889  0.2970342676306 1.0
C      1  0.3845634581187  0.8584046221768  0.7082106928557 1.0
C      1  0.5970748551254  0.8390685613438  0.3446964607582 1.0
C      1  0.7705084892793  0.7359822116075  0.7334198559242 1.0
C      1  0.9256565421034  0.5302439649078  0.2779894880202 1.0
C      1  0.7774378661000  0.2829489920587  0.6817830363288 1.0
C      1  0.6555365452560  0.1782020145787  0.2984067625534 1.0
C      1  0.3014302170891  0.4017557390117  0.4934621929050 1.0
C      1  0.2823465701596  0.5616294691231  0.4822682391534 1.0
C      1  0.3115485251343  0.7148532566058  0.5406857866908 1.0
C      1  0.4662926335111  0.6856024676330  0.5111800422718 1.0
C      1  0.6742673974900  0.6890421347910  0.5459091757360 1.0
C      1  0.7888450179337  0.6069543727527  0.4641262083360 1.0
C      1  0.8601543534930  0.4540138956741  0.5110748274339 1.0
C      1  0.6416941214826  0.3159704758822  0.4518442663768 1.0
C      1  0.5628343668949  0.2893145231541  0.5063097821222 1.0
C      1  0.3778227116514  0.3218428217124  0.4911002076540 1.0
C      1  0.6867726288493  0.7588271765587  0.7713420680124 1.0
C      1  0.8831510858800  0.6091602478287  0.2464620044552 1.0
C      1  0.8005621454215  0.3609285713806  0.7277695654951 1.0
C      1  0.7073473003653  0.2496013055125  0.2683912147935 1.0
C      1  0.4390306237946  0.1500278185422  0.7253606385318 1.0
C      1  0.3055886694314  0.2369383255190  0.3121398711396 1.0
C      1  0.1265109537284  0.4259962724892  0.7010213526655 1.0
C      1  0.1688520278795  0.5932045194889  0.2693914129387 1.0
C      1  0.3105467436367  0.8103529555319  0.7433731240977 1.0
C      1  0.5152974076635  0.8339768911584  0.2988074969889 1.0
C      1  0.7812847640619  0.7065094580994  0.3086615343915 1.0
C      1  0.8240688221204  0.5091516850078  0.6956398867010 1.0
C      1  0.8023817736865  0.3580860933354  0.3049745004041 1.0
C      1  0.5881281010795  0.1451717414923  0.7236809867182 1.0
C      1  0.4513284145454  0.1943393007070  0.3099758274572 1.0
C      1  0.1762245259407  0.2887095565542  0.6664011371062 1.0
C      1  0.1331328063216  0.4484060711581  0.2983797495203 1.0
C      1  0.2418908287834  0.6924174356420  0.6790942573254 1.0
C      1  0.3760457904436  0.8053702105075  0.3189309445540 1.0
C      1  0.5472628340520  0.7026868875122  0.7296031355973 1.0
C      1  0.1912108277933  0.4758845233762  0.3760735174313 1.0
C      1  0.3242194045288  0.6588333540357  0.6238285750358 1.0
C      1  0.3543394907399  0.7440147837406  0.3918703129627 1.0
C      1  0.4858438600063  0.6756789113202  0.6667104974321 1.0
C      1  0.7098395951777  0.6369231519835  0.2969633119047 1.0
C      1  0.7544777233669  0.5318669879889  0.6166854157718 1.0
C      1  0.7627189626129  0.4246545905058  0.3704593046796 1.0
C      1  0.5913158686532  0.3144869659718  0.6624132601907 1.0
C      1  0.4897457265428  0.2810889729748  0.3533022392803 1.0
C      1  0.3190748953114  0.3562818831671  0.6515303572752 1.0
C      1  0.3887142672949  0.7239244856332  0.8660865309938 1.0
C      1  0.5745122774483  0.7240241279122  0.1823329209499 1.0
C      1  0.6726937143525  0.6163810875631  0.8359206175348 1.0
C      1  0.7833796273340  0.5309849017145  0.1449815076346 1.0
C      1  0.6569440176966  0.3804075286933  0.8157170923946 1.0
C      1  0.5900404088105  0.3040823815339  0.1552517469471 1.0
C      1  0.4054543665450  0.3040229535743  0.7856235249101 1.0
C      1  0.3281057104105  0.3540911193615  0.1960522640082 1.0
C      1  0.2570407165661  0.4915836569214  0.7916232753656 1.0
C      1  0.3122792917122  0.5905675856495  0.1858246401572 1.0
C      1  0.7523284857469  0.4089872503798  0.7947704148500 1.0
C      1  0.6843363008317  0.3140559967749  0.1965100573150 1.0
C      1  0.4669166530204  0.2271272441574  0.7802957085794 1.0
C      1  0.3544667322156  0.2690683692608  0.2248811699946 1.0
C      1  0.2042775538153  0.4198040339703  0.7586891419353 1.0
C      1  0.2306596265218  0.5481752447391  0.2152293150220 1.0
C      1  0.3110021027113  0.7354658036542  0.8094179385990 1.0
C      1  0.4957424008910  0.7661555751006  0.2279112480782 1.0
C      1  0.6441823690856  0.7060244169435  0.8381431686948 1.0
C      1  0.8101547684303  0.6124762583833  0.1820083473943 1.0
C      1  0.6022051040882  0.5074111402689  0.0124232856755 1.0
C      1  0.5118759211766  0.5230584423185  0.8583018311488 1.0
C      1  0.5676311862430  0.5511334302323  0.3296808417424 1.0
C      1  0.3874318947016  0.5128164289724  0.6968224485051 1.0
END
