TITL C-20921-2486-14 -8.341 3375.00 -1614.73446725 0 0 194 (C1) n - 1
REM
REM Run started: at 2020.12.14 02:12:20 in /gpfs/home/chem/mssmkc/CARBON/AIRSS/Generating-Clusters/Str-Search/Higher-Symm
REM VASP from code version vasp.5.4.4.18Apr17-6-g9f103f2a35 (build Oct 11 2019 16:45:47) gamma-only
REM
REM
REM
REM
REM ./C.cell (e5ae0387ce4d49c7c0135a1433873289)
REM AIRSS Version 0.9.1 bugfix July 2018 build 013d7b7c2542+ Fri, 06 Jul 2018 19:26:36 +0100
REM compiler GCC version 6.3.0
REM options -cpp -iprefix /gpfs/warwick/csc/orac/software/Core/GCCcore/6.3.0/bin/../lib/gcc/x86_64-pc-linux-gnu/6.3.0/ -mtune=generic -march=x86-64 -g -O0
REM seed 1308855478 -1728454153 631220634 899394249 1962135329 -1410536423 431949424 -719521265 119182892 -56504931 147811500 -842120654
REM
REM C.POTCAR (d86ddea03c3ceb6dc662c8ad6801f873)
REM 
CELL 1.54180   15.00000   15.00000   15.00000   90.00000   90.00000   90.00000
LATT -1
SFAC C  
C      1  0.7287620458941  0.2923707227893  0.2687099026708 1.0
C      1  0.5850849155040  0.2319472245692  0.2540119115015 1.0
C      1  0.4186116445344  0.2287632766823  0.2536832198665 1.0
C      1  0.2918130515625  0.3231618744140  0.2542502512479 1.0
C      1  0.2397566598803  0.4808954404510  0.2550556764931 1.0
C      1  0.2336554466835  0.6356370767962  0.2682033079968 1.0
C      1  0.3541364051132  0.7358386998986  0.2611724527527 1.0
C      1  0.5205294994549  0.7802548067755  0.2681052765230 1.0
C      1  0.6728162078965  0.7493255130101  0.2836419121900 1.0
C      1  0.7418666576481  0.6106062085131  0.2685327404404 1.0
C      1  0.7654193784726  0.4439819252724  0.2629961181659 1.0
C      1  0.3593891164663  0.3836007518424  0.5023388878738 1.0
C      1  0.3150406613525  0.4789353989638  0.5032897506128 1.0
C      1  0.3313193741131  0.5806893945658  0.5059051038329 1.0
C      1  0.4007130522666  0.6552142820478  0.5095340933425 1.0
C      1  0.5012320193166  0.6763175253701  0.5122800355056 1.0
C      1  0.6002718495826  0.6414312681660  0.5150066873551 1.0
C      1  0.6687654777204  0.5615212182178  0.5142784889427 1.0
C      1  0.6857604654281  0.4588519029619  0.5106031882372 1.0
C      1  0.6426346645473  0.3663380098196  0.5075559540105 1.0
C      1  0.5535056469132  0.3152586800307  0.5048873043264 1.0
C      1  0.4479568755175  0.3233643258356  0.5033091744480 1.0
C      1  0.4317853214993  0.7749258152955  0.3034961743219 1.0
C      1  0.5988947984685  0.7917632541768  0.3249036779299 1.0
C      1  0.7347002723452  0.6909125995786  0.3226205360015 1.0
C      1  0.7780018760772  0.5303896211568  0.3049632859270 1.0
C      1  0.7778603475144  0.3622037034569  0.3104530334089 1.0
C      1  0.6664899235705  0.2356310584598  0.3081095019241 1.0
C      1  0.5025629187445  0.2087987539450  0.2953685192504 1.0
C      1  0.3390054628217  0.2534791357761  0.3024799182823 1.0
C      1  0.2428798297149  0.3944260724933  0.2943548400009 1.0
C      1  0.2031556852789  0.5566229595763  0.3061692402688 1.0
C      1  0.2765468748144  0.7093345002702  0.3110037577926 1.0
C      1  0.2904871569717  0.5369868386106  0.6970738278666 1.0
C      1  0.4532094517989  0.6527798465086  0.7948631181393 1.0
C      1  0.5441944075631  0.6821933077460  0.7851062698938 1.0
C      1  0.6205628847590  0.6312498930437  0.7986190578972 1.0
C      1  0.6453298260442  0.5332779901100  0.8094188209053 1.0
C      1  0.6234381365467  0.4443784238104  0.8172103777893 1.0
C      1  0.5567047627695  0.3698933045362  0.8195966641950 1.0
C      1  0.4707938039351  0.3399486032601  0.8151297998207 1.0
C      1  0.3737548221241  0.3598007483429  0.8172370509385 1.0
C      1  0.3157658254221  0.4326995536891  0.8268851914375 1.0
C      1  0.3361242787817  0.5302590531925  0.7869329471040 1.0
C      1  0.4401321991154  0.8106966640389  0.7520956339158 1.0
C      1  0.5367836060234  0.7721628711642  0.7437604418474 1.0
C      1  0.7645849048234  0.7195027319717  0.7443364211139 1.0
C      1  0.7992984835464  0.4989697392062  0.7415223330935 1.0
C      1  0.7785277118276  0.4050611676373  0.7630134723864 1.0
C      1  0.6052697156740  0.2173046210667  0.7641682512567 1.0
C      1  0.5121992103975  0.1867687993794  0.7469694333169 1.0
C      1  0.2938203179805  0.2218922004225  0.7319601686784 1.0
C      1  0.1712399561970  0.4544427740565  0.7716568868676 1.0
C      1  0.1967899803948  0.5481016052785  0.7287285289552 1.0
C      1  0.2342185738343  0.7541997517863  0.7322705478016 1.0
C      1  0.8548213817647  0.3190256856334  0.4693217378786 1.0
C      1  0.7107648339131  0.1651876333498  0.4671667707140 1.0
C      1  0.4789223149654  0.0887009123378  0.5278216610416 1.0
C      1  0.2849883273144  0.1778650641816  0.4661893288301 1.0
C      1  0.1469041534834  0.3458785914845  0.4500283873757 1.0
C      1  0.1224039004430  0.5818689290497  0.4718725384990 1.0
C      1  0.2182623251069  0.7706251377125  0.4730244377650 1.0
C      1  0.4115650230556  0.8958312496823  0.5319499289614 1.0
C      1  0.6288440093044  0.8561657738980  0.4982579655514 1.0
C      1  0.7970374022627  0.7382650761770  0.4859176717640 1.0
C      1  0.8827598325075  0.5392601703890  0.4770212155093 1.0
C      1  0.8301219609280  0.5298881753196  0.5709081828129 1.0
C      1  0.8077389029491  0.3413181738788  0.5576919263483 1.0
C      1  0.6802177727489  0.2051501539415  0.5566798318213 1.0
C      1  0.4945431977725  0.1743634276526  0.5762699016217 1.0
C      1  0.3139400805797  0.2256413013171  0.5551250956598 1.0
C      1  0.1903273955935  0.3668952250026  0.5474700558535 1.0
C      1  0.1703163579607  0.5567881593238  0.5613735782166 1.0
C      1  0.2500694609381  0.7254944301982  0.5615179673796 1.0
C      1  0.4147899470364  0.8090029436422  0.5824708371103 1.0
C      1  0.5981091567198  0.8007869810441  0.5818273252331 1.0
C      1  0.7547922252157  0.7016997130162  0.5725047345201 1.0
C      1  0.5520507778176  0.3371203369887  0.1099137290829 1.0
C      1  0.4592707120362  0.3281890193619  0.1123897150972 1.0
C      1  0.3857171772337  0.3957242688116  0.1223934883362 1.0
C      1  0.3766855603279  0.4899119312948  0.1307827745522 1.0
C      1  0.4408061841402  0.5598872370763  0.1074124539989 1.0
C      1  0.4197592130307  0.6519235524095  0.1260509041046 1.0
C      1  0.5111078831289  0.6788634491291  0.1281931428208 1.0
C      1  0.5417310381913  0.5905072411293  0.1078478757534 1.0
C      1  0.6278992232715  0.5618377848278  0.1371277987226 1.0
C      1  0.6474338410903  0.4681672250831  0.1294751010585 1.0
C      1  0.5853579757275  0.4195158504810  0.0792296661584 1.0
C      1  0.5784509463642  0.8717252256924  0.7516731059810 1.0
C      1  0.8290784502530  0.7872503780739  0.7236219625007 1.0
C      1  0.9553155804802  0.5478266394089  0.6768566156359 1.0
C      1  0.8319073499045  0.3415076677506  0.7194277010300 1.0
C      1  0.6714727614039  0.1733117688946  0.7153172131996 1.0
C      1  0.4633159813301  0.0425638549891  0.6166614227253 1.0
C      1  0.2254213471273  0.1591336739602  0.7079067377213 1.0
C      1  0.1457718727786  0.3620454839220  0.6330959214689 1.0
C      1  0.0389255604590  0.5621439086837  0.6674881052633 1.0
C      1  0.1669828598287  0.8171147429549  0.7052822776216 1.0
C      1  0.4299851093744  0.9453350835657  0.6179834326643 1.0
C      1  0.1969416713608  0.5536685988718  0.4045303245571 1.0
C      1  0.2728259047274  0.7110485362884  0.4094735137740 1.0
C      1  0.4245696901069  0.7904325950513  0.4058244695536 1.0
C      1  0.5950217444807  0.7892234852356  0.4243523873686 1.0
C      1  0.7358724765626  0.6893606561573  0.4208233807339 1.0
C      1  0.7997312943757  0.5318263404866  0.4088431360998 1.0
C      1  0.7828744678903  0.3598516472174  0.4080811921550 1.0
C      1  0.6641064562762  0.2304213132041  0.4059040563471 1.0
C      1  0.4972659298143  0.1928318364786  0.3979411632915 1.0
C      1  0.3328000194937  0.2456370820249  0.4017007463377 1.0
C      1  0.2278649208685  0.3835048638284  0.3942261204967 1.0
C      1  0.8498042789000  0.3223344678627  0.6422756213087 1.0
C      1  0.7012843762983  0.1610472638347  0.6403370531027 1.0
C      1  0.4883343945771  0.1243133515874  0.6651929470273 1.0
C      1  0.2819332233797  0.1987774208972  0.6438030876834 1.0
C      1  0.1371096399548  0.3939230488533  0.7082676209461 1.0
C      1  0.1278359017458  0.5653169111041  0.6544105256312 1.0
C      1  0.2145937524954  0.7617703819179  0.6443554048963 1.0
C      1  0.4185540079774  0.8630987606615  0.6677892971329 1.0
C      1  0.5947025389744  0.8221991297023  0.6788876911411 1.0
C      1  0.7874161733708  0.7353593379072  0.6572419553130 1.0
C      1  0.8682350855051  0.5272666726861  0.6679595171405 1.0
C      1  0.3006189015884  0.3325187588885  0.4373176283876 1.0
C      1  0.2360172998256  0.4707856349405  0.4394305400333 1.0
C      1  0.2606381876586  0.6188643155777  0.4445387537314 1.0
C      1  0.3619751384750  0.7289480235172  0.4497909754365 1.0
C      1  0.5061085785794  0.7616941020893  0.4550124381338 1.0
C      1  0.6467172773036  0.7113536097601  0.4581974507310 1.0
C      1  0.7425423671064  0.5971156188748  0.4547883764983 1.0
C      1  0.7654397192671  0.4487776534316  0.4480543935961 1.0
C      1  0.7019827155117  0.3139070972924  0.4446771046397 1.0
C      1  0.5726602187112  0.2347611582988  0.4443422244602 1.0
C      1  0.4242380315420  0.2452253198750  0.4420449445196 1.0
C      1  0.7353110539523  0.5564942407139  0.7772364873106 1.0
C      1  0.6933979129632  0.3792801571477  0.7968263621954 1.0
C      1  0.6256716544621  0.3050470443831  0.7975423867546 1.0
C      1  0.4518240196036  0.2491200281642  0.7817843127126 1.0
C      1  0.3570933866996  0.2696494126678  0.7828701573264 1.0
C      1  0.2247690151382  0.4172627572457  0.8343776126213 1.0
C      1  0.2667895335577  0.6024647723300  0.7826031565268 1.0
C      1  0.2975751745415  0.6971514998172  0.7741416461394 1.0
C      1  0.3879112582485  0.7239379215790  0.7825564030607 1.0
C      1  0.5128675508298  0.8518952508293  0.8161753000618 1.0
C      1  0.7126925414969  0.6503515984476  0.7788021001801 1.0
C      1  0.6055577334672  0.2865098394342  0.1720210607220 1.0
C      1  0.4093248390184  0.2696668733665  0.1684376403109 1.0
C      1  0.3338990384222  0.3298481277935  0.1698145333948 1.0
C      1  0.2953411882529  0.5210865234244  0.1792575980843 1.0
C      1  0.2842074386175  0.6134864797934  0.1899667537809 1.0
C      1  0.3510107906019  0.6795497792546  0.1787752964884 1.0
C      1  0.5540728594734  0.7361066071157  0.1851404110762 1.0
C      1  0.6435651421808  0.7102732377518  0.2014042850281 1.0
C      1  0.6796461466711  0.6242388611769  0.1895027622928 1.0
C      1  0.7084384837351  0.4197642448624  0.1835386981615 1.0
C      1  0.6895322833766  0.3269492614386  0.1887729814659 1.0
C      1  0.6534684790123  0.7179196875016  0.5584518230649 1.0
C      1  0.7566031498500  0.5994535992268  0.5540459810891 1.0
C      1  0.7815023271958  0.4430440414588  0.5465186059722 1.0
C      1  0.7142339239454  0.3008359277624  0.5433968560476 1.0
C      1  0.5768902129647  0.2219562690324  0.5427738101209 1.0
C      1  0.4173300785294  0.2338562967017  0.5423356699248 1.0
C      1  0.2829932516418  0.3219830602437  0.5351829783388 1.0
C      1  0.2175700192011  0.4662476944809  0.5363992068265 1.0
C      1  0.2461837793551  0.6230904257530  0.5448194863460 1.0
C      1  0.3523098129366  0.7377876892635  0.5496570267599 1.0
C      1  0.5039190012681  0.7695679581434  0.5540308815851 1.0
C      1  0.7677377459825  0.9508443438524  0.4670000162512 1.0
C      1  0.9580846272356  0.7781341942795  0.4541809200874 1.0
C      1  0.0122295545503  0.4512887667681  0.4145221585265 1.0
C      1  0.0025712149746  0.2373460468410  0.4364772204984 1.0
C      1  0.8033453019295  0.0280452123613  0.4552521637183 1.0
C      1  0.4527045047746  0.0316720570129  0.3773940350495 1.0
C      1  0.2083195579885  0.0240727051963  0.4534951755451 1.0
C      1  0.0654373882815  0.3831921168640  0.4069110245925 1.0
C      1  0.0223135083921  0.7201533106590  0.4534481021959 1.0
C      1  0.1914161393922  0.9395376794144  0.4552287203450 1.0
C      1  0.4231377833960  0.9557797940637  0.3817596041455 1.0
C      1  0.0740398369941  0.2904185999778  0.4165654936742 1.0
C      1  0.0759916068570  0.6563407711829  0.4613017804427 1.0
C      1  0.1945014081620  0.8549117479813  0.4628742133472 1.0
C      1  0.4104040142352  0.8859455023342  0.4397810031033 1.0
C      1  0.7045530651814  0.8995982479789  0.4893433956316 1.0
C      1  0.8748934827652  0.7744863733261  0.4721296944959 1.0
C      1  0.9577211475544  0.5041279382096  0.4511096939991 1.0
C      1  0.9233434217571  0.2664097678111  0.4525503683317 1.0
C      1  0.7759636787354  0.1087188695401  0.4536465706846 1.0
C      1  0.4812563735044  0.0978941930872  0.4348363955538 1.0
C      1  0.2407737882015  0.1027800876305  0.4555141081137 1.0
C      1  0.5027326848281  0.4914682735822  0.4684469882360 1.0
C      1  0.5015524064150  0.4912174125693  0.5518813582302 1.0
C      1  0.5035379772239  0.4853136836078  0.3803274933276 1.0
C      1  0.4948853086168  0.4980343320395  0.6389545917685 1.0
C      1  0.4301213043979  0.5614526604636  0.7824743597482 1.0
C      1  0.4798508871524  0.5162457108069  0.7190045530195 1.0
C      1  0.5045694034936  0.4701559150909  0.2966572887303 1.0
END
