TITL C-204172-6179-7 -8.675 3375.00 -1477.67227951 0 0 180 (S4) n - 1
REM
REM Run started: at 2020.12.23 14:30:23 in /rds/project/t2_vol4/rds-t2-cs072/BORA/CARBON/AIRSS/Generating-Clusters/Str-Search/Higher-Symm/Only-C180
REM VASP from code version vasp.5.4.4.18Apr17-6-g9f103f2a35 (build Oct 11 2019 16:45:47) gamma-only
REM
REM
REM
REM
REM ./C.cell (f712cfaf3acf65fd2d5dcba0fd1fd40b)
REM AIRSS Version 0.9.1 bugfix July 2018 build 013d7b7c2542+ Fri, 06 Jul 2018 19:26:36 +0100
REM compiler GCC version 4.8.5 20150623 (Red Hat 4.8.5-39)
REM options -cpp -mtune=generic -march=x86-64 -g -O0
REM seed 1375144391 -1545890285 1787408311 -729195289 806580615 -1723856992 -1282615490 961013948 -511336150 964902407 -395902224 1648346754
REM
REM C.POTCAR (d86ddea03c3ceb6dc662c8ad6801f873)
REM 
CELL 1.54180   15.00000   15.00000   15.00000   90.00000   90.00000   90.00000
LATT -1
SFAC C  
C      1  0.4557444326665  0.4815537753572  0.5483387357898 1.0
C      1  0.4516611966210  0.5184449556203  0.4557441772654 1.0
C      1  0.5442559929426  0.4815541072675  0.4516603910399 1.0
C      1  0.5483397582329  0.5184437900876  0.5442558259478 1.0
C      1  0.4873546623001  0.7433188714657  0.7839016217165 1.0
C      1  0.2160975138382  0.2566796552501  0.4873546426546 1.0
C      1  0.5126472060867  0.7433202247013  0.2160978696892 1.0
C      1  0.7839010158755  0.2566797437205  0.5126463151625 1.0
C      1  0.3798643153561  0.4844521943150  0.3987210741688 1.0
C      1  0.6012788570994  0.5155476993325  0.3798642741209 1.0
C      1  0.6201359853444  0.4844505465606  0.6012785414057 1.0
C      1  0.3987217192997  0.5155486698191  0.6201349887008 1.0
C      1  0.3798240887994  0.4818450531917  0.1358278966719 1.0
C      1  0.8641725713739  0.5181548141344  0.3798240949082 1.0
C      1  0.6201745788636  0.4818427360785  0.8641732626332 1.0
C      1  0.1358273152512  0.5181571446684  0.6201736235885 1.0
C      1  0.7575911899184  0.4314597962514  0.4039530694296 1.0
C      1  0.5960464783707  0.5685374539885  0.7575920660908 1.0
C      1  0.2424084502335  0.4314615786211  0.5960459342047 1.0
C      1  0.4039536089284  0.5685399928711  0.2424084803969 1.0
C      1  0.4078095941165  0.1563109959537  0.6571671972684 1.0
C      1  0.3428346521659  0.8436902092076  0.4078105958206 1.0
C      1  0.5921892735221  0.1563112381080  0.3428330198607 1.0
C      1  0.6571682254412  0.8436870270754  0.5921896606588 1.0
C      1  0.3435803387565  0.3941234441831  0.4295806228546 1.0
C      1  0.5704198710682  0.6058767291539  0.3435798425375 1.0
C      1  0.6564201784130  0.3941220936790  0.5704193719676 1.0
C      1  0.4295817314793  0.6058768574524  0.6564192334140 1.0
C      1  0.7236740082758  0.6932078253970  0.5118287125121 1.0
C      1  0.4881716882675  0.3067919652439  0.7236735992783 1.0
C      1  0.2763270368299  0.6932094400088  0.4881723830043 1.0
C      1  0.5118277348217  0.3067915001878  0.2763266003986 1.0
C      1  0.5266644774237  0.5683490111694  0.9609965174025 1.0
C      1  0.0390034869368  0.4316513119997  0.5266644626987 1.0
C      1  0.4733339249031  0.5683492338086  0.0390035275846 1.0
C      1  0.9609965142794  0.4316504708503  0.4733335652545 1.0
C      1  0.7545929442978  0.3784741990875  0.2366901708095 1.0
C      1  0.7633086294504  0.6215210328946  0.7545929032128 1.0
C      1  0.2454088194495  0.3784805772397  0.7633073718614 1.0
C      1  0.2366906200574  0.6215260780809  0.2454080116891 1.0
C      1  0.6497000369982  0.1431143317589  0.5945919896708 1.0
C      1  0.4054086906150  0.8568853954205  0.6497023678681 1.0
C      1  0.3502976115262  0.1431145837991  0.4054080191807 1.0
C      1  0.5945933548392  0.8568852406212  0.3502993463204 1.0
C      1  0.6218830387718  0.1200326997839  0.4243944385725 1.0
C      1  0.5756053844652  0.8799658186967  0.6218834148487 1.0
C      1  0.3781154446918  0.1200327337298  0.5756057194337 1.0
C      1  0.4243980537952  0.8799690469587  0.3781176967156 1.0
C      1  0.8005828640461  0.5448626043373  0.7256106167649 1.0
C      1  0.2743926306305  0.4551371740937  0.8005824545693 1.0
C      1  0.1994150711425  0.5448692464407  0.2743927738814 1.0
C      1  0.7256079075170  0.4551330685137  0.1994155343965 1.0
C      1  0.3706549035191  0.7274825113457  0.2965058050818 1.0
C      1  0.7034939427414  0.2725178452203  0.3706541717904 1.0
C      1  0.6293470936486  0.7274802771529  0.7034936339656 1.0
C      1  0.2965054791701  0.2725190489936  0.6293460176571 1.0
C      1  0.6379243322960  0.2341067567644  0.3030310708592 1.0
C      1  0.6969699069976  0.7658910550776  0.6379245029116 1.0
C      1  0.3620746763077  0.2341077385623  0.6969692765993 1.0
C      1  0.3030330534526  0.7658950486645  0.3620755174899 1.0
C      1  0.7528730673405  0.7351045241735  0.4317665917714 1.0
C      1  0.5682335535322  0.2648950577488  0.7528733167879 1.0
C      1  0.2471270003184  0.7351053976875  0.5682345442023 1.0
C      1  0.4317654876294  0.2648951989944  0.2471273379209 1.0
C      1  0.3457949576008  0.3885412162295  0.7565035446645 1.0
C      1  0.2434963748705  0.6114624010561  0.3457950385583 1.0
C      1  0.6542049859308  0.3885392700129  0.2434955780518 1.0
C      1  0.7565053325483  0.6114580250960  0.6542059219976 1.0
C      1  0.7039122495861  0.2088035245747  0.6438965070086 1.0
C      1  0.3561041816777  0.7911953268437  0.7039136781774 1.0
C      1  0.2960863123813  0.2088054686020  0.3561040243160 1.0
C      1  0.6438974615596  0.7911956638875  0.2960869225776 1.0
C      1  0.6041413572919  0.3373966687505  0.9102752267183 1.0
C      1  0.0897256409870  0.6626030902931  0.6041408961874 1.0
C      1  0.3958540297012  0.3373990581355  0.0897272652971 1.0
C      1  0.9102735804681  0.6626011392112  0.3958552004363 1.0
C      1  0.8419580782270  0.7180207583601  0.4126542862450 1.0
C      1  0.5873437234598  0.2819783317256  0.8419592642784 1.0
C      1  0.1580404893333  0.7180222454132  0.5873423376450 1.0
C      1  0.4126537898065  0.2819792409350  0.1580423519978 1.0
C      1  0.6358123351923  0.3470767055828  0.4841423088350 1.0
C      1  0.5158584058391  0.6529222166267  0.6358120717549 1.0
C      1  0.3641871623740  0.3470764317517  0.5158571260661 1.0
C      1  0.4841433184598  0.6529230016096  0.3641873540752 1.0
C      1  0.4985136963856  0.8397150176889  0.3481292954964 1.0
C      1  0.6518704630984  0.1602849029634  0.4985123150588 1.0
C      1  0.5014886274499  0.8397144385053  0.6518715213814 1.0
C      1  0.3481276501933  0.1602849670538  0.5014874449474 1.0
C      1  0.4416538640570  0.7125118669156  0.1536985650281 1.0
C      1  0.8463013424915  0.2874876851773  0.4416535550267 1.0
C      1  0.5583472486513  0.7125106537012  0.8463011197550 1.0
C      1  0.1536979988738  0.2874888112493  0.5583472184486 1.0
C      1  0.4284089330308  0.1101881475655  0.3678703615735 1.0
C      1  0.6321319090737  0.8898125509320  0.4284095830506 1.0
C      1  0.5715898983234  0.1101874127179  0.6321292724461 1.0
C      1  0.3678700296202  0.8898126801226  0.5715914552932 1.0
C      1  0.1770850325992  0.3488858176948  0.7050497542702 1.0
C      1  0.2949497210865  0.6511180482410  0.1770852149584 1.0
C      1  0.8229144679897  0.3488821989070  0.2949492244337 1.0
C      1  0.7050506297431  0.6511152072104  0.8229155787417 1.0
C      1  0.6423709322739  0.3562232659887  0.6541371790569 1.0
C      1  0.3458635977951  0.6437764674824  0.6423704000222 1.0
C      1  0.3576293101140  0.3562246665565  0.3458628936010 1.0
C      1  0.6541371001528  0.6437756213078  0.3576297945741 1.0
C      1  0.3871681143582  0.4227926507619  0.6679248484643 1.0
C      1  0.3320748174462  0.5772089249828  0.3871678782084 1.0
C      1  0.6128325971822  0.4227916725153  0.3320743824752 1.0
C      1  0.6679261775292  0.5772064615618  0.6128326862562 1.0
C      1  0.7793391987977  0.2374606244325  0.5997698033344 1.0
C      1  0.4002308416340  0.7625372644803  0.7793403618652 1.0
C      1  0.2206596814095  0.2374626982104  0.4002303767847 1.0
C      1  0.5997710992482  0.7625383678224  0.2206600704324 1.0
C      1  0.6043226597382  0.6257670825942  0.6795265042492 1.0
C      1  0.3204735649997  0.3742323348850  0.6043215434317 1.0
C      1  0.3956784062705  0.6257694043277  0.3204739332029 1.0
C      1  0.6795261021310  0.3742314223289  0.3956783025572 1.0
C      1  0.1977825257429  0.2794763056650  0.6439615454265 1.0
C      1  0.3560398750213  0.7205256766710  0.1977827134574 1.0
C      1  0.8022172479519  0.2794748210302  0.3560386856095 1.0
C      1  0.6439617290773  0.7205241345163  0.8022172022860 1.0
C      1  0.5160448759699  0.3789172546312  0.3464455913439 1.0
C      1  0.6535545192384  0.6210818566671  0.5160452260340 1.0
C      1  0.4839556993751  0.3789170374103  0.6535536988984 1.0
C      1  0.3464460812909  0.6210828774968  0.4839556294303 1.0
C      1  0.3543190204877  0.2710161472937  0.3086720522794 1.0
C      1  0.6913281663463  0.7289835637075  0.3543204137671 1.0
C      1  0.6456803814142  0.2710151411146  0.6913286711950 1.0
C      1  0.3086722740780  0.7289843959732  0.6456806733252 1.0
C      1  0.5811224597143  0.4816301568277  0.7652853967879 1.0
C      1  0.2347150125723  0.5183701719936  0.5811210147230 1.0
C      1  0.4188779337537  0.4816310549143  0.2347154062666 1.0
C      1  0.7652848061289  0.5183697900018  0.4188775458271 1.0
C      1  0.6870131004727  0.2524541667316  0.4712608876148 1.0
C      1  0.5287400599917  0.7475448584081  0.6870132788319 1.0
C      1  0.3129856499053  0.2524541994748  0.5287398740598 1.0
C      1  0.4712618362575  0.7475462263043  0.3129865366409 1.0
C      1  0.8723661572872  0.6007892258697  0.3255274362498 1.0
C      1  0.6744701670546  0.3992072708309  0.8723677298078 1.0
C      1  0.1276337374266  0.6007921816716  0.6744698717850 1.0
C      1  0.3255270177791  0.3992110265573  0.1276344326571 1.0
C      1  0.6372445026730  0.5835245653020  0.8522421570075 1.0
C      1  0.1477579829010  0.4164753803424  0.6372441280235 1.0
C      1  0.3627551501606  0.5835263746975  0.1477581408492 1.0
C      1  0.8522416113704  0.4164731936549  0.3627545986839 1.0
C      1  0.5775703068693  0.4295272341735  0.6805884030950 1.0
C      1  0.3194121532939  0.5704726253191  0.5775695982470 1.0
C      1  0.4224300005513  0.4295287201077  0.3194111816843 1.0
C      1  0.6805889746418  0.5704711614753  0.4224304364850 1.0
C      1  0.4629920499059  0.3932544539732  0.0318153070289 1.0
C      1  0.9681853144654  0.6067452931789  0.4629922571891 1.0
C      1  0.5370042308334  0.3932537761657  0.9681861961447 1.0
C      1  0.0318139962349  0.6067458729081  0.5370035979708 1.0
C      1  0.5040309819224  0.1263952714771  0.3359485234676 1.0
C      1  0.6640538638575  0.8736056607031  0.5040322930597 1.0
C      1  0.4959653881432  0.1263948817336  0.6640525848702 1.0
C      1  0.3359491659041  0.8736068329156  0.4959684145701 1.0
C      1  0.6027732874321  0.2992473863018  0.2410938214028 1.0
C      1  0.7589077543670  0.7007502370083  0.6027743533380 1.0
C      1  0.3972263272653  0.2992487945893  0.7589059759177 1.0
C      1  0.2410954097146  0.7007538225805  0.3972269478641 1.0
C      1  0.4647282776330  0.3783325779279  0.5393849246546 1.0
C      1  0.4606162867552  0.6216659923707  0.4647282397313 1.0
C      1  0.5352711349420  0.3783329663930  0.4606143760715 1.0
C      1  0.5393865616357  0.6216669416881  0.5352708644406 1.0
C      1  0.2492573986026  0.4063277350488  0.1822275174987 1.0
C      1  0.8177722451808  0.5936746819666  0.2492586435764 1.0
C      1  0.7507405335877  0.4063217116026  0.8177761828034 1.0
C      1  0.1822270897828  0.5936773301058  0.7507392010898 1.0
C      1  0.5555896711508  0.4804147673501  0.9372415309244 1.0
C      1  0.0627593105837  0.5195853503412  0.5555895714149 1.0
C      1  0.4444079540887  0.4804155070594  0.0627595712970 1.0
C      1  0.9372406299781  0.5195842867801  0.4444077948655 1.0
C      1  0.1007596877037  0.3681251672987  0.5640137443948 1.0
C      1  0.4359859658838  0.6318755790684  0.1007603392859 1.0
C      1  0.8992399211257  0.3681240203717  0.4359856311247 1.0
C      1  0.5640136995297  0.6318750383490  0.8992401338224 1.0
C      1  0.7652186403308  0.5388476764080  0.2125914504366 1.0
C      1  0.7874069731347  0.4611478213592  0.7652226858653 1.0
C      1  0.2347822465857  0.5388543286271  0.7874056642212 1.0
C      1  0.2125902305464  0.4611538693074  0.2347817430294 1.0
END
