TITL C-20935-2846-7 -5.241 3375.00 -1008.70324371 0 0 124 (C1) n - 1
REM
REM Run started: at 2020.12.19 20:29:02 in /rds/project/t2_vol4/rds-t2-cs072/BORA/CARBON/AIRSS/Generating-Clusters/Str-Search/Higher-Symm/C100-200
REM VASP from code version vasp.5.4.4.18Apr17-6-g9f103f2a35 (build Oct 11 2019 16:45:47) gamma-only
REM
REM
REM
REM
REM ./C.cell (533062f00bc710175b3da973d35f2034)
REM AIRSS Version 0.9.1 bugfix July 2018 build 013d7b7c2542+ Fri, 06 Jul 2018 19:26:36 +0100
REM compiler GCC version 4.8.5 20150623 (Red Hat 4.8.5-39)
REM options -cpp -mtune=generic -march=x86-64 -g -O0
REM seed -1559654181 1632769892 -903153726 553356264 -1378216358 -20639596 1587036024 -849202384 1916103962 -1781837825 1616676140 -868514566
REM
REM C.POTCAR (d86ddea03c3ceb6dc662c8ad6801f873)
REM 
CELL 1.54180   15.00000   15.00000   15.00000   90.00000   90.00000   90.00000
LATT -1
SFAC C  
C      1  0.7808350880570  0.6453540439710  0.7147803637215 1.0
C      1  0.7169788989408  0.7819211688065  0.6447137108745 1.0
C      1  0.6446747274180  0.7156689350311  0.7799454918325 1.0
C      1  0.7816797544502  0.3554290238232  0.2836550967993 1.0
C      1  0.2197431005777  0.3558041766334  0.7163217346489 1.0
C      1  0.2214892939284  0.6443453473607  0.2851257846463 1.0
C      1  0.7155848397536  0.2206005710765  0.3564182050590 1.0
C      1  0.2845582188354  0.2199031270965  0.6448659556693 1.0
C      1  0.2846105171587  0.7809754373297  0.3553976528057 1.0
C      1  0.6452623173446  0.2845643788175  0.2197689240983 1.0
C      1  0.3557208208216  0.2844764021514  0.7810067583861 1.0
C      1  0.3568039728660  0.7170041712967  0.2196167592314 1.0
C      1  0.7811507430013  0.7169315280297  0.6437659207631 1.0
C      1  0.7157725914625  0.6443519413321  0.7791350329208 1.0
C      1  0.6455188999427  0.7810488544302  0.7160223389019 1.0
C      1  0.7809073829480  0.2845675662797  0.3554538721348 1.0
C      1  0.2206535160984  0.7156468982177  0.3562506530080 1.0
C      1  0.2198632016099  0.2844800709719  0.6448980951378 1.0
C      1  0.7171004890366  0.3554316150409  0.2190475692634 1.0
C      1  0.2858021561805  0.6453681309401  0.2200073166087 1.0
C      1  0.2843318173201  0.3558191626467  0.7809924317112 1.0
C      1  0.6442789369141  0.2205945122784  0.2851387307143 1.0
C      1  0.3558646219243  0.7819138401430  0.2838804326720 1.0
C      1  0.3558572176269  0.2199421239964  0.7162687790441 1.0
C      1  0.5032667559346  0.6466250431540  0.2794053091112 1.0
C      1  0.2781054808969  0.5034400722213  0.6464481928551 1.0
C      1  0.6450952973315  0.2819453557643  0.5016756475346 1.0
C      1  0.5032926501481  0.3545479436041  0.7227245091759 1.0
C      1  0.4995545982454  0.3554946900492  0.2773165682260 1.0
C      1  0.4988837244374  0.6453493922905  0.7193706716170 1.0
C      1  0.2818720735630  0.4990575294714  0.3559125958006 1.0
C      1  0.7231982582460  0.4994761239016  0.6451819407661 1.0
C      1  0.7248761638833  0.5042824194342  0.3524239915095 1.0
C      1  0.6475091888264  0.7246183522679  0.4979097322229 1.0
C      1  0.3546046979961  0.7238987769833  0.5016939297037 1.0
C      1  0.3546425680970  0.2784197209910  0.4973686707747 1.0
C      1  0.5034441824277  0.2785057613824  0.6462971428025 1.0
C      1  0.2813423380905  0.6452537288043  0.5020569412604 1.0
C      1  0.6484789481398  0.5042729680266  0.2761444614567 1.0
C      1  0.5028196921694  0.7247123984806  0.3532806414955 1.0
C      1  0.4991201057353  0.2820322306214  0.3557031259213 1.0
C      1  0.4991521029661  0.7240351636440  0.6461116096049 1.0
C      1  0.2783055131175  0.3545451770349  0.4974616014266 1.0
C      1  0.7213094922342  0.6465181426876  0.4974424854684 1.0
C      1  0.7234272576643  0.3555036481484  0.5011833465677 1.0
C      1  0.6449797933039  0.4990051038250  0.7188091614060 1.0
C      1  0.3543618525080  0.5034532022248  0.7227391886567 1.0
C      1  0.3555814050205  0.4996186160088  0.2777155982008 1.0
C      1  0.5011148874562  0.6487131148234  0.4267225070294 1.0
C      1  0.4275879341519  0.5011556623358  0.6464600873732 1.0
C      1  0.6480424467518  0.4293561774850  0.4988295036303 1.0
C      1  0.5010591000547  0.3548384243675  0.5730015585816 1.0
C      1  0.5015421465363  0.3579896108182  0.4275885197093 1.0
C      1  0.5010102253277  0.6486197849325  0.5723321271394 1.0
C      1  0.4290491399175  0.5013957508752  0.3537748680077 1.0
C      1  0.5727411569932  0.5012930913379  0.6432450537570 1.0
C      1  0.5751608036227  0.5023950778581  0.3523951051110 1.0
C      1  0.6461552605908  0.5741707580475  0.4998945981535 1.0
C      1  0.3573904089733  0.5734097267605  0.4997831623160 1.0
C      1  0.3544739872697  0.4278883283378  0.5000116291903 1.0
C      1  0.5007750554832  0.4278542152054  0.6464413760719 1.0
C      1  0.4284439823293  0.6485663460679  0.4997613469325 1.0
C      1  0.6485246223887  0.5023702094264  0.4256474959430 1.0
C      1  0.5009060311899  0.5742566112462  0.3546537086705 1.0
C      1  0.5019210802619  0.4293951304562  0.3528171862341 1.0
C      1  0.5010539746291  0.5734054531556  0.6433517312886 1.0
C      1  0.4278685782943  0.3548384775874  0.4997264063268 1.0
C      1  0.5740407288961  0.6486472922782  0.4996202583562 1.0
C      1  0.5732663015145  0.3579586916069  0.4993586047699 1.0
C      1  0.6471027439081  0.5012518552174  0.5717411501420 1.0
C      1  0.3543994874933  0.5011590277830  0.5732477937878 1.0
C      1  0.3574882643019  0.5013726605737  0.4281004415846 1.0
C      1  0.4232388326598  0.2211438078328  0.6442649552606 1.0
C      1  0.6458165450058  0.4234133484203  0.2193070354607 1.0
C      1  0.2209197471397  0.6436771086944  0.4241283240471 1.0
C      1  0.4233644820133  0.7825295036587  0.3557214924033 1.0
C      1  0.5781628463379  0.7823074377662  0.6441167334018 1.0
C      1  0.5765346088687  0.2211475648185  0.3571901263961 1.0
C      1  0.6437247125986  0.5765552388236  0.7794721983901 1.0
C      1  0.3580883621694  0.5784929924854  0.2195312486990 1.0
C      1  0.3563828204595  0.4231552479089  0.7800014764192 1.0
C      1  0.2210139436319  0.3565634319997  0.5776627107039 1.0
C      1  0.7816338269429  0.3571757758733  0.4222642302917 1.0
C      1  0.7817321854158  0.6452575856819  0.5754919058122 1.0
C      1  0.4251348224503  0.6453680079760  0.2190074147930 1.0
C      1  0.6435797646379  0.2211565200220  0.4241699070035 1.0
C      1  0.2209131116067  0.4231226783140  0.6443120287655 1.0
C      1  0.4229777712384  0.3565514347381  0.7799049706211 1.0
C      1  0.5768189399348  0.6436700156313  0.7797066327674 1.0
C      1  0.5784761213490  0.3572210137520  0.2191127896625 1.0
C      1  0.6450615799447  0.7825491825681  0.5772973993118 1.0
C      1  0.3566902819317  0.2211921613859  0.5776339057098 1.0
C      1  0.3566006507975  0.7821197708957  0.4226668362608 1.0
C      1  0.2211468226112  0.5765536060205  0.3571861449197 1.0
C      1  0.7815290616041  0.4233826376698  0.3549827525635 1.0
C      1  0.7813064365011  0.5784221589317  0.6425742236737 1.0
C      1  0.5999474597692  0.2491631647653  0.6735738933031 1.0
C      1  0.6755266776025  0.6011307355888  0.2470153631257 1.0
C      1  0.2688999041920  0.6615780916395  0.6031810101117 1.0
C      1  0.6021443954993  0.7487629437581  0.3258631935987 1.0
C      1  0.3999434160574  0.7480836712031  0.6738484506139 1.0
C      1  0.3981359755931  0.2695849708069  0.3393608580813 1.0
C      1  0.6612126260776  0.3980189568503  0.7311234415736 1.0
C      1  0.3277280992084  0.4005969965771  0.2531404871586 1.0
C      1  0.3270392434012  0.5998764762476  0.7523681372195 1.0
C      1  0.2486268431614  0.3271415214994  0.4009632500950 1.0
C      1  0.7475259025947  0.3279842215913  0.6002633186087 1.0
C      1  0.7333165959401  0.6627057174370  0.3961919673025 1.0
C      1  0.6045627986597  0.6629100999680  0.2673335213527 1.0
C      1  0.6616081030481  0.2692096387640  0.6026651126726 1.0
C      1  0.2482593491159  0.5997885281471  0.6738786595938 1.0
C      1  0.5997623720955  0.3270867228996  0.7528332290464 1.0
C      1  0.3977502657366  0.6617109272743  0.7319767745918 1.0
C      1  0.4004991072311  0.3277517713616  0.2530286477222 1.0
C      1  0.6750533598995  0.7487230105314  0.3986242089878 1.0
C      1  0.3272049723014  0.2486861264728  0.4009215196631 1.0
C      1  0.3268725707377  0.7480597502215  0.6009221561251 1.0
C      1  0.2695368049862  0.3981136850197  0.3394526162985 1.0
C      1  0.7544141637338  0.6010069077631  0.3252448019328 1.0
C      1  0.7479871010307  0.4005052274271  0.6734087271560 1.0
C      1  0.6530899993064  0.3644829529069  0.6360152660791 1.0
C      1  0.3645055263058  0.6536002495524  0.6364424747980 1.0
C      1  0.6378174319360  0.6537808217196  0.3628114470113 1.0
C      1  0.3646624433917  0.3646502128318  0.3478683285143 1.0
END
