TITL C-206338-5033-8 -8.231 3375.00 -1514.70275913 0 0 186 (Ci) n - 1
REM
REM Run started: at 2020.12.01 17:28:10 in /rds/project/t2_vol4/rds-t2-cs072/BORA/CARBON/AIRSS/Generating-Clusters/Str-Search/Higher-Symm/C100-200
REM VASP from code version vasp.5.4.4.18Apr17-6-g9f103f2a35 (build Oct 11 2019 16:45:47) gamma-only
REM
REM
REM
REM
REM ./C.cell (533062f00bc710175b3da973d35f2034)
REM AIRSS Version 0.9.1 bugfix July 2018 build 013d7b7c2542+ Fri, 06 Jul 2018 19:26:36 +0100
REM compiler GCC version 4.8.5 20150623 (Red Hat 4.8.5-39)
REM options -cpp -mtune=generic -march=x86-64 -g -O0
REM seed 1053397985 -1567144603 1375092931 -1933445817 273843859 424977894 -811189353 486607242 -1726804807 -1505469288 -72750355 -183878255
REM
REM C.POTCAR (d86ddea03c3ceb6dc662c8ad6801f873)
REM 
CELL 1.54180   15.00000   15.00000   15.00000   90.00000   90.00000   90.00000
LATT -1
SFAC C  
C      1  0.4760496817147  0.5427695428625  0.6253184793311 1.0
C      1  0.5425733699287  0.5556797231156  0.3904350271684 1.0
C      1  0.5500360732562  0.4748434223861  0.6202804921435 1.0
C      1  0.5239509492164  0.4572306866638  0.3746817678920 1.0
C      1  0.4574277729154  0.4443226757306  0.6095620698761 1.0
C      1  0.4499589753764  0.5251473926515  0.3797134507434 1.0
C      1  0.8058859437761  0.6255351976596  0.2163876215544 1.0
C      1  0.7291889608510  0.2679409860142  0.7949859816032 1.0
C      1  0.4613922004340  0.2221594872121  0.1678151893359 1.0
C      1  0.1941181937949  0.3744702795838  0.7836191198383 1.0
C      1  0.2708120322254  0.7320539862980  0.2050090357420 1.0
C      1  0.5385979652678  0.7778366598556  0.8321862926192 1.0
C      1  0.4671324604618  0.3668854899577  0.1406089351752 1.0
C      1  0.3104437512308  0.4405825165250  0.8363203530293 1.0
C      1  0.3899698864674  0.6647001213822  0.1781823645880 1.0
C      1  0.5328672168832  0.6331226647937  0.8593813058005 1.0
C      1  0.6895658512842  0.5594194081902  0.1636833657025 1.0
C      1  0.6100269493509  0.3352891213840  0.8218127370242 1.0
C      1  0.5424889098016  0.3797995789420  0.7667385447245 1.0
C      1  0.4525978405297  0.4298087274998  0.2197514713412 1.0
C      1  0.3865271870097  0.5013200841592  0.8450496360023 1.0
C      1  0.4575103432390  0.6201982882297  0.2332632781649 1.0
C      1  0.5474038216741  0.5701858684828  0.7802460791265 1.0
C      1  0.6134807324715  0.4986792832962  0.1549440360224 1.0
C      1  0.4627932296444  0.1369067575140  0.4575783143000 1.0
C      1  0.1663209634407  0.3509487209981  0.4848293375003 1.0
C      1  0.2012189736485  0.7160416684069  0.4953154668724 1.0
C      1  0.5372114667121  0.8630961575647  0.5424348553667 1.0
C      1  0.8336720951966  0.6490521855683  0.5151701548099 1.0
C      1  0.7987807168790  0.2839586633384  0.5046851671290 1.0
C      1  0.8255767908365  0.6958954677563  0.6019557603383 1.0
C      1  0.8460055521791  0.3223197256554  0.4264018472898 1.0
C      1  0.5074245125431  0.1079957270313  0.5407873218932 1.0
C      1  0.1744267028166  0.3041058274282  0.3980457946751 1.0
C      1  0.1539899049170  0.6776843742080  0.5735952903145 1.0
C      1  0.4925735254349  0.8920068342857  0.4592186955895 1.0
C      1  0.5635896168892  0.7929453607004  0.3163426913532 1.0
C      1  0.7637350310703  0.5733598255880  0.7276164282613 1.0
C      1  0.7299420359794  0.3216810951086  0.2872651360475 1.0
C      1  0.4364092964652  0.2070566750601  0.6836564911066 1.0
C      1  0.2362670252215  0.4266352083283  0.2723839470897 1.0
C      1  0.2700461179210  0.6783204543144  0.7127354857179 1.0
C      1  0.7816204428661  0.4658371588055  0.4703703657831 1.0
C      1  0.6088574707864  0.2344148848985  0.5192768637261 1.0
C      1  0.3312632535812  0.2787613117475  0.4345055957595 1.0
C      1  0.2183753401421  0.5341597586399  0.5296295754426 1.0
C      1  0.3911398843679  0.7655881398770  0.4807275921012 1.0
C      1  0.6687384575966  0.7212370183692  0.5654992479253 1.0
C      1  0.4137146999266  0.2667270289260  0.7647759488978 1.0
C      1  0.2863487803091  0.4807884428352  0.2014530846179 1.0
C      1  0.3301697297077  0.6551520984103  0.7896071547346 1.0
C      1  0.5862879205148  0.7332731885480  0.2352265541102 1.0
C      1  0.7136522931615  0.5192056792805  0.7985412708380 1.0
C      1  0.6698280330239  0.3448368638697  0.2103833284583 1.0
C      1  0.4079186640594  0.2644018791326  0.5531689748691 1.0
C      1  0.2582118436321  0.4700315367224  0.4096844885948 1.0
C      1  0.3402526867077  0.6883602002118  0.5867346420718 1.0
C      1  0.5920790437510  0.7355968641021  0.4468320800519 1.0
C      1  0.7417927740816  0.5299673225760  0.5903139086792 1.0
C      1  0.6597422572764  0.3116386269435  0.4132659715597 1.0
C      1  0.5591365057850  0.5682142900150  0.0165183315679 1.0
C      1  0.5184123551835  0.5711728102129  0.9382317878260 1.0
C      1  0.5532291433432  0.5032250068326  0.0816477164891 1.0
C      1  0.4408723796287  0.4318060762266  0.9834683863822 1.0
C      1  0.4816033568992  0.4288184231933  0.0617768465840 1.0
C      1  0.4467832477007  0.4967774489025  0.9183513105146 1.0
C      1  0.4079298922828  0.5181925616530  0.4740911214565 1.0
C      1  0.4647803863353  0.5860448366062  0.5310821371451 1.0
C      1  0.5605473751443  0.5742314453538  0.4896962319609 1.0
C      1  0.5920726749027  0.4818094248917  0.5259031042718 1.0
C      1  0.5352149600569  0.4139600023470  0.4689160145698 1.0
C      1  0.4394545789585  0.4257725979096  0.5103021739047 1.0
C      1  0.2326533796603  0.4627006777551  0.7849638844947 1.0
C      1  0.3652268400564  0.7492824990274  0.2165345850271 1.0
C      1  0.6015184627030  0.7064866362631  0.8290309800059 1.0
C      1  0.7673599366327  0.5373024475348  0.2150372184577 1.0
C      1  0.6347725009147  0.2507125719406  0.7834573069908 1.0
C      1  0.3984713244513  0.2935101758949  0.1709779249929 1.0
C      1  0.7534644687887  0.4322937146949  0.7997723525425 1.0
C      1  0.6131492219787  0.2702547243216  0.1952395583632 1.0
C      1  0.3189674810399  0.2723529106401  0.7728654019461 1.0
C      1  0.2465360039806  0.5676956278359  0.2002233340020 1.0
C      1  0.3868457628165  0.7297381938919  0.8047696200968 1.0
C      1  0.6810335070994  0.7276468868160  0.2271327215432 1.0
C      1  0.6196099229103  0.5156324054916  0.7693658956975 1.0
C      1  0.6114699789166  0.4229945441900  0.2200352121347 1.0
C      1  0.4542538325339  0.3558774118394  0.7503282456835 1.0
C      1  0.3803884373995  0.4843689396583  0.2306312084210 1.0
C      1  0.3885269929516  0.5769988941498  0.7799558844586 1.0
C      1  0.5457457820853  0.6441230928807  0.2496711418022 1.0
C      1  0.3237190866396  0.3084082750155  0.3378127697312 1.0
C      1  0.2276914720542  0.5468547754454  0.6294598784500 1.0
C      1  0.4187945181544  0.7729318313763  0.3843162110459 1.0
C      1  0.6762873248450  0.6915901818972  0.6621887630092 1.0
C      1  0.7723078945143  0.4531451070626  0.3705397336630 1.0
C      1  0.5812000595679  0.2270685831859  0.6156827557544 1.0
C      1  0.3026865432916  0.7107995099789  0.4935001157107 1.0
C      1  0.5809910738749  0.7718041967810  0.5435386730372 1.0
C      1  0.7788209706515  0.5649570139719  0.5008633243295 1.0
C      1  0.6973128757769  0.2892031615821  0.5065024849976 1.0
C      1  0.4190134516263  0.2281986745239  0.4564706797652 1.0
C      1  0.2211854094554  0.4350413073602  0.4991404862042 1.0
C      1  0.4047604947344  0.4020817721298  0.6789770155729 1.0
C      1  0.4046079297987  0.5635650128306  0.2984482425091 1.0
C      1  0.4747850942409  0.5911408736875  0.7150559833060 1.0
C      1  0.5952408713899  0.5979230665422  0.3210240663814 1.0
C      1  0.5953900477110  0.4364259639761  0.7015515136881 1.0
C      1  0.5252207422798  0.4088658069658  0.2849434674245 1.0
C      1  0.5094109928516  0.1557882682750  0.6272630615413 1.0
C      1  0.2264904151874  0.3343120545347  0.3189274137351 1.0
C      1  0.1958084223701  0.6409914185461  0.6544408900009 1.0
C      1  0.4905920307430  0.8442119643922  0.3727447250240 1.0
C      1  0.7735107180194  0.6656888987955  0.6810722899890 1.0
C      1  0.8041885065081  0.3590165290052  0.3455552569245 1.0
C      1  0.8258224471246  0.6330164688190  0.3078722781450 1.0
C      1  0.7570951457142  0.2629274248492  0.7055191530317 1.0
C      1  0.4543264193119  0.1804809064537  0.2539086494107 1.0
C      1  0.1741913462386  0.3669882745797  0.6921310646291 1.0
C      1  0.2429010498579  0.7370652320121  0.2944771407748 1.0
C      1  0.5456666915430  0.8195292948024  0.7460974737717 1.0
C      1  0.5326200597817  0.2827526836988  0.1478876440560 1.0
C      1  0.2791031741397  0.3428804964966  0.8225199095661 1.0
C      1  0.2928863787553  0.6426641046871  0.1669690363764 1.0
C      1  0.4673723741478  0.7172378028473  0.8521156942253 1.0
C      1  0.7209040139212  0.6571217801839  0.1774804858737 1.0
C      1  0.7071145945691  0.3573270951918  0.8330291910621 1.0
C      1  0.3678808407124  0.3491148252092  0.5102484622707 1.0
C      1  0.3067098549003  0.5427071421059  0.4645470752446 1.0
C      1  0.4337458825796  0.6858246353132  0.5451235880538 1.0
C      1  0.6321185993608  0.6508822176063  0.4897526351617 1.0
C      1  0.6932933405726  0.4572928561248  0.5354508679991 1.0
C      1  0.5662513888972  0.3141792720526  0.4548834524954 1.0
C      1  0.1908065442019  0.5800403082772  0.2846112793090 1.0
C      1  0.3834314108719  0.7920062900403  0.7254452470638 1.0
C      1  0.7195557811691  0.7556477396335  0.3185167927986 1.0
C      1  0.8091947327486  0.4199565054971  0.7153845575812 1.0
C      1  0.6165612533598  0.2079946728405  0.2745562585402 1.0
C      1  0.2804400361570  0.2443569992584  0.6814831887626 1.0
C      1  0.2024665419681  0.2867829069749  0.6418880526407 1.0
C      1  0.1838691681471  0.6661472986340  0.3308445629870 1.0
C      1  0.4637541001948  0.8408720031974  0.6970154894774 1.0
C      1  0.7975360756233  0.7132219339249  0.3581121536073 1.0
C      1  0.8161269942260  0.3338490989376  0.6691508138838 1.0
C      1  0.5362395041983  0.1591375168774  0.3029879722657 1.0
C      1  0.3205165248997  0.7535266912534  0.6669076583189 1.0
C      1  0.6472286242759  0.7848095870446  0.3709346278576 1.0
C      1  0.8037391434071  0.5013367623197  0.6700284765967 1.0
C      1  0.6794744181046  0.2464755353108  0.3330932754965 1.0
C      1  0.3527683566686  0.2151910860973  0.6290700690555 1.0
C      1  0.1962724322580  0.4986625858153  0.3299711476999 1.0
C      1  0.4784635292242  0.3194547597233  0.3201350953259 1.0
C      1  0.3138709843403  0.4168470416773  0.6456485695198 1.0
C      1  0.3518354995977  0.6393685005319  0.3448570126747 1.0
C      1  0.5215351074462  0.6805434557922  0.6798673451338 1.0
C      1  0.6861300939219  0.5831538127235  0.3543516929289 1.0
C      1  0.6481665821474  0.3606333151434  0.6551428729995 1.0
C      1  0.7667541549139  0.7388702100265  0.5355961556200 1.0
C      1  0.8434628873373  0.3882358816208  0.4999253425530 1.0
C      1  0.5740307596051  0.1455739867432  0.4780001956839 1.0
C      1  0.2332442413804  0.2611273929974  0.4644059963731 1.0
C      1  0.1565351323478  0.6117641351206  0.5000732115858 1.0
C      1  0.4259692693686  0.8544248506927  0.5220004709180 1.0
C      1  0.6473125066345  0.2630887016127  0.6833619338873 1.0
C      1  0.3988302951937  0.2780661841110  0.2743679305041 1.0
C      1  0.2315486093000  0.4617724307078  0.6848747018252 1.0
C      1  0.3526845374916  0.7369115484499  0.3166294440882 1.0
C      1  0.6011663462254  0.7219366904940  0.7256321478521 1.0
C      1  0.7684543629363  0.5382272006330  0.3151260229501 1.0
C      1  0.2987530907357  0.6156135331020  0.6399009641779 1.0
C      1  0.5139724945642  0.7430763857352  0.3847841986603 1.0
C      1  0.7014608320062  0.5955879060680  0.6537981421217 1.0
C      1  0.7012388034545  0.3843915774787  0.3600969477549 1.0
C      1  0.4860214415318  0.2569326162784  0.6152183680457 1.0
C      1  0.2985458950272  0.4044060983942  0.3462011980327 1.0
C      1  0.8412924361843  0.3310310705861  0.5793871152702 1.0
C      1  0.5331571120927  0.1268805957830  0.3909765113369 1.0
C      1  0.1874554128867  0.2805463083620  0.5491930245205 1.0
C      1  0.1587112797336  0.6689663649950  0.4206075583317 1.0
C      1  0.4668402257696  0.8731183049504  0.6090301615969 1.0
C      1  0.8125450830523  0.7194561758027  0.4508063508111 1.0
C      1  0.4875557365702  0.2862740656871  0.4042987721310 1.0
C      1  0.2981673242926  0.4001017011534  0.5566586296473 1.0
C      1  0.3197406306083  0.6328855323779  0.4292172997914 1.0
C      1  0.5124393402870  0.7137264975571  0.5957014597144 1.0
C      1  0.7018351141244  0.5998977626523  0.4433409400430 1.0
C      1  0.6802557611844  0.3671179168091  0.5707818799459 1.0
END
