TITL C-200820-5237-5 -7.671 3375.00 -1325.71238863 0 0 163 (C1) n - 1
REM
REM Run started: at 2021.01.02 19:14:33 in /rds/project/t2_vol4/rds-t2-cs072/BORA/CARBON/AIRSS/Generating-Clusters/Str-Search/Higher-Symm/C100-200
REM VASP from code version vasp.5.4.4.18Apr17-6-g9f103f2a35 (build Oct 11 2019 16:45:47) gamma-only
REM
REM
REM
REM
REM ./C.cell (533062f00bc710175b3da973d35f2034)
REM AIRSS Version 0.9.1 bugfix July 2018 build 013d7b7c2542+ Fri, 06 Jul 2018 19:26:36 +0100
REM compiler GCC version 4.8.5 20150623 (Red Hat 4.8.5-39)
REM options -cpp -mtune=generic -march=x86-64 -g -O0
REM seed 1707941856 -1458419353 1542193517 -254699686 -206010042 -1602765718 -1768066271 542572806 -1783167450 2028939462 636035036 251117833
REM
REM C.POTCAR (d86ddea03c3ceb6dc662c8ad6801f873)
REM 
CELL 1.54180   15.00000   15.00000   15.00000   90.00000   90.00000   90.00000
LATT -1
SFAC C  
C      1  0.0481936668474  0.6559915704092  0.5881359644802 1.0
C      1  0.2292221322838  0.6304329140532  0.8760018580623 1.0
C      1  0.5618389259344  0.6570353724946  0.9664880571696 1.0
C      1  0.8275765404615  0.6880323087877  0.8465548746656 1.0
C      1  0.9654753270737  0.6562813689778  0.5700724433453 1.0
C      1  0.8919850789050  0.6692033576493  0.2293181861708 1.0
C      1  0.6034606197891  0.6546197297800  0.0399839034808 1.0
C      1  0.3310387884362  0.6411017719414  0.0641191816697 1.0
C      1  0.0718982411630  0.6531846025978  0.3153515937615 1.0
C      1  0.3280102235498  0.4149458004083  0.4291281252538 1.0
C      1  0.2921485156326  0.4332057159525  0.5139466004370 1.0
C      1  0.3354219315022  0.4191452973036  0.5950240998026 1.0
C      1  0.4966158739664  0.4573908445967  0.7080388975433 1.0
C      1  0.5965238406715  0.4413980725123  0.7056442171927 1.0
C      1  0.6912363757847  0.4693478080557  0.5270077736802 1.0
C      1  0.7147047348216  0.4231764239342  0.4388947537171 1.0
C      1  0.5746041889739  0.4267343526084  0.2948083688481 1.0
C      1  0.4805515997905  0.4257318803891  0.2864897546600 1.0
C      1  0.4048996056668  0.5872243170471  0.6203113782806 1.0
C      1  0.4892129293036  0.5547375945567  0.6732628943074 1.0
C      1  0.5742377960746  0.6120287021568  0.6500344414285 1.0
C      1  0.6426593309852  0.6161606965971  0.5687010514796 1.0
C      1  0.6401451082474  0.5947452566702  0.4114586084079 1.0
C      1  0.5654653194647  0.5991033235700  0.3403996638006 1.0
C      1  0.4591354030428  0.5950744738824  0.3428407607687 1.0
C      1  0.3792836236446  0.5957063847266  0.4156695559215 1.0
C      1  0.3574291947431  0.5944059525028  0.5194754871346 1.0
C      1  0.2447211064652  0.4240583448051  0.2924542045593 1.0
C      1  0.1415790009834  0.4338615259925  0.5053107028667 1.0
C      1  0.2503628291300  0.4195079026941  0.7305641709477 1.0
C      1  0.4208879111880  0.4169902253632  0.8505870301375 1.0
C      1  0.6582941223103  0.4243741707230  0.7820072254071 1.0
C      1  0.8085718714606  0.4355607174516  0.6290489683394 1.0
C      1  0.8006857716018  0.4069873333412  0.3942235520843 1.0
C      1  0.6648128326247  0.4175779410669  0.1887881543282 1.0
C      1  0.4284205745708  0.4204750748206  0.1505745130166 1.0
C      1  0.6645994095348  0.1657080027099  0.6419446550036 1.0
C      1  0.7195161006313  0.1582049851732  0.4972140562504 1.0
C      1  0.6691565987360  0.1497757430366  0.3508438841429 1.0
C      1  0.5358115008976  0.1510950040039  0.2729148677622 1.0
C      1  0.3846916404431  0.1602911627011  0.3013823004146 1.0
C      1  0.2835239957880  0.1664125727175  0.4198168635511 1.0
C      1  0.2819087863110  0.1637060300926  0.5751484091122 1.0
C      1  0.3800817531078  0.1522160143250  0.6943915783042 1.0
C      1  0.5322729743409  0.1595791690870  0.7207396733659 1.0
C      1  0.1945053370711  0.7167476612745  0.4189943782376 1.0
C      1  0.2183880364191  0.6831608894723  0.6385315651216 1.0
C      1  0.3715849672585  0.7015052536437  0.7959248623706 1.0
C      1  0.5931115057504  0.7098327119345  0.8118121702770 1.0
C      1  0.7714562658034  0.7398913188181  0.6851844779112 1.0
C      1  0.8206798151433  0.6861812364507  0.4751865796415 1.0
C      1  0.7285508825593  0.7031011282624  0.2683342726683 1.0
C      1  0.5228276209997  0.7014087630258  0.1754996412063 1.0
C      1  0.3100642749746  0.6809621050665  0.2426668428916 1.0
C      1  0.4447165654130  0.2507191589550  0.1721103771834 1.0
C      1  0.2484372962891  0.2554204135843  0.2820697263139 1.0
C      1  0.1695355214133  0.2648163366667  0.4992818181868 1.0
C      1  0.2505908997114  0.2505440634009  0.7184339559504 1.0
C      1  0.4261492935343  0.2499115140530  0.8188393251140 1.0
C      1  0.6549210829151  0.2600464736282  0.7810883585679 1.0
C      1  0.7921509783889  0.2667964650666  0.6064374503336 1.0
C      1  0.8047280628497  0.2444068599266  0.3830076628799 1.0
C      1  0.6574777153783  0.2474909023851  0.2121591762844 1.0
C      1  0.7546398055283  0.5008095257579  0.6002291680024 1.0
C      1  0.7639882740372  0.4881232799898  0.3776354043940 1.0
C      1  0.6321344893911  0.4853351733785  0.2431733388604 1.0
C      1  0.4373994695962  0.4816089943766  0.2199284369500 1.0
C      1  0.2864245951790  0.4709161149782  0.3561669845617 1.0
C      1  0.2121150775795  0.4897617040176  0.5106056983826 1.0
C      1  0.3000582205308  0.4732174500017  0.6738023292576 1.0
C      1  0.4531953656593  0.4828204469336  0.7956531124025 1.0
C      1  0.6565160449490  0.5074266356915  0.7495626988899 1.0
C      1  0.2869814149334  0.5679096512036  0.3810930790684 1.0
C      1  0.2485965073598  0.5780062558205  0.4843494706537 1.0
C      1  0.3245624054666  0.5633870905795  0.6779065008681 1.0
C      1  0.4597895668391  0.5734725265053  0.7736283972318 1.0
C      1  0.6615477251398  0.5996461893320  0.7122096948931 1.0
C      1  0.7273862594252  0.5945092737208  0.6280907060743 1.0
C      1  0.7385709306041  0.5748779654087  0.3871458301846 1.0
C      1  0.6139968822235  0.5766407842161  0.2534512601344 1.0
C      1  0.4453421751605  0.5718792713221  0.2418028958723 1.0
C      1  0.2672501833952  0.7100480659309  0.5638197573103 1.0
C      1  0.3613253893978  0.7103148874783  0.7046422823944 1.0
C      1  0.5242163238626  0.7185087087156  0.7520270224341 1.0
C      1  0.6801052147511  0.7585381866978  0.6832315689668 1.0
C      1  0.7512026392119  0.7145078667758  0.5285365573557 1.0
C      1  0.7117916491592  0.7187328352634  0.3586448365655 1.0
C      1  0.5710006879257  0.7235524444327  0.2525289997998 1.0
C      1  0.3944173292196  0.7103850286566  0.2675862831043 1.0
C      1  0.2814951115419  0.7210947744383  0.3882007791683 1.0
C      1  0.3622230948245  0.9161181956357  0.5190409102647 1.0
C      1  0.4072347274662  0.9104885308318  0.5956686786062 1.0
C      1  0.4885060971407  0.8845377219143  0.6003728654507 1.0
C      1  0.5719859533121  0.8551582291587  0.5764349225134 1.0
C      1  0.5933403087147  0.8853325580288  0.4894471811441 1.0
C      1  0.5561235408744  0.9060512752327  0.4170640555496 1.0
C      1  0.4946934192553  0.9159384387139  0.3504885898039 1.0
C      1  0.4149931735292  0.9241323573018  0.3818824118353 1.0
C      1  0.3447771166704  0.9323011503764  0.4363396323154 1.0
C      1  0.4711209981188  0.3661614415375  0.3604861500470 1.0
C      1  0.4047128773542  0.3574773442488  0.4269784547331 1.0
C      1  0.4364909667772  0.3226491189858  0.5074688899634 1.0
C      1  0.4131294228810  0.3636442488941  0.5883345618383 1.0
C      1  0.4866908745854  0.3843672742622  0.6417218049851 1.0
C      1  0.5793541183981  0.3881876724906  0.6208991662033 1.0
C      1  0.6233234502777  0.3947004207048  0.5396695323680 1.0
C      1  0.6277056845371  0.3743935969359  0.4449219799374 1.0
C      1  0.5688797905589  0.3682026409446  0.3740546887694 1.0
C      1  0.4530969869437  0.1847977848016  0.2361483295427 1.0
C      1  0.2959153443993  0.1910518432575  0.3266904560426 1.0
C      1  0.2324657056852  0.1974259195807  0.4976199472088 1.0
C      1  0.2926545825325  0.1858483367461  0.6694418283319 1.0
C      1  0.4454985971602  0.1843449305175  0.7583669584223 1.0
C      1  0.6230107503742  0.1924628094551  0.7248435462105 1.0
C      1  0.7381717734257  0.1951442892702  0.5860511811291 1.0
C      1  0.7422573784858  0.1797644182251  0.4058298517292 1.0
C      1  0.6277987625363  0.1799555502446  0.2675943269208 1.0
C      1  0.6021106461553  0.6748226265255  0.1264203549667 1.0
C      1  0.3354736522993  0.6568030386364  0.1499603391292 1.0
C      1  0.1544330431526  0.6710979392044  0.3368602143410 1.0
C      1  0.1369401713450  0.6633091470334  0.5858758283713 1.0
C      1  0.2829214289147  0.6613464161132  0.8136697393141 1.0
C      1  0.5389733944975  0.6753725199557  0.8832223869046 1.0
C      1  0.7748634769917  0.7066322852837  0.7794151871763 1.0
C      1  0.8784423110491  0.6651468725171  0.5533674955513 1.0
C      1  0.8235169819995  0.6722199319359  0.2857224950955 1.0
C      1  0.6323895965503  0.1166645423312  0.4983332296657 1.0
C      1  0.6009066886338  0.1120727452748  0.4084113630790 1.0
C      1  0.5192176268804  0.1142039692396  0.3612979472378 1.0
C      1  0.4259459556398  0.1204014287678  0.3778328432880 1.0
C      1  0.3639368723991  0.1239698343546  0.4500755487974 1.0
C      1  0.3631787195907  0.1224498242684  0.5448988922676 1.0
C      1  0.4240069755222  0.1155780273429  0.6180165561573 1.0
C      1  0.5176756350669  0.1177420378533  0.6347853145420 1.0
C      1  0.5992051879203  0.1200080470470  0.5867897641846 1.0
C      1  0.6687279134942  0.3296868468959  0.1952212392397 1.0
C      1  0.4341663719069  0.3324323786653  0.1524285687309 1.0
C      1  0.2395820824835  0.3387204493990  0.2745249346421 1.0
C      1  0.1429934285893  0.3448228706725  0.5048442854825 1.0
C      1  0.2380405796645  0.3335945926925  0.7304318778246 1.0
C      1  0.4253143139654  0.3306221123546  0.8461899126446 1.0
C      1  0.6725500380883  0.3364157875565  0.8086052948367 1.0
C      1  0.8113256208912  0.3480414711209  0.6193344575206 1.0
C      1  0.8311832185242  0.3226915131837  0.3747480921012 1.0
C      1  0.7925794773817  0.6619747193838  0.3829990533116 1.0
C      1  0.6503076328288  0.6700426289078  0.2160242621170 1.0
C      1  0.4350409878279  0.6606671720898  0.1904357437483 1.0
C      1  0.2541595414350  0.6524233527245  0.3186777868276 1.0
C      1  0.1975228666354  0.6696061950433  0.5043184729347 1.0
C      1  0.2787414550989  0.6506683119603  0.7098530779821 1.0
C      1  0.4620627982140  0.6673030317492  0.8147860874133 1.0
C      1  0.6744440387105  0.6951099654831  0.7631900547988 1.0
C      1  0.7947824522659  0.6798453847099  0.6113365880099 1.0
C      1  0.6512236863131  0.7116858293613  0.5265547495606 1.0
C      1  0.6320320988246  0.7008905782461  0.4185006019362 1.0
C      1  0.5504184377548  0.7056790746993  0.3471201826635 1.0
C      1  0.4456861894447  0.7017142357925  0.3520768056468 1.0
C      1  0.3712449035744  0.7029588768941  0.4274561098223 1.0
C      1  0.3621895395313  0.6981606660164  0.5348265310896 1.0
C      1  0.4218756593697  0.6916353809396  0.6249492137775 1.0
C      1  0.5289200253191  0.7065949348828  0.6530809171818 1.0
C      1  0.6077309084224  0.7659709137620  0.6086107025144 1.0
C      1  0.6448442151878  0.5519464913271  0.4982730537207 1.0
END
