TITL C-200820-5237-10 -7.738 3375.00 -1294.98117504 0 0 160 (C4) n - 1
REM
REM Run started: at 2021.01.03 00:48:39 in /rds/project/t2_vol4/rds-t2-cs072/BORA/CARBON/AIRSS/Generating-Clusters/Str-Search/Higher-Symm/C100-200
REM VASP from code version vasp.5.4.4.18Apr17-6-g9f103f2a35 (build Oct 11 2019 16:45:47) gamma-only
REM
REM
REM
REM
REM ./C.cell (533062f00bc710175b3da973d35f2034)
REM AIRSS Version 0.9.1 bugfix July 2018 build 013d7b7c2542+ Fri, 06 Jul 2018 19:26:36 +0100
REM compiler GCC version 4.8.5 20150623 (Red Hat 4.8.5-39)
REM options -cpp -mtune=generic -march=x86-64 -g -O0
REM seed 634271703 -2014321138 1024727869 1450851603 -2039119290 -366522826 1965031564 85131041 -970851050 1543397499 -423848575 45490375
REM
REM C.POTCAR (d86ddea03c3ceb6dc662c8ad6801f873)
REM 
CELL 1.54180   15.00000   15.00000   15.00000   90.00000   90.00000   90.00000
LATT -1
SFAC C  
C      1  0.5378963755357  0.6854310247420  0.5657144942234 1.0
C      1  0.4342866759752  0.6854326349695  0.5378930745397 1.0
C      1  0.4621130576756  0.6854327640118  0.4342873627384 1.0
C      1  0.5657189234697  0.6854319575087  0.4621069289335 1.0
C      1  0.5599985440324  0.8902704128996  0.4619233031941 1.0
C      1  0.5380778904092  0.8902676232933  0.5599983752386 1.0
C      1  0.4400029790166  0.8902701578337  0.5380853316646 1.0
C      1  0.4619223074703  0.8902708934541  0.4400105470753 1.0
C      1  0.6377138061630  0.5409228434100  0.6487847070407 1.0
C      1  0.3512145234277  0.5409270799711  0.6377132673563 1.0
C      1  0.3622885007843  0.5409259131146  0.3512144624190 1.0
C      1  0.6487874683836  0.5409259320502  0.3622852798196 1.0
C      1  0.8480772611599  0.4659148491944  0.6625470154601 1.0
C      1  0.3374546211130  0.4659186993755  0.8480773678618 1.0
C      1  0.1519241962578  0.4659191048373  0.3374540927941 1.0
C      1  0.6625461052493  0.4659144387555  0.1519224771223 1.0
C      1  0.3334901547738  0.3618225923359  0.5125770213227 1.0
C      1  0.4874232136237  0.3618212223773  0.3334913980641 1.0
C      1  0.6665071003733  0.3618195112310  0.4874220804315 1.0
C      1  0.5125758494853  0.3618192437601  0.6665081536100 1.0
C      1  0.3608515605656  0.6212925914367  0.6766467258136 1.0
C      1  0.3233559086378  0.6212945140709  0.3608529942375 1.0
C      1  0.6391494908716  0.6212928452491  0.3233525356556 1.0
C      1  0.6766499366683  0.6212907077949  0.6391476181504 1.0
C      1  0.4609897881457  0.5468931530740  0.3405909572239 1.0
C      1  0.6594103514412  0.5468923136002  0.4609878979446 1.0
C      1  0.5390135421028  0.5468919790577  0.6594084224083 1.0
C      1  0.3405930121105  0.5468934021002  0.5390116045030 1.0
C      1  0.5680970729375  0.5820558188117  0.4790665082641 1.0
C      1  0.5209343409268  0.5820571132058  0.5680950343230 1.0
C      1  0.4319069667706  0.5820570782449  0.5209329535735 1.0
C      1  0.4790695075628  0.5820569300511  0.4319045863609 1.0
C      1  0.1397447606147  0.5552974629119  0.5650134656905 1.0
C      1  0.4349864730375  0.5552923440992  0.1397409800146 1.0
C      1  0.8602577156083  0.5552934128426  0.4349869938649 1.0
C      1  0.5650171457352  0.5552911968839  0.8602587982229 1.0
C      1  0.2907431101905  0.7961173407904  0.2809665960778 1.0
C      1  0.7190323070801  0.7961227742070  0.2907426629636 1.0
C      1  0.7092642006543  0.7961177536499  0.7190352891254 1.0
C      1  0.2809585818565  0.7961146551217  0.7092557288840 1.0
C      1  0.1751686340091  0.5273737441750  0.3998503893299 1.0
C      1  0.6001533372572  0.5273699888591  0.1751657415303 1.0
C      1  0.8248342158139  0.5273682770439  0.6001494842726 1.0
C      1  0.3998490691774  0.5273722858881  0.8248327617816 1.0
C      1  0.2124836884582  0.5937228881773  0.2147790088544 1.0
C      1  0.7852324793990  0.5937273150030  0.2124877372050 1.0
C      1  0.7875200159119  0.5937196773447  0.7852209121714 1.0
C      1  0.2147686561271  0.5937198634264  0.7875190141066 1.0
C      1  0.6282371766610  0.7924463797224  0.6690998938663 1.0
C      1  0.3308972406296  0.7924490723037  0.6282302977454 1.0
C      1  0.3717715303434  0.7924499520676  0.3309024232646 1.0
C      1  0.6691006908777  0.7924511392465  0.3717702792440 1.0
C      1  0.1843384409139  0.3789701129907  0.3434227939705 1.0
C      1  0.6565746625917  0.3789647199916  0.1843389727434 1.0
C      1  0.8156622989696  0.3789663118217  0.6565748632365 1.0
C      1  0.3434216913410  0.3789683101607  0.8156596831452 1.0
C      1  0.3208706807786  0.3860613592457  0.2476378622980 1.0
C      1  0.7523616815435  0.3860636690036  0.3208681226116 1.0
C      1  0.6791289591377  0.3860591212346  0.7523593266634 1.0
C      1  0.2476377059632  0.3860621957538  0.6791274132568 1.0
C      1  0.7815868962163  0.6707761742558  0.5320193050715 1.0
C      1  0.4679845162980  0.6707758218897  0.7815819622365 1.0
C      1  0.2184182302427  0.6707783175448  0.4679810795874 1.0
C      1  0.5320197593273  0.6707758501143  0.2184159596480 1.0
C      1  0.6491307731945  0.1566279152022  0.3929727761513 1.0
C      1  0.6070254181136  0.1566321998632  0.6491372936502 1.0
C      1  0.3508572156588  0.1566321032981  0.6070282377199 1.0
C      1  0.3929655141893  0.1566328711116  0.3508633670996 1.0
C      1  0.1982011847330  0.6556984472721  0.2827585039603 1.0
C      1  0.7172421416459  0.6557034637248  0.1981984555399 1.0
C      1  0.8018020356274  0.6556952184184  0.7172407123082 1.0
C      1  0.2827588217593  0.6556990104394  0.8018032758899 1.0
C      1  0.4866106240598  0.3051020807327  0.4212333846631 1.0
C      1  0.5787640860579  0.3051024880611  0.4866111095750 1.0
C      1  0.5133849814277  0.3051026167025  0.5787651158390 1.0
C      1  0.4212319063396  0.3051026847595  0.5133868913742 1.0
C      1  0.6001383895176  0.6950700087782  0.6483655254252 1.0
C      1  0.3516354980468  0.6950710250842  0.6001329127014 1.0
C      1  0.3998698244134  0.6950731557610  0.3516346714810 1.0
C      1  0.6483685953470  0.6950710631187  0.3998667412913 1.0
C      1  0.4602033931013  0.6424429419326  0.2830400759384 1.0
C      1  0.7169620394447  0.6424416084760  0.4602017731482 1.0
C      1  0.5398017688666  0.6424414137679  0.7169596418544 1.0
C      1  0.2830428595551  0.6424418517227  0.5397989185033 1.0
C      1  0.8351562558414  0.2964217177514  0.6250520829023 1.0
C      1  0.3749410733051  0.2964234010459  0.8351540096026 1.0
C      1  0.1648405019986  0.2964255802716  0.3749427260003 1.0
C      1  0.6250538433093  0.2964185865896  0.1648442912198 1.0
C      1  0.1847152666236  0.4217977472911  0.6256065911478 1.0
C      1  0.3743941675735  0.4217987967500  0.1847140431879 1.0
C      1  0.8152830818430  0.4217968283458  0.3743913617657 1.0
C      1  0.6256068793148  0.4217963077350  0.8152843462105 1.0
C      1  0.4704861641517  0.4078482106854  0.1818307078896 1.0
C      1  0.8181665159112  0.4078481224501  0.4704805392513 1.0
C      1  0.5295147277773  0.4078475757536  0.8181682213339 1.0
C      1  0.1818312646162  0.4078519667859  0.5295181119188 1.0
C      1  0.6088347656659  0.4617539394943  0.3248936069710 1.0
C      1  0.6751068782185  0.4617516003391  0.6088335371348 1.0
C      1  0.3911659065550  0.4617540062326  0.6751050459153 1.0
C      1  0.3248954310404  0.4617536543668  0.3911649018490 1.0
C      1  0.5005232128255  0.3334689985174  0.7552813525513 1.0
C      1  0.2447153353657  0.3334732885636  0.5005217313748 1.0
C      1  0.4994771820846  0.3334695200732  0.2447173165931 1.0
C      1  0.7552809106036  0.3334688471655  0.4994755318613 1.0
C      1  0.6264843491918  0.8563406987713  0.4157554580013 1.0
C      1  0.5842454144286  0.8563391167056  0.6264841398277 1.0
C      1  0.3735139086940  0.8563395145718  0.5842520091255 1.0
C      1  0.4157569348198  0.8563426552710  0.3735214917582 1.0
C      1  0.6950657633975  0.1519357315180  0.6365285585518 1.0
C      1  0.3634671749896  0.1519346308899  0.6950674548518 1.0
C      1  0.3049251435722  0.1519366019258  0.3634711170058 1.0
C      1  0.6365212566842  0.1519305649924  0.3049326849120 1.0
C      1  0.3794220363982  0.6227615486857  0.7799880739254 1.0
C      1  0.2200141711359  0.6227634665005  0.3794242733842 1.0
C      1  0.6205809707023  0.6227605761114  0.2200111167307 1.0
C      1  0.7799901061675  0.6227594308819  0.6205755975029 1.0
C      1  0.2599053258677  0.1731735554912  0.4395773101755 1.0
C      1  0.5604172139559  0.1731680979664  0.2599128660421 1.0
C      1  0.7400858698031  0.1731701166471  0.5604226580463 1.0
C      1  0.4395732867164  0.1731702574660  0.7400869884214 1.0
C      1  0.1527159581485  0.5121859978950  0.6489426606165 1.0
C      1  0.3510593202617  0.5121866579937  0.1527153552063 1.0
C      1  0.8472853304899  0.5121844689973  0.3510579361624 1.0
C      1  0.6489432586382  0.5121838241425  0.8472843832318 1.0
C      1  0.3861787180155  0.2140907164128  0.5350187667323 1.0
C      1  0.4649754814337  0.2140880256967  0.3861851833638 1.0
C      1  0.6138126670788  0.2140877849952  0.4649816291652 1.0
C      1  0.5350173469324  0.2140876528945  0.6138134899958 1.0
C      1  0.6844234342348  0.1599338783951  0.4816809046634 1.0
C      1  0.5183151813080  0.1599367093721  0.6844263421020 1.0
C      1  0.3155646910846  0.1599395364745  0.5183210235420 1.0
C      1  0.4816751676071  0.1599342823573  0.3155735825986 1.0
C      1  0.2298165005930  0.7419067212627  0.2673397858443 1.0
C      1  0.7326585944710  0.7419071150698  0.2298078248289 1.0
C      1  0.7701915810423  0.7419033581445  0.7326623060854 1.0
C      1  0.2673380910857  0.7419024246744  0.7701925429386 1.0
C      1  0.1840177791021  0.6377988824358  0.5445301482402 1.0
C      1  0.4554710903790  0.6377973796058  0.1840165828575 1.0
C      1  0.8159866207258  0.6377959839042  0.4554706341642 1.0
C      1  0.5445319843634  0.6377957702225  0.8159831747687 1.0
C      1  0.6685634759791  0.4584221444343  0.5166387280930 1.0
C      1  0.4833599201118  0.4584226777854  0.6685640300118 1.0
C      1  0.3314380682358  0.4584239834941  0.4833603114551 1.0
C      1  0.5166404152442  0.4584230307278  0.3314359526366 1.0
C      1  0.8297759490878  0.5523380170635  0.2697621437499 1.0
C      1  0.7302346003498  0.5523244575454  0.8297797283068 1.0
C      1  0.1702258205464  0.5523368508107  0.7302404362028 1.0
C      1  0.2697683234850  0.5523274918482  0.1702202758709 1.0
C      1  0.2097518122818  0.2575028674020  0.4426773151773 1.0
C      1  0.5573204989868  0.2574976318320  0.2097551957893 1.0
C      1  0.7902421493005  0.2574990944265  0.5573213093130 1.0
C      1  0.4426746193111  0.2574994140255  0.7902444252589 1.0
C      1  0.7167194094561  0.3970079192138  0.6740467201886 1.0
C      1  0.3259519823427  0.3970113799883  0.7167176075920 1.0
C      1  0.2832821817436  0.3970107991023  0.3259514044888 1.0
C      1  0.6740462447723  0.3970087119646  0.2832804400939 1.0
C      1  0.1577421694452  0.4930169854969  0.4924931645874 1.0
C      1  0.5075113489292  0.4930105308660  0.1577416309373 1.0
C      1  0.8422577656770  0.4930124223734  0.5075062318420 1.0
C      1  0.4924914995828  0.4930101562283  0.8422570701863 1.0
END
