TITL C-208023-555-36 -3.664 3375.00 -628.31008604 0 0 74 (C1) n - 1
REM
REM Run started: at 2020.12.01 07:24:52 in /rds/project/t2_vol4/rds-t2-cs072/BORA/CARBON/AIRSS/Generating-Clusters/Str-Search/Higher-Symm/C10-100
REM VASP from code version vasp.5.4.4.18Apr17-6-g9f103f2a35 (build Oct 11 2019 16:45:47) gamma-only
REM
REM
REM
REM
REM ./C.cell (f39ce9773e2efe3fa5bbdf770a4156b8)
REM AIRSS Version 0.9.1 bugfix July 2018 build 013d7b7c2542+ Fri, 06 Jul 2018 19:26:36 +0100
REM compiler GCC version 4.8.5 20150623 (Red Hat 4.8.5-39)
REM options -cpp -mtune=generic -march=x86-64 -g -O0
REM seed 883612701 -1908578425 1339080956 -846803106 -868950837 1979202506 219762508 -477654979 -1274430302 2137799217 -1742072020 -719084882
REM
REM C.POTCAR (d86ddea03c3ceb6dc662c8ad6801f873)
REM 
CELL 1.54180   15.00000   15.00000   15.00000   90.00000   90.00000   90.00000
LATT -1
SFAC C  
C      1  0.4333346304454  0.4757701128474  0.2260802142374 1.0
C      1  0.7431986220110  0.4768005441529  0.3338232922870 1.0
C      1  0.7723714496077  0.4658464627189  0.6632626665924 1.0
C      1  0.3105226561408  0.4565900737830  0.7693163833302 1.0
C      1  0.2069008594942  0.4871017967025  0.4614882579309 1.0
C      1  0.6741895669225  0.4250613963255  0.2921311776050 1.0
C      1  0.7794609252701  0.4198570866992  0.5812248207954 1.0
C      1  0.3277564472041  0.3910370094473  0.8305607307351 1.0
C      1  0.2169439499449  0.4399431100188  0.5428614081951 1.0
C      1  0.3697918130126  0.4251995629333  0.2795426478441 1.0
C      1  0.6933239657393  0.4360194291573  0.7091555346696 1.0
C      1  0.2957227470953  0.4419099851236  0.6745512388262 1.0
C      1  0.2638168446562  0.4441095008264  0.3968776928958 1.0
C      1  0.5196653549823  0.4391382746446  0.2422971805547 1.0
C      1  0.7631139675241  0.4398063062585  0.4205113946048 1.0
C      1  0.6890129695484  0.5909573048707  0.6890948529441 1.0
C      1  0.3466441728028  0.6095091365455  0.7373906163824 1.0
C      1  0.2303881780912  0.6486613615369  0.4264322105448 1.0
C      1  0.4424571742958  0.6436277899640  0.2050068527382 1.0
C      1  0.7656475271355  0.6374034599412  0.3585901549602 1.0
C      1  0.3470815833152  0.3319981265908  0.8890012592461 1.0
C      1  0.2789626013333  0.3687107785254  0.5353600545335 1.0
C      1  0.4120445960017  0.3520331535773  0.3211087424525 1.0
C      1  0.6573870767547  0.3489610654530  0.3448561891262 1.0
C      1  0.7185548459316  0.3455018753599  0.5834996275237 1.0
C      1  0.6038918274746  0.6714262483541  0.4042081102174 1.0
C      1  0.6343288619299  0.6706795010457  0.5575687088059 1.0
C      1  0.4649991242816  0.6520723206269  0.6263275195909 1.0
C      1  0.3736705142490  0.6714834979719  0.5014107384408 1.0
C      1  0.4154679585180  0.6991220268678  0.2779947181195 1.0
C      1  0.5468542213130  0.5289886290103  0.7184192874911 1.0
C      1  0.2448560144150  0.5871023297763  0.5742124169447 1.0
C      1  0.3289317487891  0.5727674576798  0.2844237034426 1.0
C      1  0.6329893745363  0.5725239186648  0.2768159874362 1.0
C      1  0.7699438630482  0.5723962827149  0.5456695955952 1.0
C      1  0.7854271235675  0.4804743719421  0.5049763593156 1.0
C      1  0.6422466555348  0.5146028858743  0.7297871053671 1.0
C      1  0.2422584775939  0.4963592541393  0.6149171344959 1.0
C      1  0.3056133808098  0.4805619537516  0.3194940934119 1.0
C      1  0.6055606816641  0.4809640111231  0.2537861125801 1.0
C      1  0.3764382687193  0.6422309879925  0.6566178514429 1.0
C      1  0.3218338384166  0.6707360299073  0.4213355064859 1.0
C      1  0.5054348477515  0.6762037356161  0.2678973599692 1.0
C      1  0.6985936003164  0.6595154109677  0.4202613571762 1.0
C      1  0.6234843201534  0.6437057928540  0.6460746555076 1.0
C      1  0.3202124621951  0.6438880357403  0.5801657089323 1.0
C      1  0.3476430974985  0.6551208232680  0.3291930297926 1.0
C      1  0.5791320120661  0.6451486007977  0.3137321880853 1.0
C      1  0.7151967987057  0.6435736677964  0.5128160358125 1.0
C      1  0.5373078990021  0.6158556793018  0.6737640579042 1.0
C      1  0.3834480851727  0.3224425401772  0.4075585631783 1.0
C      1  0.5687699252713  0.3131228153810  0.3478111919489 1.0
C      1  0.6869177418921  0.3099370083446  0.5014533220771 1.0
C      1  0.5723149116735  0.3264980145203  0.6544173910237 1.0
C      1  0.4145136863935  0.3316411251650  0.6260517004608 1.0
C      1  0.2086073410852  0.5806642185373  0.4838750330093 1.0
C      1  0.3966058432969  0.5619254527950  0.2134715373149 1.0
C      1  0.7234947388596  0.5678202129970  0.3129236538195 1.0
C      1  0.7629897313346  0.5585213296079  0.6410450304152 1.0
C      1  0.3108394459378  0.5517241759598  0.7846658101731 1.0
C      1  0.3284998282652  0.3671190747385  0.6189782620736 1.0
C      1  0.3060477175875  0.3659471367377  0.4425250369046 1.0
C      1  0.5038435524638  0.3562204715760  0.2945339556615 1.0
C      1  0.7147475052559  0.3534413509522  0.4220761449406 1.0
C      1  0.6611091814204  0.3575119186686  0.6613145680051 1.0
C      1  0.5499078185829  0.2715657676593  0.5804048202616 1.0
C      1  0.4567893120179  0.2801338044085  0.5580222145110 1.0
C      1  0.4496023710629  0.2791737353973  0.4617463643007 1.0
C      1  0.5400250966332  0.2709331443220  0.4280358808023 1.0
C      1  0.6017582827929  0.2667970264509  0.5019931867459 1.0
C      1  0.4860785324474  0.4584315222607  0.7078119924610 1.0
C      1  0.4890491784748  0.3715934586587  0.6814503364297 1.0
C      1  0.5595209989856  0.6814974530504  0.4922453218174 1.0
C      1  0.4696788752825  0.6767079838453  0.5302539377447 1.0
END
