TITL C-20217-6445-19 -5.864 3375.00 -973.84454133 0 0 119 (C1) n - 1
REM
REM Run started: at 2021.01.02 23:34:33 in /gpfs/home/chem/mssmkc/CARBON/AIRSS/Generating-Clusters/Str-Search/Higher-Symm/C100-200
REM VASP from code version vasp.5.4.4.18Apr17-6-g9f103f2a35 (build Oct 11 2019 16:45:47) gamma-only
REM
REM
REM
REM
REM ./C.cell (533062f00bc710175b3da973d35f2034)
REM AIRSS Version 0.9.1 bugfix July 2018 build 013d7b7c2542+ Fri, 06 Jul 2018 19:26:36 +0100
REM compiler GCC version 6.3.0
REM options -cpp -iprefix /gpfs/warwick/csc/orac/software/Core/GCCcore/6.3.0/bin/../lib/gcc/x86_64-pc-linux-gnu/6.3.0/ -mtune=generic -march=x86-64 -g -O0
REM seed -1471470413 599681487 400270816 -1776722409 1163619150 -1950960707 -1063966885 -546096629 -2068025150 -946882395 399084814 -1493137358
REM
REM C.POTCAR (d86ddea03c3ceb6dc662c8ad6801f873)
REM 
CELL 1.54180   15.00000   15.00000   15.00000   90.00000   90.00000   90.00000
LATT -1
SFAC C  
C      1  0.3700432574026  0.5612026058563  0.7309001591652 1.0
C      1  0.3693278604811  0.7224364528698  0.5896677905097 1.0
C      1  0.3679436008496  0.7390168648670  0.4799422835724 1.0
C      1  0.3698977445021  0.6293271067142  0.2963714073797 1.0
C      1  0.3697638713017  0.5251074012529  0.2590038741596 1.0
C      1  0.3680899217472  0.3235397203225  0.3305146127595 1.0
C      1  0.3701372045694  0.2701739453886  0.4284707398774 1.0
C      1  0.3683402423728  0.2529372179519  0.6401214289607 1.0
C      1  0.3765081638222  0.4499919253418  0.7361420464638 1.0
C      1  0.3969507080431  0.6377249757061  0.4719142579856 1.0
C      1  0.3951711623993  0.5872549996730  0.3902006832513 1.0
C      1  0.3941570379550  0.4994720518527  0.3568355514470 1.0
C      1  0.3940561389712  0.4086400034901  0.3852036719635 1.0
C      1  0.3971016694518  0.3671532885236  0.4672364574900 1.0
C      1  0.3892558820171  0.4208630482829  0.5460993187848 1.0
C      1  0.4152462062250  0.4570326753723  0.6327263724623 1.0
C      1  0.3945657273461  0.5521151910351  0.6277160706544 1.0
C      1  0.4013530605734  0.6264705270459  0.5644822712705 1.0
C      1  0.2831349491824  0.2881691625162  0.6235469667472 1.0
C      1  0.2788862595361  0.4231037809373  0.7283656647653 1.0
C      1  0.2714701482278  0.5823461884740  0.7269543495982 1.0
C      1  0.2711670898858  0.7089223143889  0.6138284264813 1.0
C      1  0.2693779799388  0.7351220224519  0.4575821101500 1.0
C      1  0.2707165884859  0.6490602390815  0.3105446145632 1.0
C      1  0.2707286536616  0.4994842336731  0.2571689936327 1.0
C      1  0.2690457125944  0.3395549866017  0.3153170131608 1.0
C      1  0.2734547102990  0.2628942465741  0.4546397831645 1.0
C      1  0.5961108758492  0.6355796505959  0.5210285927984 1.0
C      1  0.5976716214608  0.6159941662893  0.4301587928417 1.0
C      1  0.6003937678678  0.5402751381567  0.3749155791142 1.0
C      1  0.6007310353662  0.4458884597533  0.3789523970776 1.0
C      1  0.5960764711919  0.3738279688143  0.4405254108509 1.0
C      1  0.5840082150862  0.3544432741276  0.5329765408775 1.0
C      1  0.5891991717531  0.4070319377596  0.6127438251523 1.0
C      1  0.5941224546323  0.5002471282394  0.6359836449215 1.0
C      1  0.5938133514405  0.5889710316113  0.6020667693521 1.0
C      1  0.8183383177703  0.4598641132573  0.3467067873904 1.0
C      1  0.8117710588256  0.3688284036511  0.3803234017078 1.0
C      1  0.8033045487663  0.3383764234429  0.4733253349406 1.0
C      1  0.8020616936872  0.3746638592669  0.5684773726854 1.0
C      1  0.8027553982377  0.4586763475182  0.6286868841421 1.0
C      1  0.8042289472594  0.5602309771093  0.6315549544968 1.0
C      1  0.8072557556926  0.6445414920721  0.5757643405588 1.0
C      1  0.8109127810817  0.6729381697739  0.4814568090460 1.0
C      1  0.8164831042633  0.6195343307342  0.4004791574334 1.0
C      1  0.7669384427864  0.7167517461043  0.6244166940985 1.0
C      1  0.7695599309049  0.7575279396498  0.4647895164632 1.0
C      1  0.7752566805864  0.6584614906289  0.3222566590804 1.0
C      1  0.7770421974955  0.4751896830436  0.2610579943921 1.0
C      1  0.7714913358962  0.3105502233636  0.3160657850281 1.0
C      1  0.7584694369243  0.2533616646385  0.4732438607776 1.0
C      1  0.7693132303547  0.3026003615497  0.6218617735228 1.0
C      1  0.7689149963726  0.4301672944581  0.7150040354040 1.0
C      1  0.7680828952930  0.5869423257093  0.7172105270695 1.0
C      1  0.1716987122862  0.4070771880265  0.6106133141597 1.0
C      1  0.1633944749303  0.4984612679802  0.6417258494266 1.0
C      1  0.1635961690838  0.5885447062714  0.6069716139253 1.0
C      1  0.1600283543697  0.6350172849213  0.5227035414358 1.0
C      1  0.1634281954271  0.6184299931956  0.4277197635740 1.0
C      1  0.1601987601280  0.5450542472852  0.3665046513252 1.0
C      1  0.1643963918844  0.4495713004736  0.3688008754224 1.0
C      1  0.1632820239189  0.3772723082775  0.4323681291490 1.0
C      1  0.1716085498416  0.3599836307236  0.5278759656590 1.0
C      1  0.6159413178096  0.2624628223510  0.6812283141157 1.0
C      1  0.6126006969958  0.4199069259787  0.7707365598794 1.0
C      1  0.6089931055327  0.6041155608140  0.7579111833855 1.0
C      1  0.6052415309268  0.7459770043501  0.6339886045240 1.0
C      1  0.6054872521163  0.7745043268199  0.4445516796123 1.0
C      1  0.6109614841333  0.6699544133394  0.2833166355827 1.0
C      1  0.6116641068659  0.4891485987072  0.2259318824651 1.0
C      1  0.6079375813180  0.3113006336091  0.2916486992550 1.0
C      1  0.5963054723808  0.2157471838819  0.4523806919101 1.0
C      1  0.2309241417120  0.6836704746026  0.3889325452808 1.0
C      1  0.2222701561107  0.5710129109750  0.2933549067865 1.0
C      1  0.2310806977186  0.4226752787913  0.2948397615503 1.0
C      1  0.2229228822194  0.3105314143926  0.3918996875335 1.0
C      1  0.2388692673145  0.2867423475664  0.5384082037204 1.0
C      1  0.2407388209661  0.3610397770907  0.6690905285399 1.0
C      1  0.2265727756512  0.5010543354225  0.7175866822746 1.0
C      1  0.2319391155828  0.6401258939918  0.6643422967792 1.0
C      1  0.2218125447814  0.7115343096856  0.5343199050824 1.0
C      1  0.5229249643875  0.6959479333128  0.2439842442719 1.0
C      1  0.5234365397384  0.4947827897026  0.1794037604583 1.0
C      1  0.5194883703067  0.2823931396934  0.2569928668754 1.0
C      1  0.5115277285247  0.1688120490819  0.4323318881253 1.0
C      1  0.5416396709676  0.2275997054045  0.6282916472825 1.0
C      1  0.5254690318194  0.4092918074902  0.8186775268961 1.0
C      1  0.5200960560422  0.6164539483229  0.8017400765180 1.0
C      1  0.5173818989485  0.7885423127189  0.6526917651773 1.0
C      1  0.5168154899558  0.8188828181747  0.4389671662145 1.0
C      1  0.6007145626431  0.7257138321552  0.5342113789480 1.0
C      1  0.6023244090023  0.6932846542805  0.3817854547889 1.0
C      1  0.6070993210269  0.5685262150874  0.2882713494308 1.0
C      1  0.6058521471326  0.4131279371520  0.2929932430262 1.0
C      1  0.5997401512303  0.2954309893274  0.3919673379198 1.0
C      1  0.5739293546577  0.2609113819768  0.5410739542925 1.0
C      1  0.6004224508074  0.3589126365948  0.6917452756161 1.0
C      1  0.6038911591975  0.5084687295314  0.7267905056226 1.0
C      1  0.5991969402158  0.6508881440450  0.6696004054997 1.0
C      1  0.7136681936864  0.4134693902993  0.7755454866845 1.0
C      1  0.7091338187721  0.6103469743327  0.7711472479275 1.0
C      1  0.7031888738544  0.7651876750402  0.6463210209377 1.0
C      1  0.7022147051016  0.8011208976014  0.4447669060851 1.0
C      1  0.7107120136157  0.6841555467679  0.2764399302451 1.0
C      1  0.7109735403946  0.4805095386597  0.2104229218023 1.0
C      1  0.7040315779971  0.2880441659383  0.2741409866091 1.0
C      1  0.6954774694693  0.2014578060446  0.4558853245585 1.0
C      1  0.7061886237473  0.2588947900836  0.6548263928041 1.0
C      1  0.4355439910075  0.2002650797133  0.4349258244743 1.0
C      1  0.4502472084288  0.2356306749853  0.6431667792055 1.0
C      1  0.4470172494055  0.4157774001840  0.7933694005091 1.0
C      1  0.4415791806725  0.6054433175129  0.7793981599256 1.0
C      1  0.4387563488860  0.7693002701685  0.6383676175923 1.0
C      1  0.4379864138876  0.7969467569255  0.4464115037867 1.0
C      1  0.4433761383451  0.6829402541233  0.2612892500154 1.0
C      1  0.4439454676786  0.5013922587002  0.2001792446064 1.0
C      1  0.4400064553677  0.2975159970055  0.2711865296576 1.0
C      1  0.8304774908191  0.5276947672245  0.4099316626923 1.0
C      1  0.3302555415635  0.4888511975473  0.5653904289184 1.0
END
