TITL C-200820-5237-11 -4.864 3375.00 -814.66314178 0 0 101 (C1) n - 1
REM
REM Run started: at 2021.01.03 01:31:38 in /rds/project/t2_vol4/rds-t2-cs072/BORA/CARBON/AIRSS/Generating-Clusters/Str-Search/Higher-Symm/C100-200
REM VASP from code version vasp.5.4.4.18Apr17-6-g9f103f2a35 (build Oct 11 2019 16:45:47) gamma-only
REM
REM
REM
REM
REM ./C.cell (533062f00bc710175b3da973d35f2034)
REM AIRSS Version 0.9.1 bugfix July 2018 build 013d7b7c2542+ Fri, 06 Jul 2018 19:26:36 +0100
REM compiler GCC version 4.8.5 20150623 (Red Hat 4.8.5-39)
REM options -cpp -mtune=generic -march=x86-64 -g -O0
REM seed -360655080 -1655760077 2088159373 2105272956 1386213486 1677910147 -909067405 2081192537 -941662779 169427578 1260480604 -362328035
REM
REM C.POTCAR (d86ddea03c3ceb6dc662c8ad6801f873)
REM 
CELL 1.54180   15.00000   15.00000   15.00000   90.00000   90.00000   90.00000
LATT -1
SFAC C  
C      1  0.4523841625896  0.4455958699869  0.1505435847724 1.0
C      1  0.8380039031821  0.4213608911482  0.6209942469826 1.0
C      1  0.2347605810990  0.4237282680839  0.7348979237164 1.0
C      1  0.2024321139016  0.4924475346102  0.3890754948511 1.0
C      1  0.7479527672625  0.4885995790326  0.3035066077407 1.0
C      1  0.5500383005902  0.4875818177636  0.8023292756656 1.0
C      1  0.4293299749780  0.5810374120289  0.7731760886738 1.0
C      1  0.2810434606345  0.5960285721591  0.2991616794158 1.0
C      1  0.7763793847398  0.5835578344773  0.4234952090990 1.0
C      1  0.4105686042640  0.2339415764343  0.4627285372404 1.0
C      1  0.5765123196510  0.2281960087464  0.4354236806128 1.0
C      1  0.5180318467555  0.2238923034571  0.5916496941820 1.0
C      1  0.2803325949959  0.8140385024865  0.5378844498375 1.0
C      1  0.5633058946313  0.7760371357706  0.2732618905857 1.0
C      1  0.6475810212864  0.8119920129409  0.6711594379968 1.0
C      1  0.4823067564935  0.7251723441550  0.4091681542478 1.0
C      1  0.5483660175523  0.7490700742615  0.5327361947712 1.0
C      1  0.4459369996887  0.7427326036351  0.5030061522996 1.0
C      1  0.2865316874491  0.3597461951614  0.4604121637180 1.0
C      1  0.6535678341607  0.3522641676311  0.3371397978500 1.0
C      1  0.5762017447691  0.3432858521893  0.7083342314613 1.0
C      1  0.4397157514021  0.3743761279894  0.2041588533067 1.0
C      1  0.7977997623356  0.3474629227028  0.5869462575344 1.0
C      1  0.2852125199880  0.3521761438523  0.7135040004831 1.0
C      1  0.5392769655878  0.6453611896796  0.6479419921084 1.0
C      1  0.3427084449996  0.6413369692563  0.4599378443510 1.0
C      1  0.5990591823308  0.6536196701237  0.3877059482472 1.0
C      1  0.5029223663283  0.5885105544886  0.2332475094824 1.0
C      1  0.7148169887803  0.6229678222595  0.6413855025451 1.0
C      1  0.2664341338087  0.6276414496241  0.6180451559434 1.0
C      1  0.5922567134935  0.2171768656104  0.5331246714946 1.0
C      1  0.4246872082544  0.2212177187539  0.5565258936469 1.0
C      1  0.4876263424446  0.2276630499900  0.3993831344694 1.0
C      1  0.5896397336411  0.6342523415943  0.2390526165734 1.0
C      1  0.6796247096411  0.6615796454773  0.7248959733403 1.0
C      1  0.2101526353728  0.6669301865400  0.5472866378599 1.0
C      1  0.7143812175014  0.2824301879714  0.4696566790332 1.0
C      1  0.4255413403380  0.2818753705943  0.6966323495237 1.0
C      1  0.3756580892846  0.3079772997326  0.3332449176420 1.0
C      1  0.3332357494258  0.4305481352561  0.5750531138480 1.0
C      1  0.5374054395687  0.4304555511370  0.3249153140623 1.0
C      1  0.6557332497468  0.4236784218286  0.6209057120775 1.0
C      1  0.5706460265665  0.7858687494728  0.6286426035012 1.0
C      1  0.3510302372144  0.7845213599547  0.4882567025165 1.0
C      1  0.5378123201817  0.7900767012965  0.3583961101788 1.0
C      1  0.3429210256035  0.2874963158277  0.4191759288507 1.0
C      1  0.6547473059412  0.2729294663990  0.3990307468642 1.0
C      1  0.5155882146333  0.2679042705772  0.6792651294213 1.0
C      1  0.4123880432148  0.6429087140988  0.5298342839762 1.0
C      1  0.5019597342914  0.6254915471291  0.3962984141458 1.0
C      1  0.5695527827886  0.6456223762063  0.5542853004900 1.0
C      1  0.5919390430671  0.7238703261959  0.2111593165426 1.0
C      1  0.6907832439851  0.7518104319574  0.7157681149132 1.0
C      1  0.2185740498376  0.7571577925331  0.5588021238690 1.0
C      1  0.2820772046171  0.2936760996963  0.6331842961643 1.0
C      1  0.5006040917769  0.3043885215318  0.2386386856166 1.0
C      1  0.7300042535592  0.2849817409482  0.6261606958706 1.0
C      1  0.2282150937391  0.5819664802635  0.3714076433612 1.0
C      1  0.7359200879754  0.5760880190901  0.3404554888373 1.0
C      1  0.5189651304362  0.5759952893436  0.7876034102985 1.0
C      1  0.5842120392721  0.7453804927340  0.4343402393568 1.0
C      1  0.5244058597209  0.7236663701636  0.6905683189242 1.0
C      1  0.3140336449713  0.7198644872410  0.4234209572576 1.0
C      1  0.6683003508490  0.6237889959972  0.5595806721903 1.0
C      1  0.3605268909312  0.6264630365709  0.6155237993588 1.0
C      1  0.4533639412571  0.5681784556988  0.3203113994976 1.0
C      1  0.7520316244019  0.5951059743358  0.5079802411754 1.0
C      1  0.3660742716811  0.5966422149715  0.7129691511245 1.0
C      1  0.3633974133871  0.6003962537728  0.2680647147024 1.0
C      1  0.3565847595746  0.4333122474052  0.4823806255502 1.0
C      1  0.6031171912396  0.4257509565706  0.3895616440038 1.0
C      1  0.5634901992508  0.4219973762789  0.6429576316530 1.0
C      1  0.2265560593010  0.5079513685064  0.7361466050730 1.0
C      1  0.4522266305830  0.5324147510064  0.1580390466221 1.0
C      1  0.8400431374598  0.5060511732599  0.6215858600042 1.0
C      1  0.6849118136065  0.2390748420225  0.5524019172690 1.0
C      1  0.3652606882025  0.2432670166666  0.6287883679383 1.0
C      1  0.4578467211093  0.2589086176843  0.3138738500069 1.0
C      1  0.6725224343935  0.3446490702499  0.6731826549794 1.0
C      1  0.2739454171699  0.3569319851252  0.5617602201537 1.0
C      1  0.5719685782809  0.3598711415041  0.2749955468808 1.0
C      1  0.7927287544744  0.5801649399650  0.5995139484515 1.0
C      1  0.2663846024506  0.5829755455482  0.7056738131191 1.0
C      1  0.4177261138425  0.6159110348487  0.1850039889330 1.0
C      1  0.7486105005988  0.3666225784516  0.5034456419895 1.0
C      1  0.3833276229631  0.3674582404658  0.7127950324669 1.0
C      1  0.3893645937680  0.3916715836329  0.2891233108467 1.0
C      1  0.2452549516227  0.6476159321907  0.4504185972313 1.0
C      1  0.6526240419633  0.6218393756390  0.3185629665085 1.0
C      1  0.5774347529350  0.6469836354238  0.7392025248115 1.0
C      1  0.4030452022753  0.4303996196103  0.6404299859974 1.0
C      1  0.4454411674187  0.4630425545512  0.3435109499884 1.0
C      1  0.6771019043936  0.4293384780566  0.5282170409476 1.0
C      1  0.6007599774930  0.4545684076184  0.4748321685076 1.0
C      1  0.4888472190872  0.4528960228207  0.6019460928866 1.0
C      1  0.4328418146918  0.4582847394124  0.4431215289716 1.0
C      1  0.7305678942439  0.4078241672385  0.3082805548439 1.0
C      1  0.5606751271872  0.4074359867751  0.7829432098186 1.0
C      1  0.2206866885688  0.4156197739443  0.4122931574360 1.0
C      1  0.5063244744243  0.4915631527236  0.5067665920439 1.0
C      1  0.4994097245764  0.5937418201735  0.4984667617670 1.0
END
