TITL C-206338-5033-6 -9.256 3375.00 -1601.56862951 0 0 196 (C1) n - 1
REM
REM Run started: at 2020.12.01 15:22:41 in /rds/project/t2_vol4/rds-t2-cs072/BORA/CARBON/AIRSS/Generating-Clusters/Str-Search/Higher-Symm/C100-200
REM VASP from code version vasp.5.4.4.18Apr17-6-g9f103f2a35 (build Oct 11 2019 16:45:47) gamma-only
REM
REM
REM
REM
REM ./C.cell (533062f00bc710175b3da973d35f2034)
REM AIRSS Version 0.9.1 bugfix July 2018 build 013d7b7c2542+ Fri, 06 Jul 2018 19:26:36 +0100
REM compiler GCC version 4.8.5 20150623 (Red Hat 4.8.5-39)
REM options -cpp -mtune=generic -march=x86-64 -g -O0
REM seed 1087037575 1470628013 1318606409 626240058 2007673407 -708744995 535119411 275557969 -464710501 -188414531 -1619736112 -172922877
REM
REM C.POTCAR (d86ddea03c3ceb6dc662c8ad6801f873)
REM 
CELL 1.54180   15.00000   15.00000   15.00000   90.00000   90.00000   90.00000
LATT -1
SFAC C  
C      1  0.4539005535188  0.7157361118650  0.1539734585243 1.0
C      1  0.4407628246839  0.3578399524493  0.6008441131241 1.0
C      1  0.3953895002120  0.3206442676397  0.8213058697055 1.0
C      1  0.6630514443895  0.2452375011819  0.1839796824313 1.0
C      1  0.9110665948565  0.6126851237320  0.4450739177348 1.0
C      1  0.3128326363545  0.6204820959034  0.5915874471931 1.0
C      1  0.2440613440984  0.5275936749717  0.0773833665015 1.0
C      1  0.8009552876988  0.7230289022258  0.7222437174089 1.0
C      1  0.3149077886953  0.6718795619288  0.2673108087620 1.0
C      1  0.3950238152267  0.5306584319934  0.0960962852527 1.0
C      1  0.5595745098214  0.4427271567226  0.7051282079478 1.0
C      1  0.5621690793093  0.7084986629300  0.6390834005567 1.0
C      1  0.3575207305814  0.5224937578543  0.4094401085834 1.0
C      1  0.4920020678451  0.9152146739506  0.3892418271641 1.0
C      1  0.7217876355982  0.6756951195994  0.1927389707378 1.0
C      1  0.5578066833068  0.7052764236123  0.1774654257136 1.0
C      1  0.4851630838528  0.2866174167191  0.8289377564621 1.0
C      1  0.4915980179377  0.7202316957951  0.3623465786753 1.0
C      1  0.3743861391364  0.3194937105440  0.2038866833199 1.0
C      1  0.5051264435766  0.2797511891432  0.4256394465064 1.0
C      1  0.5191176506834  0.3449981766967  0.3459407260516 1.0
C      1  0.3592534113999  0.0943758739481  0.5890862141949 1.0
C      1  0.3560083576162  0.5294762312948  0.9334563057438 1.0
C      1  0.8532991682359  0.6131494807355  0.3657329915861 1.0
C      1  0.3359071918466  0.7153919861425  0.3567177058509 1.0
C      1  0.5989810738275  0.8124266005795  0.7580033593479 1.0
C      1  0.7295012578815  0.3029764646591  0.3436846620327 1.0
C      1  0.3984491396535  0.4060305819299  0.1828037634042 1.0
C      1  0.8075842855369  0.4491157228719  0.7924704761904 1.0
C      1  0.4209569424046  0.8741276565527  0.3404172220729 1.0
C      1  0.8317778481256  0.3849946959789  0.5651988756420 1.0
C      1  0.1357333508337  0.3643903464534  0.4017969584838 1.0
C      1  0.7031939321264  0.4877255210638  0.2275771005968 1.0
C      1  0.5802811938612  0.8974654924149  0.5163407005620 1.0
C      1  0.4535321653117  0.7147254374612  0.5328665824919 1.0
C      1  0.3409292310351  0.6251519260051  0.4204208456947 1.0
C      1  0.8141614320586  0.6812092393814  0.3217302140434 1.0
C      1  0.1308190708017  0.7234900616556  0.4814901411594 1.0
C      1  0.0968608500324  0.7813420100341  0.5443338124862 1.0
C      1  0.6639175110035  0.3381995419051  0.4039274235672 1.0
C      1  0.3037329435385  0.3976796508181  0.5369327993143 1.0
C      1  0.6302447012565  0.8668564659079  0.4408663926069 1.0
C      1  0.3530837373741  0.3060773001903  0.3023778552515 1.0
C      1  0.5262756764355  0.6103361944957  0.4500406556191 1.0
C      1  0.4138361203163  0.7737977021858  0.3396813360968 1.0
C      1  0.7902622217984  0.3739000406972  0.3308632137135 1.0
C      1  0.2634738622870  0.3307151683003  0.7058577724231 1.0
C      1  0.2635904910571  0.8243123626212  0.4843571609069 1.0
C      1  0.6268009961680  0.4350789130862  0.4755428774688 1.0
C      1  0.6770492276108  0.1576251812606  0.3296377433275 1.0
C      1  0.8639885920809  0.4660607170323  0.4227850877239 1.0
C      1  0.4141131996386  0.8381201773468  0.2599630655829 1.0
C      1  0.4241470753598  0.1771461712294  0.1509258978071 1.0
C      1  0.7811659499996  0.5665817057683  0.6949087490240 1.0
C      1  0.7682864053396  0.6068281746315  0.1522393134508 1.0
C      1  0.3270355670110  0.1089749019823  0.4999341958817 1.0
C      1  0.5173736575261  0.4610640417152  0.9588740244765 1.0
C      1  0.6352201872927  0.4974837934014  0.6872465980671 1.0
C      1  0.2462800097411  0.6011823861117  0.2863321975770 1.0
C      1  0.5966255175967  0.4071919410472  0.3827173603814 1.0
C      1  0.5797859546841  0.6016390009046  0.8909020388272 1.0
C      1  0.6702248674418  0.7813163726992  0.4200127030359 1.0
C      1  0.5792371723277  0.8890507139362  0.6099465791791 1.0
C      1  0.6853615512433  0.7797173082512  0.3209569826372 1.0
C      1  0.7356158874265  0.6151178051144  0.8375398835789 1.0
C      1  0.5207474438118  0.2230077850656  0.7662114966262 1.0
C      1  0.2657665766756  0.2238402304557  0.4111221997858 1.0
C      1  0.8249311759678  0.3210970155630  0.4869277672512 1.0
C      1  0.1439556567637  0.4317927514906  0.5700696423691 1.0
C      1  0.4344980541266  0.4391019826749  0.1009997633983 1.0
C      1  0.6275660635123  0.7037953318745  0.4587127369481 1.0
C      1  0.1617762844227  0.5670625895368  0.2353808276170 1.0
C      1  0.3766406378565  0.6491969329265  0.5195852520253 1.0
C      1  0.6603296686932  0.2692929976529  0.5685718043379 1.0
C      1  0.6592475717561  0.3266895820072  0.1660579797924 1.0
C      1  0.3370029949302  0.2828929188416  0.7527224479295 1.0
C      1  0.7808695065805  0.3617222637941  0.7500075160235 1.0
C      1  0.4897284414802  0.6206603844312  0.8644205902633 1.0
C      1  0.3689146513547  0.1999728297119  0.7117866143446 1.0
C      1  0.4206473546049  0.3721529905717  0.3562608512522 1.0
C      1  0.8483121308888  0.3732716283675  0.4083071772495 1.0
C      1  0.2969318824664  0.4844454430931  0.4857321824461 1.0
C      1  0.3755792468455  0.4022606467882  0.8657098822513 1.0
C      1  0.3969411394085  0.6244254094893  0.9084258234544 1.0
C      1  0.2121285979219  0.3017645097859  0.3792229509715 1.0
C      1  0.4656591792024  0.1791985107171  0.7055028695184 1.0
C      1  0.8385121478066  0.4807948587907  0.5218571472641 1.0
C      1  0.4903058330280  0.7590228568192  0.6125777686474 1.0
C      1  0.6535698883880  0.3715134401161  0.8613633897194 1.0
C      1  0.1940111146574  0.4878814686366  0.6238811916598 1.0
C      1  0.6373979084428  0.5649106269577  0.2529731257183 1.0
C      1  0.6113590966607  0.8289562498998  0.2861067901210 1.0
C      1  0.2615844237532  0.1768731752397  0.4954612721670 1.0
C      1  0.6016418453429  0.5834126367844  0.3355605522134 1.0
C      1  0.2749449154874  0.5023019144816  0.2478573012073 1.0
C      1  0.2196231996304  0.5242656107196  0.1639399177852 1.0
C      1  0.6251480857713  0.5972276402413  0.4382178476606 1.0
C      1  0.2108128527907  0.3534402158316  0.5546825318382 1.0
C      1  0.2909428242447  0.6006433214123  0.7565450470523 1.0
C      1  0.4273842550314  0.4577718845233  0.9209258111269 1.0
C      1  0.1772628192440  0.8149559354440  0.5209812058011 1.0
C      1  0.5222127836379  0.7181527310378  0.4539832645892 1.0
C      1  0.3021527362454  0.7510260371720  0.6799662766839 1.0
C      1  0.7811187093389  0.2330376792915  0.4692625055394 1.0
C      1  0.7468384708265  0.7216865458106  0.2766144442923 1.0
C      1  0.6497215508810  0.6572566935194  0.8542291322709 1.0
C      1  0.5590181407152  0.2367414268983  0.5802746352974 1.0
C      1  0.6255097577089  0.6443545907026  0.1940217963916 1.0
C      1  0.4298718206442  0.7051402777302  0.0596020070895 1.0
C      1  0.5511173811037  0.2228809578103  0.4829173107146 1.0
C      1  0.2282870543107  0.2887143425163  0.6255031684249 1.0
C      1  0.5572594494609  0.8814262910535  0.6976507277659 1.0
C      1  0.8225515424082  0.5201354559211  0.3535188915283 1.0
C      1  0.5816082617068  0.3959710368610  0.2863578173724 1.0
C      1  0.1057581744835  0.5078485785578  0.2810752229509 1.0
C      1  0.6235551836482  0.7373359125771  0.8008735510541 1.0
C      1  0.7541834399350  0.5228639254519  0.1460060118181 1.0
C      1  0.3642770945882  0.6389434043486  0.8106058665901 1.0
C      1  0.5735454179502  0.3258624071675  0.8434660054170 1.0
C      1  0.4275597673198  0.3290733200338  0.4461967943525 1.0
C      1  0.5428882906275  0.6126092338561  0.6202842175727 1.0
C      1  0.3781650494824  0.4864111636019  0.2430715380177 1.0
C      1  0.2939265550264  0.6565431371852  0.6765188868734 1.0
C      1  0.9153524004061  0.5321124824386  0.4847258484945 1.0
C      1  0.7186728483556  0.2011968480634  0.5374311701808 1.0
C      1  0.7037317491498  0.3252629633774  0.7872485171394 1.0
C      1  0.4237544567422  0.8942101673142  0.5520864029438 1.0
C      1  0.4030269824454  0.4698611826694  0.3406993153691 1.0
C      1  0.1338340222639  0.4377331148589  0.3299789953695 1.0
C      1  0.6728701669675  0.1197422052331  0.5209200815914 1.0
C      1  0.7253647972642  0.7582727955463  0.6744354779041 1.0
C      1  0.4835080143206  0.8549893389379  0.6290888044674 1.0
C      1  0.6023287755843  0.1431154652560  0.4653458611270 1.0
C      1  0.2518551279932  0.5031632901096  0.4026735874612 1.0
C      1  0.2393903735651  0.6029866047868  0.3900171180363 1.0
C      1  0.1934950149878  0.6899784507719  0.4245311729417 1.0
C      1  0.3349286379854  0.8609901811711  0.5498180787965 1.0
C      1  0.3969867656755  0.5654738383004  0.1804332659775 1.0
C      1  0.5135374301424  0.6235960541400  0.3544813494670 1.0
C      1  0.6580447651618  0.5244958985192  0.5050646235994 1.0
C      1  0.2664399110705  0.3491897406946  0.3239537711415 1.0
C      1  0.3121743910916  0.8163864994083  0.6303146973985 1.0
C      1  0.4114052907518  0.1080185440235  0.4577719698343 1.0
C      1  0.5200295208349  0.3165621689526  0.6210520471660 1.0
C      1  0.5491382975795  0.1449756278018  0.2339414463448 1.0
C      1  0.7928260144551  0.6423357893093  0.7656027877432 1.0
C      1  0.4234193698258  0.1515562613314  0.3715504103523 1.0
C      1  0.5147678675425  0.1396373103335  0.3255388647678 1.0
C      1  0.7469386448977  0.2135422124451  0.3777502786240 1.0
C      1  0.3471548530085  0.2143145009923  0.3532707607943 1.0
C      1  0.6669101981278  0.4626500245518  0.8905386176539 1.0
C      1  0.5606708628470  0.7984676885809  0.2079851842376 1.0
C      1  0.4145940862529  0.4363787199905  0.6452649338528 1.0
C      1  0.8220730629975  0.3932569537439  0.6599026921133 1.0
C      1  0.7549144601535  0.5331954726627  0.5366612653006 1.0
C      1  0.5008428659012  0.1351745282139  0.1553681666636 1.0
C      1  0.3148687379662  0.4762749066430  0.8536344423739 1.0
C      1  0.8109186201064  0.7925507954817  0.6601551324607 1.0
C      1  0.7027413458394  0.5208163711595  0.7391000107814 1.0
C      1  0.7354281841979  0.5840159646308  0.6085231870972 1.0
C      1  0.5957243818338  0.1253231837227  0.3735365858617 1.0
C      1  0.3231153461628  0.4523020095539  0.6225038239160 1.0
C      1  0.4689758012465  0.8111489164604  0.1886466069352 1.0
C      1  0.2369113171666  0.4428710581479  0.3203159577543 1.0
C      1  0.4994369576936  0.4267858173535  0.0395809911003 1.0
C      1  0.2644643581543  0.7552337633971  0.4169631000856 1.0
C      1  0.8337772737087  0.4802083841044  0.7067689810561 1.0
C      1  0.7335099511183  0.5101151025378  0.8337652642832 1.0
C      1  0.4846079545029  0.5817786727964  0.6967040088566 1.0
C      1  0.4010983852963  0.6841787915375  0.9858011116953 1.0
C      1  0.6344952885789  0.7392618114457  0.6975858329205 1.0
C      1  0.4898348935201  0.9158441915818  0.4844096722548 1.0
C      1  0.5041229152868  0.1556200566358  0.6171562826340 1.0
C      1  0.6096131170061  0.2856463372931  0.7584563430826 1.0
C      1  0.2787660806402  0.5060773267955  0.7715415677764 1.0
C      1  0.2561492113289  0.4373116871715  0.6979940151154 1.0
C      1  0.6446065419331  0.1720066722553  0.2387994814861 1.0
C      1  0.2512270234579  0.2038845044270  0.5925393612267 1.0
C      1  0.4775474284883  0.4849240685722  0.6918523679222 1.0
C      1  0.6411855734038  0.4047736421444  0.2173305983443 1.0
C      1  0.3784212719858  0.2487948361223  0.1432407857968 1.0
C      1  0.4773939245645  0.6140421511412  0.5359706060340 1.0
C      1  0.6555451473145  0.3443098474896  0.4996126380957 1.0
C      1  0.3169438833994  0.1559502529714  0.6456417765901 1.0
C      1  0.5948977808183  0.5110815441017  0.9232135171187 1.0
C      1  0.3210382140169  0.5335886424803  0.0293480493813 1.0
C      1  0.5695908655212  0.3494972921659  0.6909453966665 1.0
C      1  0.2773463291436  0.5324916717396  0.5740944383543 1.0
C      1  0.3856610508615  0.3454014467224  0.5248089613747 1.0
C      1  0.7716743138491  0.4644773312979  0.2993891196325 1.0
C      1  0.1389476329552  0.3820361228216  0.4931795597097 1.0
C      1  0.5793885831302  0.8869863077567  0.3603311975315 1.0
C      1  0.4499379160827  0.1056906550545  0.5586715889866 1.0
C      1  0.4531984626034  0.6280665684814  0.7765226982106 1.0
C      1  0.3831802877661  0.6566851144686  0.2048105327543 1.0
C      1  0.6327611018737  0.5570893657034  0.6052914559756 1.0
END
