TITL C-20935-2846-1 -8.994 3375.00 -1521.13216514 0 0 184 (C1) n - 1
REM
REM Run started: at 2020.12.19 13:27:37 in /rds/project/t2_vol4/rds-t2-cs072/BORA/CARBON/AIRSS/Generating-Clusters/Str-Search/Higher-Symm/C100-200
REM VASP from code version vasp.5.4.4.18Apr17-6-g9f103f2a35 (build Oct 11 2019 16:45:47) gamma-only
REM
REM
REM
REM
REM ./C.cell (533062f00bc710175b3da973d35f2034)
REM AIRSS Version 0.9.1 bugfix July 2018 build 013d7b7c2542+ Fri, 06 Jul 2018 19:26:36 +0100
REM compiler GCC version 4.8.5 20150623 (Red Hat 4.8.5-39)
REM options -cpp -mtune=generic -march=x86-64 -g -O0
REM seed -917649161 2055047802 1376715048 1055964667 408987119 1925527864 465501126 869493282 -1287804992 -577618571 -2143119944 -344359506
REM
REM C.POTCAR (d86ddea03c3ceb6dc662c8ad6801f873)
REM 
CELL 1.54180   15.00000   15.00000   15.00000   90.00000   90.00000   90.00000
LATT -1
SFAC C  
C      1  0.6253381966075  0.8094290928709  0.3504952912022 1.0
C      1  0.7888286242354  0.6680625097191  0.7582283040376 1.0
C      1  0.7914264677199  0.4156042857227  0.2941812179223 1.0
C      1  0.7303866478269  0.2964608825498  0.6582296465662 1.0
C      1  0.5311433034749  0.1610408319169  0.2810654343779 1.0
C      1  0.3586143742336  0.2303625262177  0.7141676888570 1.0
C      1  0.2082889804445  0.3263861416859  0.2624727370468 1.0
C      1  0.2005810305991  0.5057553823380  0.6722946798559 1.0
C      1  0.2443525569997  0.7081287690951  0.3207048339197 1.0
C      1  0.4618484091372  0.8388943282154  0.7266345981925 1.0
C      1  0.5194954226760  0.6190830918915  0.9820054005788 1.0
C      1  0.5573484840734  0.5519490815183  0.1276580953297 1.0
C      1  0.5585429464051  0.5370584059297  0.9338742137321 1.0
C      1  0.5737352336854  0.4666788370830  0.1048319372817 1.0
C      1  0.4982407731180  0.4638244017403  0.9545638116262 1.0
C      1  0.4943519239446  0.4302336196292  0.0531030381476 1.0
C      1  0.3966697215696  0.4886973023667  0.9485388399161 1.0
C      1  0.4134476586667  0.4971213878789  0.0521036173546 1.0
C      1  0.3738815806942  0.5812275911806  0.9087254830910 1.0
C      1  0.4813720249001  0.5861277982329  0.0703123035200 1.0
C      1  0.7286185189703  0.8204690729942  0.7467844245956 1.0
C      1  0.8121248110227  0.5837905515966  0.3306842535838 1.0
C      1  0.8490466743385  0.3916227661739  0.7331542289314 1.0
C      1  0.6907164199912  0.1576558368019  0.2937373608126 1.0
C      1  0.4961849071589  0.1544664284828  0.6719068495992 1.0
C      1  0.2885784267069  0.1665415483294  0.2689121998009 1.0
C      1  0.1850005217029  0.3519106018046  0.6314590878283 1.0
C      1  0.1203825844180  0.5840998583432  0.2571396103419 1.0
C      1  0.3088017334709  0.7867477732876  0.6741827058044 1.0
C      1  0.4837763725265  0.8792905852603  0.2781652166455 1.0
C      1  0.7300835139060  0.5793462313812  0.5694825482366 1.0
C      1  0.7176726016843  0.4913614456587  0.6077330216926 1.0
C      1  0.5579603072012  0.2902302705302  0.4176906890828 1.0
C      1  0.4935755462013  0.3297258906294  0.4690588756685 1.0
C      1  0.4112501030630  0.3624259523436  0.4580204465413 1.0
C      1  0.3423126777163  0.4286092503036  0.4844165176119 1.0
C      1  0.3667063713433  0.5217292414076  0.4822169839635 1.0
C      1  0.3859310465454  0.6901926304764  0.4544536995418 1.0
C      1  0.4639859443444  0.7195620940619  0.4116168667733 1.0
C      1  0.6933637979666  0.6597097464553  0.6080848201967 1.0
C      1  0.3638642401330  0.3753237866248  0.2959466524929 1.0
C      1  0.3315406422933  0.5322207255411  0.7650799175339 1.0
C      1  0.3534246513895  0.5972402743549  0.3257467814631 1.0
C      1  0.4684596023913  0.6872919057752  0.7607252585364 1.0
C      1  0.5197754984141  0.6744614918789  0.3487240544494 1.0
C      1  0.6413599679948  0.6321004756744  0.6883722165375 1.0
C      1  0.6546114539832  0.4784280162289  0.2690380100838 1.0
C      1  0.6494060020165  0.4480704804094  0.6611989151980 1.0
C      1  0.5497720485179  0.3215394165767  0.3217997017053 1.0
C      1  0.4498691736342  0.3639247688322  0.7084933911994 1.0
C      1  0.7199783535839  0.2700375275253  0.1746770245344 1.0
C      1  0.5829967519713  0.2495455790848  0.7817041107332 1.0
C      1  0.4051347020734  0.2321911753868  0.1652003775887 1.0
C      1  0.2610570516373  0.3847380215999  0.7732772488099 1.0
C      1  0.2020089557550  0.4820743830140  0.1522985195760 1.0
C      1  0.2852280385917  0.6827919032090  0.8059537868214 1.0
C      1  0.3993110696359  0.7852852856166  0.1801902675148 1.0
C      1  0.6132091040483  0.8164011798888  0.8727651488924 1.0
C      1  0.7083975096215  0.6613145944641  0.2226741799909 1.0
C      1  0.7656050627823  0.4914815941802  0.8344590441412 1.0
C      1  0.1358209767234  0.4450993404420  0.3629069730001 1.0
C      1  0.2488767998360  0.6577861308514  0.5993534755752 1.0
C      1  0.3335246619606  0.8475654026325  0.3422509836720 1.0
C      1  0.6053279571432  0.8612069323284  0.6396647797902 1.0
C      1  0.7549644954475  0.7144632295397  0.4086590756322 1.0
C      1  0.8853178279452  0.5440311048823  0.6859601995747 1.0
C      1  0.7613707866070  0.2792496196810  0.3893640262366 1.0
C      1  0.6403244855564  0.1569176680473  0.6044490311451 1.0
C      1  0.3889772144004  0.1380801124771  0.3929330860042 1.0
C      1  0.2776159206195  0.2295588373141  0.5869283166212 1.0
C      1  0.4210678433941  0.8297051162156  0.5170711711137 1.0
C      1  0.5674471343045  0.8652359569087  0.4157130293574 1.0
C      1  0.8138639793229  0.7676514342002  0.5976901853637 1.0
C      1  0.8251577272345  0.4799365518789  0.4956355185397 1.0
C      1  0.7956368158299  0.3369981112549  0.5904099263644 1.0
C      1  0.5774224072374  0.1249231457341  0.4434867259311 1.0
C      1  0.4153104261933  0.1421884936836  0.4898536565665 1.0
C      1  0.2731663284843  0.3017366442051  0.4104333796624 1.0
C      1  0.1648019900782  0.4257294179202  0.4566352581094 1.0
C      1  0.2391026154483  0.6440382119896  0.4077144928465 1.0
C      1  0.2365185942257  0.2188857449525  0.3784793611979 1.0
C      1  0.1287800759267  0.4622340179039  0.5289534653638 1.0
C      1  0.1552993226470  0.6122141687522  0.3847329016119 1.0
C      1  0.4362449640847  0.8730973193914  0.5960753915256 1.0
C      1  0.5884463151139  0.9582472442474  0.3827786407030 1.0
C      1  0.8626636259143  0.7801902209194  0.6656494878926 1.0
C      1  0.8431423711391  0.4378514292941  0.4173629925185 1.0
C      1  0.8803230414322  0.2938802200587  0.6070750189021 1.0
C      1  0.5935118987556  0.0499529635486  0.3806739927798 1.0
C      1  0.3632053510355  0.1770912537356  0.5654096137355 1.0
C      1  0.4359784264429  0.6443998223758  0.9316407011256 1.0
C      1  0.4468579234712  0.6307535694728  0.1569765799618 1.0
C      1  0.5009505060974  0.7073403807214  0.9376583265063 1.0
C      1  0.5457481231730  0.6172651711017  0.2024029569110 1.0
C      1  0.6110875406722  0.5019084175616  0.8661186613819 1.0
C      1  0.6079166683883  0.3804469482804  0.1232473032662 1.0
C      1  0.4966843752870  0.3957346106280  0.8872576498603 1.0
C      1  0.5229792641078  0.3422311225523  0.1049601924897 1.0
C      1  0.3964081282658  0.4009181579789  0.8874893838126 1.0
C      1  0.3601630244649  0.4945826137440  0.1345924923967 1.0
C      1  0.8139115306851  0.4268250661567  0.8110494791223 1.0
C      1  0.7210302985262  0.1983488405493  0.2185753419676 1.0
C      1  0.5400191736630  0.1870892821486  0.7497704849037 1.0
C      1  0.3757184852854  0.1748472005695  0.2355258591081 1.0
C      1  0.2246855454678  0.3218526353282  0.7110273176652 1.0
C      1  0.1502528785604  0.5405563363001  0.1809673887055 1.0
C      1  0.2795320147190  0.7460798719188  0.7521731188572 1.0
C      1  0.4513497715873  0.8500808731534  0.1961699860293 1.0
C      1  0.6769190267810  0.8310375711435  0.8206243914399 1.0
C      1  0.7767211401517  0.6257645281280  0.2554636459892 1.0
C      1  0.6042769949684  0.1075022101565  0.2972694454111 1.0
C      1  0.4081129958840  0.1775648299498  0.6510290392587 1.0
C      1  0.2165592507746  0.2312471142231  0.2835918484786 1.0
C      1  0.1586343648755  0.4416956929602  0.6158291115135 1.0
C      1  0.1533460478686  0.6622273315788  0.3011461753317 1.0
C      1  0.3847935406962  0.8446855336654  0.6745790734907 1.0
C      1  0.5775639202462  0.8915466716729  0.3123997486832 1.0
C      1  0.8048235004197  0.7583483085620  0.7428553435954 1.0
C      1  0.8298210584432  0.4896988503928  0.3359383896816 1.0
C      1  0.8268731851266  0.3068379640536  0.6890430895637 1.0
C      1  0.2845131701364  0.4401839780005  0.1649836599190 1.0
C      1  0.3184146575122  0.6015530136127  0.8337729082095 1.0
C      1  0.3784401268365  0.6976691040396  0.1923403357850 1.0
C      1  0.5327768000217  0.7724294458411  0.8783043953168 1.0
C      1  0.6189243144762  0.6812690795675  0.2304332337723 1.0
C      1  0.6905032225799  0.5440836421823  0.8271570445389 1.0
C      1  0.6874371966701  0.3548875062659  0.1691555514782 1.0
C      1  0.6136330220136  0.3396309669822  0.7773099259333 1.0
C      1  0.4858507261484  0.2763540240983  0.1659248827982 1.0
C      1  0.3446817821908  0.3608782451314  0.8223979027243 1.0
C      1  0.2482371835370  0.3670579289776  0.4777537238234 1.0
C      1  0.3318490890660  0.6066527613405  0.4268780906434 1.0
C      1  0.3572656188931  0.7554376896719  0.5188854098238 1.0
C      1  0.4741231892265  0.8240512875528  0.4313812951703 1.0
C      1  0.7209894748278  0.7482672961513  0.5990481951165 1.0
C      1  0.7921965218569  0.5724813127889  0.4942509038277 1.0
C      1  0.8017897345140  0.4378091467186  0.5829609437437 1.0
C      1  0.6149865961407  0.2097370123476  0.4270300395352 1.0
C      1  0.5075467358452  0.1246927714266  0.5121251878316 1.0
C      1  0.3571763064299  0.3315705719573  0.3777127885422 1.0
C      1  0.5214920039436  0.4171873855284  0.3155153293589 1.0
C      1  0.4747320247765  0.4511070381621  0.7008468726613 1.0
C      1  0.4352870496334  0.4407462913711  0.3005077125464 1.0
C      1  0.4167867113654  0.5278550990905  0.7280816932023 1.0
C      1  0.4235955166284  0.5390982873821  0.2875668754438 1.0
C      1  0.4741595981943  0.6073932185807  0.7250337160132 1.0
C      1  0.5181016284467  0.5823108856397  0.2979038847822 1.0
C      1  0.5537923771908  0.5836023139324  0.6651514607357 1.0
C      1  0.5786004283500  0.4978207210940  0.3102829128607 1.0
C      1  0.5633579822958  0.4851584617171  0.6781112240274 1.0
C      1  0.4233795838097  0.8666012694186  0.3515846256600 1.0
C      1  0.6816537619145  0.8198664957557  0.6603879055314 1.0
C      1  0.7953806522574  0.6283923023309  0.4173679415526 1.0
C      1  0.8673658361039  0.4562557101576  0.6629683052912 1.0
C      1  0.7004676546891  0.2143734888418  0.3747510666481 1.0
C      1  0.5487042586301  0.1326156612860  0.5961330278216 1.0
C      1  0.2972744073410  0.1457712345569  0.3651339528048 1.0
C      1  0.2301964724799  0.3066345751806  0.5583684623085 1.0
C      1  0.1119328362174  0.5347032417084  0.3452036816963 1.0
C      1  0.2973753900365  0.7381809437473  0.5908893156749 1.0
C      1  0.8060316963470  0.3541920923401  0.3721498433283 1.0
C      1  0.6939638161776  0.2109221490250  0.6335873933868 1.0
C      1  0.4372861226238  0.1456325302879  0.3081634299597 1.0
C      1  0.2724212491878  0.2413702320988  0.6856612439864 1.0
C      1  0.1492790842694  0.3825767819280  0.2984560472514 1.0
C      1  0.2167454171770  0.5915050645217  0.6356153915862 1.0
C      1  0.2647124993415  0.8025601173290  0.3345896494952 1.0
C      1  0.5194001554606  0.8765095621734  0.6521736454859 1.0
C      1  0.7150799580184  0.7803946268716  0.3787357688793 1.0
C      1  0.8540168019791  0.6086858668861  0.7261331236662 1.0
C      1  0.4826613974498  0.7691574797173  0.7914656877139 1.0
C      1  0.5868324558423  0.7258248898812  0.3095524816811 1.0
C      1  0.6961898245979  0.6216763810728  0.7644614731808 1.0
C      1  0.7144720668220  0.4202336453459  0.2365743343216 1.0
C      1  0.6639859667107  0.3608408710740  0.7003546153400 1.0
C      1  0.5348254881319  0.2584165689294  0.2536796764364 1.0
C      1  0.3971044262896  0.3089482398946  0.7557739999521 1.0
C      1  0.2906573988450  0.3757123427488  0.2329779301236 1.0
C      1  0.2561057226764  0.4745404327399  0.7433441011181 1.0
C      1  0.3226501019927  0.6650600766543  0.2703589998048 1.0
C      1  0.5772188504094  0.4058056850030  0.8408083056856 1.0
C      1  0.4058971361403  0.5470825832981  0.1914471188808 1.0
C      1  0.4487277457850  0.5463424428472  0.5269493287838 1.0
C      1  0.5114393935970  0.5780908252056  0.5722971533411 1.0
END
