TITL C-20921-2486-15 -9.071 3375.00 -1666.94646266 0 0 206 (C1) n - 1
REM
REM Run started: at 2020.12.14 04:29:18 in /gpfs/home/chem/mssmkc/CARBON/AIRSS/Generating-Clusters/Str-Search/Higher-Symm
REM VASP from code version vasp.5.4.4.18Apr17-6-g9f103f2a35 (build Oct 11 2019 16:45:47) gamma-only
REM
REM
REM
REM
REM ./C.cell (e5ae0387ce4d49c7c0135a1433873289)
REM AIRSS Version 0.9.1 bugfix July 2018 build 013d7b7c2542+ Fri, 06 Jul 2018 19:26:36 +0100
REM compiler GCC version 6.3.0
REM options -cpp -iprefix /gpfs/warwick/csc/orac/software/Core/GCCcore/6.3.0/bin/../lib/gcc/x86_64-pc-linux-gnu/6.3.0/ -mtune=generic -march=x86-64 -g -O0
REM seed 1197085721 1991763021 709228662 526369078 -161915605 679329944 -1624758185 831396251 -1707167834 451706897 461269 676233223
REM
REM C.POTCAR (d86ddea03c3ceb6dc662c8ad6801f873)
REM 
CELL 1.54180   15.00000   15.00000   15.00000   90.00000   90.00000   90.00000
LATT -1
SFAC C  
C      1  0.2510173452183  0.2605116512578  0.5712447309064 1.0
C      1  0.2883435671841  0.4655320531695  0.7770163393042 1.0
C      1  0.2730250442336  0.7317857260101  0.6483289955993 1.0
C      1  0.2367086130230  0.6870445661225  0.3508060408655 1.0
C      1  0.2210828134814  0.3965334128797  0.3048971675542 1.0
C      1  0.7407263960459  0.2428676068919  0.5113083360520 1.0
C      1  0.7678752533122  0.4501802355164  0.7139068498703 1.0
C      1  0.7702949608737  0.7073514140205  0.5900951960710 1.0
C      1  0.7383046581681  0.6659190254888  0.2995462111240 1.0
C      1  0.7143956563604  0.3886248219802  0.2527616601609 1.0
C      1  0.7812721362226  0.5482208902215  0.6996376768530 1.0
C      1  0.7755050693230  0.7248459873598  0.4908467619780 1.0
C      1  0.7246273001543  0.5821596284317  0.2434799821922 1.0
C      1  0.7206587769558  0.3127607085955  0.3185320028797 1.0
C      1  0.7627095253309  0.2863609296495  0.5990604217371 1.0
C      1  0.2753422804956  0.5626089249805  0.7634932739487 1.0
C      1  0.2550759230157  0.7452892377918  0.5512858461071 1.0
C      1  0.2223757571073  0.6000901774939  0.3046608547835 1.0
C      1  0.2189388416035  0.3252895465663  0.3756413682701 1.0
C      1  0.2555342401612  0.3089272314367  0.6578185817285 1.0
C      1  0.5436775344556  0.3888064067851  0.2004983109170 1.0
C      1  0.6003085300226  0.1774454051268  0.5046581582376 1.0
C      1  0.6362379347570  0.4154221472963  0.7774614394482 1.0
C      1  0.6530202764352  0.7680589602765  0.6622490000669 1.0
C      1  0.5802302967314  0.7547715879289  0.3179536843245 1.0
C      1  0.3351373877249  0.3656594490633  0.2090890291475 1.0
C      1  0.3796649463532  0.1837746118668  0.5268416711244 1.0
C      1  0.4251908977477  0.4320991486250  0.8295460919770 1.0
C      1  0.4075856325204  0.7826227881826  0.6995488349469 1.0
C      1  0.3704813066480  0.7668408090087  0.3188625255266 1.0
C      1  0.4646983220427  0.9776349960143  0.5819152798421 1.0
C      1  0.3957800867095  0.3248124486982  0.0525127709665 1.0
C      1  0.4708596465234  0.0444977981377  0.6534670447665 1.0
C      1  0.6848848689711  0.6611633922065  0.1112556520951 1.0
C      1  0.3633044130594  0.2878395591333  0.9681488778631 1.0
C      1  0.5597396321598  0.9610003055416  0.5843735754407 1.0
C      1  0.4765887554904  0.3199845844290  0.9979794980397 1.0
C      1  0.5489319849660  0.9856930520932  0.6741579348791 1.0
C      1  0.6092945713862  0.6949308661573  0.1136421218907 1.0
C      1  0.4497309539126  0.2530261467468  0.9368978443584 1.0
C      1  0.5326248781588  0.4743822110134  0.4170091385930 1.0
C      1  0.5393751815775  0.4080005108096  0.5025283977076 1.0
C      1  0.5365512017608  0.4423825266493  0.5983783816966 1.0
C      1  0.5444818674470  0.6221991359573  0.5280382724902 1.0
C      1  0.5418683719102  0.5773749333694  0.4367372405986 1.0
C      1  0.4576645741018  0.4750636197635  0.3514741798612 1.0
C      1  0.4655460340583  0.3492919329790  0.4879882306262 1.0
C      1  0.4610933710027  0.5032538596813  0.5950410732579 1.0
C      1  0.4829577097451  0.6003876506311  0.5994721790440 1.0
C      1  0.4728929447021  0.6474273566490  0.4216426443997 1.0
C      1  0.4462866215991  0.2072818863357  0.6046312156484 1.0
C      1  0.4816639173480  0.5218265709738  0.8186903884547 1.0
C      1  0.4231464268584  0.8153428884274  0.6022427902599 1.0
C      1  0.4186893585492  0.6907566675113  0.2554415265812 1.0
C      1  0.3965242703607  0.3007762040289  0.2676752909791 1.0
C      1  0.5594904871396  0.2135250316693  0.5979588976600 1.0
C      1  0.5904593647758  0.5133042689936  0.7943896721137 1.0
C      1  0.6214619716410  0.8101945652063  0.5734429317560 1.0
C      1  0.5275312558217  0.6946300683908  0.2587724978961 1.0
C      1  0.5108340866202  0.3096001213137  0.2562057618481 1.0
C      1  0.4211566600772  0.8931168644272  0.5519611805656 1.0
C      1  0.4399991536102  0.6780677939744  0.1527394243777 1.0
C      1  0.4108752789984  0.1990950221755  0.2776693583556 1.0
C      1  0.4666003543329  0.1326293977641  0.6700322990558 1.0
C      1  0.5039763020224  0.6113422173101  0.8685706476757 1.0
C      1  0.5944427954436  0.8880932190181  0.5328005605677 1.0
C      1  0.5293338462111  0.7070736671183  0.1585914812247 1.0
C      1  0.5070587336082  0.2023286367225  0.2667609138903 1.0
C      1  0.5466796532821  0.1839214810127  0.6999459926093 1.0
C      1  0.5977042566787  0.6053192148578  0.8490756404253 1.0
C      1  0.3033823043793  0.7989895713862  0.7229536079475 1.0
C      1  0.2631231747064  0.7803100373614  0.3059918880288 1.0
C      1  0.2334629933989  0.3759959907160  0.2059367641625 1.0
C      1  0.2777755950590  0.1610352649644  0.5485648132170 1.0
C      1  0.3273361640042  0.4241305980536  0.8659590033070 1.0
C      1  0.7651183265504  0.7713376432465  0.6724956347692 1.0
C      1  0.8032672944573  0.7347368951080  0.2833654910265 1.0
C      1  0.7734314094603  0.3926629488588  0.1781268992628 1.0
C      1  0.7020274425600  0.1480208862123  0.4956378101811 1.0
C      1  0.7409873631788  0.3964778255757  0.8016018167537 1.0
C      1  0.6162516800851  0.7413827239720  0.5024565876011 1.0
C      1  0.5587317610434  0.5926686323072  0.2813557392088 1.0
C      1  0.5533665206054  0.3279400555559  0.3483706880480 1.0
C      1  0.5964474408985  0.3061083633621  0.6059981872919 1.0
C      1  0.6053348545662  0.5562451580726  0.7020906654672 1.0
C      1  0.4180790710154  0.7382246827999  0.5391116836621 1.0
C      1  0.3883744741493  0.6002110235060  0.2950399427306 1.0
C      1  0.3839624576782  0.3273086266806  0.3623855341699 1.0
C      1  0.4272901700957  0.3074111756712  0.6352609419590 1.0
C      1  0.4412910880541  0.5666795094050  0.7386881770179 1.0
C      1  0.1523997454876  0.5596521424283  0.4639872818025 1.0
C      1  0.1498649629346  0.4584356503911  0.4619336751753 1.0
C      1  0.1593031462643  0.4228188359417  0.5571554131403 1.0
C      1  0.1638930418237  0.5041990486353  0.6142047677547 1.0
C      1  0.1603496924165  0.5825858128564  0.5605272397777 1.0
C      1  0.8449885492721  0.5277692378653  0.4007425418671 1.0
C      1  0.8413294748600  0.4310852292939  0.3986282419216 1.0
C      1  0.8489198184357  0.3955884645711  0.4905999491476 1.0
C      1  0.8580879707860  0.4771186062245  0.5520476714639 1.0
C      1  0.8586229705897  0.5567616636481  0.4920926429059 1.0
C      1  0.7035605537921  0.2179647500459  0.3095491614943 1.0
C      1  0.7504452677487  0.2635962249983  0.6939441094423 1.0
C      1  0.7725131778523  0.6259862073092  0.7570143817802 1.0
C      1  0.7763879540173  0.8017592383811  0.4313460341005 1.0
C      1  0.7483609497056  0.5976624633169  0.1406068261549 1.0
C      1  0.2333518800048  0.2288100718471  0.3658785059910 1.0
C      1  0.2794396240204  0.2813698145012  0.7466586828969 1.0
C      1  0.2908590806825  0.6335449828984  0.8290639814885 1.0
C      1  0.2602450821137  0.8274158448207  0.5003913396469 1.0
C      1  0.2267964024932  0.5786839912549  0.2080246827524 1.0
C      1  0.3258548087097  0.7081944325633  0.3970603728470 1.0
C      1  0.3095253512009  0.4484379919897  0.2871393886757 1.0
C      1  0.3284286549418  0.2743775135672  0.5071395678636 1.0
C      1  0.3723742233736  0.4250748115224  0.7361527491271 1.0
C      1  0.3612784472124  0.6914057654865  0.6791482728756 1.0
C      1  0.6574278114573  0.7003271223085  0.3549198241777 1.0
C      1  0.6219484986906  0.4397226831765  0.2510182499874 1.0
C      1  0.6475545330505  0.2655727369818  0.4655713324327 1.0
C      1  0.6775719207138  0.4190865217666  0.6842501639357 1.0
C      1  0.6809650120949  0.6755201218318  0.6253770585073 1.0
C      1  0.3305290652676  0.7558209318012  0.4850090009392 1.0
C      1  0.3034768409659  0.5486970477513  0.2685152338790 1.0
C      1  0.3054246708768  0.2870261771067  0.4101777847206 1.0
C      1  0.3516583882347  0.3331046379992  0.6990527020393 1.0
C      1  0.3576450674008  0.6229755942323  0.7534139988771 1.0
C      1  0.6907215873283  0.7488621932225  0.4354531178564 1.0
C      1  0.6342562131074  0.5399683477097  0.2396237791296 1.0
C      1  0.6397112369082  0.2746829425780  0.3654929072109 1.0
C      1  0.6836453964491  0.3234548140378  0.6518259542938 1.0
C      1  0.6950448578674  0.6071713852349  0.6961449367814 1.0
C      1  0.6861439311501  0.4461298122245  0.4002413361974 1.0
C      1  0.6807607727851  0.4250991973348  0.4970599313172 1.0
C      1  0.6796797864808  0.4992882217605  0.5484170697650 1.0
C      1  0.7038221553998  0.5837117963081  0.5019442688182 1.0
C      1  0.6952913369776  0.5512378063447  0.4004502646469 1.0
C      1  0.3363973321680  0.4666616944497  0.4515499873827 1.0
C      1  0.3352958304736  0.4359158460010  0.5454991127496 1.0
C      1  0.3126100389694  0.5085220234216  0.6204211993852 1.0
C      1  0.3147164669624  0.5973137800047  0.5637769098922 1.0
C      1  0.3456871332229  0.5641308563876  0.4720469632110 1.0
C      1  0.6364580164321  0.6499416361689  0.5422431726793 1.0
C      1  0.6141680706877  0.6058852839461  0.3725313883415 1.0
C      1  0.5974580725150  0.4257943572623  0.3545003051290 1.0
C      1  0.6195992932845  0.3483502603064  0.5144300892877 1.0
C      1  0.6243717523213  0.4840669628937  0.6297705595294 1.0
C      1  0.3964167394225  0.6537173360525  0.5939747014619 1.0
C      1  0.3809227202589  0.6266631697870  0.3982799033919 1.0
C      1  0.3698718807255  0.4298957941963  0.3638712767316 1.0
C      1  0.3871346422091  0.3457432107329  0.5467186627678 1.0
C      1  0.3998561057957  0.4965267133884  0.6728661265809 1.0
C      1  0.4177916580794  0.1426770060401  0.3552592852940 1.0
C      1  0.4865529453750  0.2660862995044  0.8464155553306 1.0
C      1  0.4995090637340  0.7058862876096  0.8405638183321 1.0
C      1  0.4497393540244  0.8784582957847  0.4526026833007 1.0
C      1  0.4355074428944  0.5913178728819  0.1139341630048 1.0
C      1  0.5204520743916  0.1444166546874  0.3443111728780 1.0
C      1  0.5462403471043  0.2449308695281  0.7688563468278 1.0
C      1  0.5996723304217  0.6989472789557  0.8200732931521 1.0
C      1  0.5446504309232  0.8769233243872  0.4448079262963 1.0
C      1  0.4657052030409  0.5139245054513  0.1176645278308 1.0
C      1  0.2660022847215  0.2900261008040  0.8326765602016 1.0
C      1  0.2628257444424  0.7171752005197  0.8386765319474 1.0
C      1  0.2230354983832  0.8605912111898  0.4268084648518 1.0
C      1  0.1918879483883  0.5098080768532  0.1639571459629 1.0
C      1  0.2103440369146  0.1613973709029  0.4190129074489 1.0
C      1  0.7811380098159  0.2918585559272  0.7739652813880 1.0
C      1  0.8061944900455  0.7100730925213  0.7554857353988 1.0
C      1  0.8218902090447  0.7984426641777  0.3500671917725 1.0
C      1  0.7983860721452  0.5379705216991  0.0933003551876 1.0
C      1  0.7332065044879  0.1449204847800  0.3503143155802 1.0
C      1  0.2270824420003  0.8570373775294  0.3413471240688 1.0
C      1  0.1959244270412  0.4266553626675  0.1382083405695 1.0
C      1  0.2329429201082  0.1105981296341  0.4856367236047 1.0
C      1  0.3077569547029  0.3357649010839  0.8991878824970 1.0
C      1  0.2726083842066  0.7977037041599  0.8088383878547 1.0
C      1  0.8704874144533  0.7985312507274  0.2687154173650 1.0
C      1  0.7952761522127  0.4558893127622  0.1277868660926 1.0
C      1  0.7262716104913  0.0982914217545  0.4226341414178 1.0
C      1  0.7764053155234  0.3258726344268  0.8558927788275 1.0
C      1  0.8159393370120  0.7979391310608  0.7498028692472 1.0
C      1  0.2343793524762  0.5065919746663  0.6878383503391 1.0
C      1  0.2270792797361  0.6548446914527  0.5819870170357 1.0
C      1  0.1760137715657  0.6122341665732  0.3895387215966 1.0
C      1  0.1667946315118  0.4050401088197  0.3891044547331 1.0
C      1  0.1900113983475  0.3392463220471  0.5892472776394 1.0
C      1  0.8303707090840  0.4849725257136  0.6414654708281 1.0
C      1  0.7983499632246  0.6315093435632  0.5182461457769 1.0
C      1  0.7728555524499  0.5748600090118  0.3402126914431 1.0
C      1  0.7609989334246  0.3974388483210  0.3500416816202 1.0
C      1  0.8130655788866  0.3139985625265  0.5213040298864 1.0
C      1  0.5551189201540  0.3491423653370  0.7551234854986 1.0
C      1  0.5897004369776  0.7558768863352  0.7435736073105 1.0
C      1  0.5368422574816  0.8237633842122  0.3594105808146 1.0
C      1  0.4792439960152  0.4243354781899  0.1449692271266 1.0
C      1  0.5300690638248  0.1420309675137  0.4396488076961 1.0
C      1  0.4855242292647  0.3547869420872  0.8249357938315 1.0
C      1  0.4882514837340  0.7634932753625  0.7638494320585 1.0
C      1  0.4358229909158  0.8309704227967  0.3636533877795 1.0
C      1  0.3933772121596  0.3732996030795  0.1285807216142 1.0
C      1  0.4297711399168  0.1422926149182  0.4498226018726 1.0
C      1  0.4716523853141  0.3146047923139  0.4068258289444 1.0
C      1  0.5046694003851  0.7097945511602  0.4889090211204 1.0
C      1  0.5222031841389  0.3572791778446  0.6540633414965 1.0
C      1  0.5194081518050  0.6053382615938  0.6880894631871 1.0
C      1  0.4702931015875  0.5431309882259  0.2936630839943 1.0
C      1  0.4092906078176  0.4971752465211  0.5107463952196 1.0
END
