TITL C-208023-555-6 -4.267 3375.00 -731.30850842 0 0 91 (C1) n - 1
REM
REM Run started: at 2020.11.30 22:20:26 in /rds/project/t2_vol4/rds-t2-cs072/BORA/CARBON/AIRSS/Generating-Clusters/Str-Search/Higher-Symm/C10-100
REM VASP from code version vasp.5.4.4.18Apr17-6-g9f103f2a35 (build Oct 11 2019 16:45:47) gamma-only
REM
REM
REM
REM
REM ./C.cell (f39ce9773e2efe3fa5bbdf770a4156b8)
REM AIRSS Version 0.9.1 bugfix July 2018 build 013d7b7c2542+ Fri, 06 Jul 2018 19:26:36 +0100
REM compiler GCC version 4.8.5 20150623 (Red Hat 4.8.5-39)
REM options -cpp -mtune=generic -march=x86-64 -g -O0
REM seed 2071481291 1023334270 746761542 -1316803825 2142082990 -789494750 1047237189 661851027 278860620 554284784 -1866711396 -291797973
REM
REM C.POTCAR (d86ddea03c3ceb6dc662c8ad6801f873)
REM 
CELL 1.54180   15.00000   15.00000   15.00000   90.00000   90.00000   90.00000
LATT -1
SFAC C  
C      1  0.2416239428015  0.3880228284571  0.4380128941450 1.0
C      1  0.7663714913597  0.3818495367926  0.5607383343744 1.0
C      1  0.2300181708466  0.6256180945178  0.5677671355027 1.0
C      1  0.7560136828734  0.6231606808801  0.4355569673159 1.0
C      1  0.4599404245717  0.6286802001754  0.4056094611522 1.0
C      1  0.5455792585912  0.6224883540607  0.5890019750282 1.0
C      1  0.4352128898261  0.3870006222355  0.5929649517218 1.0
C      1  0.5406604375136  0.3790667718002  0.4114130164942 1.0
C      1  0.6651017706312  0.4644113079382  0.6838183074448 1.0
C      1  0.3256216665103  0.4666713692547  0.3069700521822 1.0
C      1  0.6752284518610  0.5376656886955  0.3068078251847 1.0
C      1  0.3362669631517  0.5308413180693  0.6828156833099 1.0
C      1  0.5552162985129  0.7855854367716  0.4176944706968 1.0
C      1  0.4532599156305  0.7840902804295  0.5828727685527 1.0
C      1  0.5624278833435  0.2211127330657  0.5864606650876 1.0
C      1  0.4499444655048  0.2189241080316  0.4304030738081 1.0
C      1  0.4223955641732  0.4702437598380  0.5481592440050 1.0
C      1  0.5781354215871  0.4646484980591  0.4363513474421 1.0
C      1  0.4218109675878  0.5449587704150  0.4339457540152 1.0
C      1  0.5753632066829  0.5360967215366  0.5561797919348 1.0
C      1  0.6969618952877  0.6535446709691  0.7175274993469 1.0
C      1  0.3076259640439  0.6611492495599  0.2832880122327 1.0
C      1  0.6934325588844  0.3430716790795  0.2927058352177 1.0
C      1  0.3599434719157  0.3542332944689  0.6451172446571 1.0
C      1  0.6837752065165  0.6370068683573  0.2921004767283 1.0
C      1  0.3191759659242  0.6302207121449  0.7045422480557 1.0
C      1  0.6847596019674  0.3666673101152  0.6998597136281 1.0
C      1  0.3170038933695  0.3667501141988  0.2971951688992 1.0
C      1  0.4522639755521  0.7091663631443  0.6543012745417 1.0
C      1  0.5533600653439  0.7138236963547  0.3436719422952 1.0
C      1  0.4472038947248  0.2908984276014  0.3538371864250 1.0
C      1  0.5536817251094  0.2847065720929  0.6655474171921 1.0
C      1  0.5522552949585  0.2175573244610  0.4273985460079 1.0
C      1  0.4568243251890  0.2106140961877  0.5941803542390 1.0
C      1  0.5566156759940  0.7819141826391  0.5797409602795 1.0
C      1  0.4516260541983  0.7889325989268  0.4215236943711 1.0
C      1  0.5888644364436  0.5069228900983  0.2613427099556 1.0
C      1  0.4102668918548  0.4967825554789  0.7496654399827 1.0
C      1  0.5948422700842  0.4936564569151  0.7529906960919 1.0
C      1  0.4124433442369  0.4952460591488  0.2614840105619 1.0
C      1  0.5965834943495  0.7878628782109  0.4983135817847 1.0
C      1  0.4112557380550  0.7935151427009  0.5027812287672 1.0
C      1  0.5991833084360  0.2153889189188  0.5055208647816 1.0
C      1  0.4136388985270  0.2105641556082  0.5143419020169 1.0
C      1  0.4055823294995  0.5467286281924  0.6097429215877 1.0
C      1  0.5900617823547  0.5370653524090  0.3666419358910 1.0
C      1  0.4103987325684  0.4692217456621  0.3674456900632 1.0
C      1  0.5836040374612  0.4528895608305  0.6160032356185 1.0
C      1  0.4495847154379  0.7146417482032  0.3513588087546 1.0
C      1  0.5567369294098  0.7060914759325  0.6482456423202 1.0
C      1  0.4620780467230  0.2530474178398  0.6855985039156 1.0
C      1  0.5509549493804  0.2914932083647  0.3590005364716 1.0
C      1  0.2586303928822  0.5228167930672  0.3575858398909 1.0
C      1  0.7341372461146  0.5189349692055  0.6333081047701 1.0
C      1  0.2673556277391  0.4796323215587  0.6247524701722 1.0
C      1  0.7408208386445  0.4846379017708  0.3619801313779 1.0
C      1  0.6061116918349  0.6605835683945  0.7226993962029 1.0
C      1  0.3980769823804  0.6681028811477  0.2774019271792 1.0
C      1  0.6030265577193  0.3357861367690  0.2846386814895 1.0
C      1  0.4097335002209  0.3224380765505  0.7222935838416 1.0
C      1  0.5492018168901  0.6225279270935  0.3922750857408 1.0
C      1  0.4538067347585  0.6246161485262  0.5979111685874 1.0
C      1  0.5288549735575  0.3755326715768  0.6098540195757 1.0
C      1  0.4512690441081  0.3843147100118  0.3975704500655 1.0
C      1  0.4042441939444  0.6602466548562  0.7310849931699 1.0
C      1  0.5997251878319  0.6690624084197  0.2638829005218 1.0
C      1  0.4011380182455  0.3328674581453  0.2714581720130 1.0
C      1  0.6055171343942  0.3339554770775  0.7352197819796 1.0
C      1  0.4586193927670  0.5811174585568  0.7623856559016 1.0
C      1  0.5423481535368  0.5918150931171  0.2333291746492 1.0
C      1  0.4590334279174  0.4088371460312  0.2372989483552 1.0
C      1  0.5480756839202  0.4098570911800  0.7695065547161 1.0
C      1  0.7407249088226  0.3403888874003  0.6282884769072 1.0
C      1  0.2634075333979  0.3418264927353  0.3717906012786 1.0
C      1  0.7367246354080  0.6648563996472  0.3659221756679 1.0
C      1  0.2610259519474  0.6605449289398  0.6368318385767 1.0
C      1  0.7415765792412  0.3985438484454  0.3358646098902 1.0
C      1  0.2797250402978  0.3918345066193  0.6248833516463 1.0
C      1  0.7420785937022  0.6019657007951  0.6662263188069 1.0
C      1  0.2584359734399  0.6075355621150  0.3275921422361 1.0
C      1  0.2504338912071  0.5350849425247  0.5392716726060 1.0
C      1  0.7442692023003  0.5278383311328  0.4548037302398 1.0
C      1  0.2527832899565  0.4841932254368  0.4518267959776 1.0
C      1  0.7444237814228  0.4762548706087  0.5418381281329 1.0
C      1  0.4509893449201  0.4074229698686  0.7621270189384 1.0
C      1  0.5525739208366  0.4127442366484  0.2457895640479 1.0
C      1  0.4487206752777  0.5889172302641  0.2422267396280 1.0
C      1  0.5551425821552  0.5812007962655  0.7581351606812 1.0
C      1  0.6517736401262  0.4980299341611  0.4996314526784 1.0
C      1  0.3459715518510  0.5133331546220  0.4949117066302 1.0
C      1  0.4996992569201  0.5042844528749  0.4930562731494 1.0
END
