TITL C-20921-2486-4 -12.002 3375.00 -2334.28247303 0 0 282 (C1) n - 1
REM
REM Run started: at 2020.12.13 12:36:09 in /gpfs/home/chem/mssmkc/CARBON/AIRSS/Generating-Clusters/Str-Search/Higher-Symm
REM VASP from code version vasp.5.4.4.18Apr17-6-g9f103f2a35 (build Oct 11 2019 16:45:47) gamma-only
REM
REM
REM
REM
REM ./C.cell (e5ae0387ce4d49c7c0135a1433873289)
REM AIRSS Version 0.9.1 bugfix July 2018 build 013d7b7c2542+ Fri, 06 Jul 2018 19:26:36 +0100
REM compiler GCC version 6.3.0
REM options -cpp -iprefix /gpfs/warwick/csc/orac/software/Core/GCCcore/6.3.0/bin/../lib/gcc/x86_64-pc-linux-gnu/6.3.0/ -mtune=generic -march=x86-64 -g -O0
REM seed 2127560767 -1163068351 1198004751 1231098409 -370458487 1049757762 -409674804 1333788974 49833513 51767577 -1428777319 1674439925
REM
REM C.POTCAR (d86ddea03c3ceb6dc662c8ad6801f873)
REM 
CELL 1.54180   15.00000   15.00000   15.00000   90.00000   90.00000   90.00000
LATT -1
SFAC C  
C      1  0.2288511776146  0.6969927332401  0.5606209843170 1.0
C      1  0.4795019003720  0.6852085928549  0.7882014340810 1.0
C      1  0.7472154058568  0.6801486641103  0.6150569256884 1.0
C      1  0.6925315808016  0.6771196048413  0.2975407201569 1.0
C      1  0.3793320885020  0.6751207407992  0.2723888071749 1.0
C      1  0.2372749646420  0.3013983036317  0.4386160379369 1.0
C      1  0.4839326696206  0.3044257486007  0.2122617943148 1.0
C      1  0.7164198165327  0.3185345540189  0.4128886855977 1.0
C      1  0.6755719953410  0.3259462529293  0.6812318115469 1.0
C      1  0.3711034049242  0.3126179195061  0.7291368700290 1.0
C      1  0.4194294768603  0.8292704691902  0.7103721739649 1.0
C      1  0.6749201762211  0.8332223833669  0.6386253102664 1.0
C      1  0.6624776639087  0.8228110712032  0.3843028299940 1.0
C      1  0.4174663163566  0.8328051837064  0.3006565394663 1.0
C      1  0.2677923412761  0.8517264272716  0.4973576871548 1.0
C      1  0.4236408431183  0.1749582296736  0.2960220101821 1.0
C      1  0.6850278629913  0.1616495135456  0.3746641320461 1.0
C      1  0.6604291670976  0.1661573979479  0.6315805543427 1.0
C      1  0.4167210461918  0.1487665710399  0.7108964584080 1.0
C      1  0.2740776017123  0.1479538786299  0.5071714984000 1.0
C      1  0.7114073604390  0.4158985781259  0.6608451520308 1.0
C      1  0.6628969123363  0.3969742303472  0.3652650944253 1.0
C      1  0.4441593190652  0.3996198497736  0.2418165728814 1.0
C      1  0.2666532499667  0.3852584037779  0.5009773505550 1.0
C      1  0.4264432648715  0.3984315660232  0.7363482748040 1.0
C      1  0.7040489137386  0.5819622683368  0.3382424311283 1.0
C      1  0.7124521970679  0.5962281554932  0.6558877724052 1.0
C      1  0.4363497578507  0.5980224297029  0.7477881371387 1.0
C      1  0.2621781963533  0.6115633536894  0.4952945548858 1.0
C      1  0.4045643778556  0.5927044280017  0.2374095757253 1.0
C      1  0.6617574848958  0.7163122546249  0.8918008394718 1.0
C      1  0.9266408681413  0.7991275040849  0.5040558533445 1.0
C      1  0.6604399533330  0.8533754440679  0.1398698215948 1.0
C      1  0.1746855956240  0.7277986183770  0.2784675809286 1.0
C      1  0.1726267722723  0.7107815176369  0.7738041690526 1.0
C      1  0.6679806199483  0.3125690932482  0.1148394606759 1.0
C      1  0.8992518240996  0.2206694961215  0.4842452203897 1.0
C      1  0.6922301787978  0.1813370187631  0.8961220135398 1.0
C      1  0.1723767729848  0.2711729324624  0.7200731542830 1.0
C      1  0.1805544092268  0.2865845940398  0.2238975550870 1.0
C      1  0.7239066743219  0.4674889579660  0.1013089890747 1.0
C      1  0.2658366110344  0.4237974063002  0.1936226782540 1.0
C      1  0.1373377763241  0.4242666719585  0.6530930495925 1.0
C      1  0.4946074292490  0.4080632344920  0.8968573391593 1.0
C      1  0.9034152690075  0.4396062784652  0.6165112411300 1.0
C      1  0.7220206626679  0.5668420040102  0.8542736185105 1.0
C      1  0.2613957813761  0.5751550775490  0.8033909694635 1.0
C      1  0.1382993166156  0.5730539342320  0.3429558618822 1.0
C      1  0.4959725523922  0.6033499799498  0.0928391583390 1.0
C      1  0.8853459878671  0.5455309645498  0.3725236887700 1.0
C      1  0.5734923434740  0.1326148639692  0.6515110596366 1.0
C      1  0.6617582228700  0.1371888264825  0.4652268022105 1.0
C      1  0.5139433608065  0.1538183775075  0.3450257197174 1.0
C      1  0.3399845879051  0.1219618268803  0.4374592563165 1.0
C      1  0.3790674807279  0.1115935870745  0.6311900173113 1.0
C      1  0.5749548063727  0.8583391322189  0.3643637302906 1.0
C      1  0.6617261065285  0.8655232439810  0.5471748552730 1.0
C      1  0.5057627124475  0.8605632236479  0.6737758779574 1.0
C      1  0.3297126771629  0.8810068096977  0.5714182020449 1.0
C      1  0.3791711361981  0.8763462746197  0.3760588362400 1.0
C      1  0.9287319766184  0.4789944125885  0.2185324156897 1.0
C      1  0.3011126761673  0.6233731631345  0.0302642823277 1.0
C      1  0.0552781521932  0.5389058603329  0.4972451500995 1.0
C      1  0.2458866710946  0.6170789916019  0.9367658629905 1.0
C      1  0.8764297249419  0.4833066048816  0.8331891091424 1.0
C      1  0.9288885828451  0.5230216543768  0.7685834460065 1.0
C      1  0.3068187536730  0.3808099665247  0.9659517624892 1.0
C      1  0.0585634772493  0.4571845839556  0.4992164919334 1.0
C      1  0.2551605736614  0.3837986422974  0.0602723328750 1.0
C      1  0.8883305828760  0.5182620360211  0.1460379746768 1.0
C      1  0.4123416197418  0.9208771021556  0.5391958394220 1.0
C      1  0.4990563945388  0.8999987349898  0.5852627126767 1.0
C      1  0.5770654833579  0.9086725836581  0.5250065760889 1.0
C      1  0.5403354135472  0.9086047022458  0.4360674286791 1.0
C      1  0.4434798972947  0.8918578487634  0.4484590973590 1.0
C      1  0.4201741176329  0.0822085513154  0.4693654150578 1.0
C      1  0.4996515695164  0.0840038304629  0.4179889230630 1.0
C      1  0.5663906195172  0.1213201752042  0.4819840085325 1.0
C      1  0.5319194473521  0.1061321048422  0.5716941416851 1.0
C      1  0.4414427410095  0.0897563774723  0.5628715620538 1.0
C      1  0.7820489784053  0.5112673336637  0.3579874170703 1.0
C      1  0.4560503237503  0.5527957268805  0.1692535120571 1.0
C      1  0.2324584473730  0.5457400631039  0.4156186112785 1.0
C      1  0.3439192032890  0.5593822715687  0.7403614029800 1.0
C      1  0.6871783691173  0.5549476939595  0.7498051343194 1.0
C      1  0.7967615707970  0.4441131571335  0.6128541688101 1.0
C      1  0.4661613643324  0.4496671836671  0.8123663854340 1.0
C      1  0.2325126871826  0.4492834586157  0.5798291655361 1.0
C      1  0.3476752715679  0.4343369475880  0.2564355986499 1.0
C      1  0.7249714893459  0.4457658020375  0.2899886507103 1.0
C      1  0.6099037911647  0.5795387410992  0.2164034138228 1.0
C      1  0.2849642638390  0.5714492493854  0.3323818824915 1.0
C      1  0.2798288684541  0.5889495033356  0.6626552669111 1.0
C      1  0.5903415051193  0.5755930498039  0.7865509690419 1.0
C      1  0.7830104448630  0.5661137890393  0.5058623746116 1.0
C      1  0.6264807097321  0.4051457057984  0.7911900525027 1.0
C      1  0.2844820890086  0.4236836438220  0.6639437184125 1.0
C      1  0.2844108600381  0.4072922827933  0.3338131412622 1.0
C      1  0.5648600176727  0.4387570816762  0.1364252087872 1.0
C      1  0.7933656711686  0.4127862868246  0.5137981972847 1.0
C      1  0.6285122360116  0.4979214015082  0.0857410833762 1.0
C      1  0.2086615645962  0.4498326505849  0.2719539764938 1.0
C      1  0.2078129530002  0.4463351398874  0.7262439538537 1.0
C      1  0.5964056060606  0.4302247375658  0.8813271735272 1.0
C      1  0.8925886960391  0.4407582775990  0.5090342689940 1.0
C      1  0.6162667033295  0.5414478645567  0.8806249071700 1.0
C      1  0.2060904238591  0.5481722395958  0.7242992246317 1.0
C      1  0.2086804725751  0.5525364226028  0.2698341161033 1.0
C      1  0.6001696666726  0.5924366209355  0.1166020882441 1.0
C      1  0.8817027910503  0.5490597644197  0.4815929870812 1.0
C      1  0.7478615833040  0.2404034934069  0.3636565010229 1.0
C      1  0.4071978918011  0.2398930808098  0.2231913638742 1.0
C      1  0.2233130327085  0.2266566392248  0.5055768851037 1.0
C      1  0.3844505876500  0.2237686300270  0.7746927444865 1.0
C      1  0.7191750380818  0.2405861659389  0.6609595364468 1.0
C      1  0.7498081930837  0.7665521109438  0.6675374810744 1.0
C      1  0.4089293096945  0.7577751656415  0.7794305609315 1.0
C      1  0.2182960177096  0.7725449681520  0.4948410304494 1.0
C      1  0.3815515223809  0.7661561260798  0.2273726283757 1.0
C      1  0.7133838425474  0.7488642340376  0.3602807345725 1.0
C      1  0.9049886452638  0.2842933189162  0.4183033494468 1.0
C      1  0.5793447333181  0.3514530094509  0.0867439392668 1.0
C      1  0.1254412875562  0.3270808251547  0.2951424814324 1.0
C      1  0.2208628432385  0.3054278528623  0.7965162533813 1.0
C      1  0.6875218319091  0.2681296167710  0.8447023586192 1.0
C      1  0.8963059370533  0.7149420908495  0.5522949216544 1.0
C      1  0.5818372459663  0.6877824612289  0.9372338345606 1.0
C      1  0.1185356170446  0.6697004462193  0.7018911713170 1.0
C      1  0.2211820313068  0.6958045461975  0.1994909040870 1.0
C      1  0.6818070901776  0.7543478403028  0.1354931219878 1.0
C      1  0.2818217646713  0.2169906317722  0.3177608072735 1.0
C      1  0.2211922369174  0.1255500679475  0.6600338789522 1.0
C      1  0.5349522933573  0.1883710599406  0.8090045018172 1.0
C      1  0.7684257552768  0.2374239401021  0.5641461487891 1.0
C      1  0.6229556999517  0.2227729466443  0.2397398124612 1.0
C      1  0.2735326835942  0.7829443851007  0.6851016236533 1.0
C      1  0.2228468056322  0.8744705373909  0.3411649865038 1.0
C      1  0.5427492565144  0.7493728235361  0.2362929348719 1.0
C      1  0.7593841541607  0.7446758399687  0.4532180621180 1.0
C      1  0.6071777434210  0.7676809294524  0.7634874311175 1.0
C      1  0.5664769986801  0.3539717938852  0.3481343067477 1.0
C      1  0.4057736123590  0.3227774449847  0.3767756324770 1.0
C      1  0.3371310935133  0.3283707285393  0.5608056954537 1.0
C      1  0.5063925349672  0.3642590953478  0.6781080421600 1.0
C      1  0.6158156933246  0.4321942575968  0.5197548573978 1.0
C      1  0.5506224157949  0.6445959175609  0.6451072797210 1.0
C      1  0.3926493954035  0.6852287505007  0.6194212399096 1.0
C      1  0.3366249012353  0.6636075742584  0.4402484576184 1.0
C      1  0.5440912517521  0.6042857192025  0.3655214848793 1.0
C      1  0.6424931196485  0.6226821906540  0.5014854647582 1.0
C      1  0.3018878670363  0.7407174964552  0.1619820451232 1.0
C      1  0.1356593790453  0.6954580412835  0.6035630550793 1.0
C      1  0.4960245549302  0.6755510325748  0.8868697457521 1.0
C      1  0.8389831670521  0.7182011899515  0.6344890599886 1.0
C      1  0.7314904874664  0.6908181741113  0.1949736852136 1.0
C      1  0.3060526033770  0.2667093281710  0.8285416735059 1.0
C      1  0.1447945168311  0.3011258022152  0.3923898602544 1.0
C      1  0.4971778069173  0.3049378095221  0.1129456984313 1.0
C      1  0.8428069160145  0.2777647858193  0.3443408803772 1.0
C      1  0.7364380979447  0.2807267484352  0.7554106309859 1.0
C      1  0.9187997310406  0.4047240982371  0.2687019555551 1.0
C      1  0.3927632708478  0.3979569949643  0.0248949760220 1.0
C      1  0.0294245599453  0.3717628491952  0.4813595281385 1.0
C      1  0.2567521763747  0.4392736496801  0.8947803073550 1.0
C      1  0.8192570875782  0.4088753580535  0.8335354571434 1.0
C      1  0.9165429291448  0.5972378672460  0.7205642769393 1.0
C      1  0.3860696196622  0.6056005063952  0.9738865826943 1.0
C      1  0.0228659145526  0.6241871203830  0.5068323677448 1.0
C      1  0.2579960529959  0.5623373438327  0.1024310532896 1.0
C      1  0.8457568759414  0.5999213159697  0.1282433604583 1.0
C      1  0.6142518492610  0.1580712433155  0.3115077613920 1.0
C      1  0.3463086481298  0.1535930037828  0.3487974236649 1.0
C      1  0.2883049850610  0.1130551262723  0.5996332562842 1.0
C      1  0.5121560041737  0.1462110245938  0.7247508455583 1.0
C      1  0.6990945250981  0.1665614689508  0.5449913086825 1.0
C      1  0.5949904500990  0.8295196825913  0.6908804307057 1.0
C      1  0.3378836650174  0.8488226661279  0.6597806161093 1.0
C      1  0.2885402689753  0.8849353798935  0.4041920942367 1.0
C      1  0.5120218968408  0.8180403315797  0.3047035299649 1.0
C      1  0.6999323224493  0.8265377138593  0.4726934603887 1.0
C      1  0.4237755385707  0.6887078432981  0.4656007902737 1.0
C      1  0.4427256350905  0.7349054150302  0.5523880122664 1.0
C      1  0.5371301353379  0.7120041112604  0.5744918545075 1.0
C      1  0.5719926958354  0.6868612751753  0.4960757731839 1.0
C      1  0.5057618540413  0.6677006617568  0.4293234097370 1.0
C      1  0.4254777590713  0.3019251063804  0.5385833929688 1.0
C      1  0.4533654751959  0.2773299044752  0.4483204357834 1.0
C      1  0.5523176639833  0.3054522947561  0.4374967015692 1.0
C      1  0.5673870771784  0.3550839797898  0.5211874909646 1.0
C      1  0.4983076406501  0.3342897556620  0.5867644430652 1.0
C      1  0.6407582105222  0.7920449095683  0.8414181170716 1.0
C      1  0.8536548938663  0.7655591515253  0.4703767748544 1.0
C      1  0.6030469691829  0.8039815285413  0.1820660622407 1.0
C      1  0.1838276635182  0.8182408976424  0.2956152306158 1.0
C      1  0.2097425083522  0.7887080848634  0.7440018604448 1.0
C      1  0.6615325386909  0.2333923059498  0.1600145884995 1.0
C      1  0.8593313669414  0.1990398385590  0.5546406323084 1.0
C      1  0.6170905644463  0.1844824682803  0.8541353361375 1.0
C      1  0.1798091305152  0.1798393931201  0.7058750675485 1.0
C      1  0.2200918621735  0.2109508808631  0.2566918326165 1.0
C      1  0.8913620030315  0.3274863784607  0.7235320088391 1.0
C      1  0.7693587412841  0.3779991866865  0.2282885750221 1.0
C      1  0.3475860414844  0.2786967799221  0.1524274564105 1.0
C      1  0.1441894836451  0.2768258793168  0.5531301734223 1.0
C      1  0.4637392893299  0.2414680745983  0.8349540827977 1.0
C      1  0.8785418719762  0.6713353450102  0.2614303067334 1.0
C      1  0.7869688036428  0.7037166832920  0.7751940520544 1.0
C      1  0.3448736362610  0.7189950916086  0.8452832474908 1.0
C      1  0.1414164795089  0.7208121039054  0.4435831211552 1.0
C      1  0.4629960974514  0.7415541788870  0.1763349367627 1.0
C      1  0.0968868556475  0.3055510187842  0.4735529474741 1.0
C      1  0.3492430959126  0.3122290280141  0.9037053691846 1.0
C      1  0.8185835053900  0.3312157978121  0.7801509318081 1.0
C      1  0.8486147805873  0.3400550617917  0.2753167943886 1.0
C      1  0.4096445514877  0.3228679929090  0.0855156846850 1.0
C      1  0.0899334190352  0.6909652907225  0.5208539509681 1.0
C      1  0.3432340859723  0.6983756549059  0.0891468350136 1.0
C      1  0.8259445844737  0.6703219039168  0.1849508207907 1.0
C      1  0.8598133502284  0.6738481777510  0.7208693151477 1.0
C      1  0.4013572087048  0.6719868292760  0.9111856238226 1.0
C      1  0.1373527722316  0.3201952836577  0.6410263076765 1.0
C      1  0.4451812876967  0.3132071523407  0.8942256865422 1.0
C      1  0.9333994275276  0.3529485161017  0.6563778453883 1.0
C      1  0.7335444196433  0.3787218441851  0.1385816417363 1.0
C      1  0.2559674239692  0.3272392094591  0.1539150167891 1.0
C      1  0.1385593410033  0.6776850921984  0.3558930295633 1.0
C      1  0.4433323850335  0.6922173775984  0.1029907764185 1.0
C      1  0.8966178013245  0.6346241988385  0.3328163317859 1.0
C      1  0.7377715597978  0.6677985415523  0.8522559984393 1.0
C      1  0.2499878714844  0.6718910931576  0.8429540516808 1.0
C      1  0.5883687104384  0.6577291993989  0.2772396586766 1.0
C      1  0.3249655248379  0.6570008878639  0.3499981095112 1.0
C      1  0.2965188497210  0.6886750111126  0.6359850459646 1.0
C      1  0.5683780384077  0.6740268136959  0.7443875538038 1.0
C      1  0.7354422458954  0.6603104352475  0.5116331166632 1.0
C      1  0.5871317619676  0.3515919588915  0.7181608489295 1.0
C      1  0.3176910676557  0.3327977162144  0.6507424990903 1.0
C      1  0.3069588976752  0.3109420681577  0.3631462019060 1.0
C      1  0.5631818411316  0.2952025857412  0.2674580387878 1.0
C      1  0.7546478127359  0.3226884443536  0.4982067024498 1.0
C      1  0.7514410488286  0.4860830666493  0.4516835026158 1.0
C      1  0.4865487117800  0.4663144304784  0.1831147343994 1.0
C      1  0.2885079401197  0.4552752890614  0.4260903007225 1.0
C      1  0.3709642141487  0.4724551016376  0.6908346894479 1.0
C      1  0.6871566899909  0.4610582101577  0.7412543282685 1.0
C      1  0.7522941324228  0.5283309144139  0.5932815922677 1.0
C      1  0.5003043435395  0.5308420268618  0.7780854742475 1.0
C      1  0.2825189966479  0.5411546889629  0.5684468452056 1.0
C      1  0.3705274432462  0.5241006846885  0.2980673930496 1.0
C      1  0.6707576735692  0.5273683012331  0.2616313906071 1.0
C      1  0.6524368322051  0.4827330507294  0.5935996773530 1.0
C      1  0.6538270669612  0.4688277047004  0.4362763277798 1.0
C      1  0.4703701621546  0.4002640909655  0.3395862863656 1.0
C      1  0.3827815656894  0.4898108615393  0.4513210636488 1.0
C      1  0.4297733297567  0.5195771210809  0.6169777575218 1.0
C      1  0.6302148384040  0.5670487381361  0.4121336782484 1.0
C      1  0.6247105569470  0.5821294180804  0.6048997292393 1.0
C      1  0.4533081310247  0.6111948132847  0.6498654572921 1.0
C      1  0.3781477766393  0.5135872917488  0.5381148428101 1.0
C      1  0.4422118466324  0.4957697521922  0.3713029825634 1.0
C      1  0.2194471165394  0.3997263492803  0.8165746042399 1.0
C      1  0.6584422973105  0.3543166348016  0.8690464760197 1.0
C      1  0.9419022069724  0.3695089933358  0.4579067941980 1.0
C      1  0.5626511672554  0.4355269360928  0.0368221197587 1.0
C      1  0.1147298180982  0.4244861967186  0.2915539563286 1.0
C      1  0.2209766638379  0.6016727964805  0.1810913646693 1.0
C      1  0.6690768365222  0.6666456653336  0.1162270010667 1.0
C      1  0.9329853061685  0.6272245847849  0.5194997194536 1.0
C      1  0.5493735903806  0.5961294491340  0.9357412002770 1.0
C      1  0.1127230982643  0.5725244444994  0.7045363112984 1.0
C      1  0.2562105677159  0.4668557499708  0.1056170002171 1.0
C      1  0.0639484635105  0.5018558851518  0.6710383472378 1.0
C      1  0.4739446260134  0.5599289879969  0.9990616048212 1.0
C      1  0.9609127259568  0.5088921672715  0.6741024137309 1.0
C      1  0.8010412495659  0.5186529433182  0.1047820084709 1.0
C      1  0.2498108463821  0.5349452041842  0.8921343088811 1.0
C      1  0.0640507962261  0.4951501493545  0.3230710637635 1.0
C      1  0.4747314162902  0.4540582025073  0.9916692063591 1.0
C      1  0.9602387483852  0.4881144574330  0.3158112092992 1.0
C      1  0.7931937991874  0.4970669901055  0.8713885018437 1.0
C      1  0.4499859494653  0.8278926449631  0.5256603046172 1.0
C      1  0.5237822406694  0.2102508365467  0.4319422646642 1.0
END
