TITL C-206338-5033-5 -7.622 3375.00 -1426.57440718 0 0 170 (Cs) n - 1
REM
REM Run started: at 2020.12.01 12:00:43 in /rds/project/t2_vol4/rds-t2-cs072/BORA/CARBON/AIRSS/Generating-Clusters/Str-Search/Higher-Symm/C100-200
REM VASP from code version vasp.5.4.4.18Apr17-6-g9f103f2a35 (build Oct 11 2019 16:45:47) gamma-only
REM
REM
REM
REM
REM ./C.cell (533062f00bc710175b3da973d35f2034)
REM AIRSS Version 0.9.1 bugfix July 2018 build 013d7b7c2542+ Fri, 06 Jul 2018 19:26:36 +0100
REM compiler GCC version 4.8.5 20150623 (Red Hat 4.8.5-39)
REM options -cpp -mtune=generic -march=x86-64 -g -O0
REM seed 936391577 -1281223085 2013462002 -1989017768 1462873198 -95318943 -1934937159 1958232640 349187116 -2103444228 734565582 1627412888
REM
REM C.POTCAR (d86ddea03c3ceb6dc662c8ad6801f873)
REM 
CELL 1.54180   15.00000   15.00000   15.00000   90.00000   90.00000   90.00000
LATT -1
SFAC C  
C      1  0.5024697881396  0.6023704608150  0.5557431783961 1.0
C      1  0.4347823738265  0.4524754227999  0.5428380436380 1.0
C      1  0.5815931277068  0.4541235820777  0.6019525139258 1.0
C      1  0.5024237015189  0.6023395564313  0.4403618951914 1.0
C      1  0.4347167044978  0.4524218072101  0.4531482528938 1.0
C      1  0.5815397188880  0.4540380458593  0.3942014759192 1.0
C      1  0.5145311048460  0.3937715380537  0.5618311486949 1.0
C      1  0.4117464748844  0.5482486007577  0.5595226179479 1.0
C      1  0.5907654960973  0.5475661763586  0.5590639047486 1.0
C      1  0.5144726294288  0.3936990847433  0.4342501728305 1.0
C      1  0.4116535434341  0.5481993314672  0.4365007264648 1.0
C      1  0.5907797480338  0.5475174971357  0.4371216095816 1.0
C      1  0.2430366951337  0.4361846530623  0.3300077483726 1.0
C      1  0.6758627138203  0.3106449810283  0.3381110648389 1.0
C      1  0.5751778811292  0.7392265667580  0.3438293804504 1.0
C      1  0.2429610876088  0.4361653857449  0.6660580292405 1.0
C      1  0.6757956172733  0.3106858916108  0.6581421456221 1.0
C      1  0.5752642136635  0.7392572587224  0.6528202435844 1.0
C      1  0.2522163905837  0.5481279742414  0.3398134542327 1.0
C      1  0.6684427361382  0.6849673444658  0.3442823798255 1.0
C      1  0.5784327820616  0.2617894329320  0.3400104541879 1.0
C      1  0.2523957901861  0.5480819350497  0.6561769334012 1.0
C      1  0.6685782300573  0.6849433821196  0.6523330306810 1.0
C      1  0.5783993145769  0.2619109633726  0.6561998057411 1.0
C      1  0.4944517127974  0.6767424337447  0.6399511566915 1.0
C      1  0.3304929338939  0.3872892442984  0.6713618683362 1.0
C      1  0.6703137970220  0.4125866439449  0.6501663426274 1.0
C      1  0.4943201565770  0.6767148324588  0.3565100633340 1.0
C      1  0.3305823824370  0.3873078079224  0.3247807543726 1.0
C      1  0.6702544972440  0.4125561872184  0.3460422953271 1.0
C      1  0.4985099539009  0.3257195504467  0.6429031873413 1.0
C      1  0.3477635442880  0.5870125337747  0.6415863930209 1.0
C      1  0.6565866888814  0.5836897372477  0.6395367664534 1.0
C      1  0.4985254123585  0.3255689909688  0.3531805451010 1.0
C      1  0.3475873996941  0.5870322126725  0.3545184295193 1.0
C      1  0.6565184418666  0.5836826216581  0.3568437922392 1.0
C      1  0.4551875955721  0.2086614838831  0.8483721447840 1.0
C      1  0.7732584261981  0.6114933150699  0.8466098484973 1.0
C      1  0.2584752011923  0.6844531602547  0.8532299716893 1.0
C      1  0.4554202811551  0.2087767644990  0.1474136823066 1.0
C      1  0.7731978490096  0.6116178537049  0.1499976037737 1.0
C      1  0.2585879408301  0.6843020897641  0.1427265526102 1.0
C      1  0.4663971885752  0.8027468623138  0.8528239065459 1.0
C      1  0.7804134142914  0.3747849711485  0.8578947587974 1.0
C      1  0.2510870462331  0.3273354468906  0.8653248231286 1.0
C      1  0.4664220925417  0.8026717144240  0.1433524328571 1.0
C      1  0.7806401605736  0.3749086349576  0.1388024158225 1.0
C      1  0.2514498798968  0.3276183027840  0.1294470948952 1.0
C      1  0.7749206709852  0.3724549016838  0.4509733122738 1.0
C      1  0.4705423558130  0.7966050271848  0.4514885902642 1.0
C      1  0.2593366234830  0.3315685278630  0.4511381834080 1.0
C      1  0.7749753160070  0.3724103141110  0.5453527099583 1.0
C      1  0.4705687434364  0.7967458342675  0.5453123819576 1.0
C      1  0.2592545377661  0.3314431708314  0.5451567561766 1.0
C      1  0.7715146190722  0.6254611163679  0.4513144425370 1.0
C      1  0.4745403040873  0.2086562741300  0.4510053995090 1.0
C      1  0.2541974330888  0.6653845574419  0.4512341672457 1.0
C      1  0.7716620014213  0.6254974955424  0.5452980196567 1.0
C      1  0.4745048199832  0.2085497883053  0.5454531387199 1.0
C      1  0.2542915152797  0.6654429831167  0.5450110483763 1.0
C      1  0.7267543117686  0.2100321595326  0.4505656421394 1.0
C      1  0.6350468977799  0.8394808505026  0.4507747857343 1.0
C      1  0.1358774655155  0.4449226309395  0.4505934142902 1.0
C      1  0.7267639609569  0.2099923077365  0.5459289388821 1.0
C      1  0.6351220862363  0.8396331366357  0.5460333624776 1.0
C      1  0.1358413590377  0.4448647688650  0.5456768151263 1.0
C      1  0.7234812233914  0.7886007371484  0.4508875457638 1.0
C      1  0.6373910277102  0.1619485342487  0.4505524351240 1.0
C      1  0.1350939639894  0.5459372390975  0.4500592200981 1.0
C      1  0.7236394560436  0.7887332888821  0.5459858235835 1.0
C      1  0.6374019766560  0.1618530734212  0.5459529521835 1.0
C      1  0.1351426107602  0.5459018539992  0.5462534005016 1.0
C      1  0.4171544036067  0.7286489604594  0.5959996181467 1.0
C      1  0.3409463164993  0.3192796364085  0.6011470268638 1.0
C      1  0.7478807403282  0.4520706689368  0.5992528075514 1.0
C      1  0.4170627222493  0.7285788963705  0.4005812710424 1.0
C      1  0.3409954139458  0.3193120472745  0.3950611520792 1.0
C      1  0.7478388961157  0.4520969617845  0.3969433746544 1.0
C      1  0.4221497168465  0.2736737982501  0.5998294952359 1.0
C      1  0.3383133389353  0.6807001686724  0.5962878895173 1.0
C      1  0.7432358969479  0.5450285234929  0.5984150499600 1.0
C      1  0.4221233051222  0.2735514095951  0.3962948831881 1.0
C      1  0.3382181829776  0.6806525920748  0.4000002842296 1.0
C      1  0.7431499680120  0.5450585456941  0.3979484438984 1.0
C      1  0.6794356155233  0.7193769112558  0.7478359897698 1.0
C      1  0.2151010402681  0.5476845284365  0.7525070369394 1.0
C      1  0.5986429877874  0.2351529272427  0.7524831798557 1.0
C      1  0.6794329196529  0.7195992422237  0.2488568599186 1.0
C      1  0.2151655302023  0.5475370437903  0.2434049906126 1.0
C      1  0.5987348811471  0.2350139712456  0.2437443163883 1.0
C      1  0.6807449506992  0.2748619285723  0.7553998056084 1.0
C      1  0.2069069953092  0.4572683018439  0.7594786278339 1.0
C      1  0.6017019435799  0.7666419497519  0.7484151064053 1.0
C      1  0.6808520804508  0.2747385513553  0.2408396877270 1.0
C      1  0.2072377380854  0.4570995015420  0.2363525380487 1.0
C      1  0.6016416608914  0.7668371321055  0.2482440234780 1.0
C      1  0.2998092257945  0.2596315824190  0.1112014323497 1.0
C      1  0.8127932783157  0.4518870368141  0.1207982837106 1.0
C      1  0.3843157233398  0.7926107434507  0.1208981505187 1.0
C      1  0.2994241864328  0.2593494086575  0.8834267127340 1.0
C      1  0.8125103051036  0.4517296845133  0.8760924103245 1.0
C      1  0.3843488434185  0.7925590194607  0.8755098032799 1.0
C      1  0.3095140733202  0.7496042832009  0.1206690338060 1.0
C      1  0.8092567727619  0.5383414819562  0.1255330886774 1.0
C      1  0.3747535216647  0.2175217338928  0.1211192615405 1.0
C      1  0.3095921181089  0.7495344338542  0.8756270585095 1.0
C      1  0.8091145820663  0.5381841123033  0.8712168964214 1.0
C      1  0.3745286609188  0.2171901221134  0.8746915295763 1.0
C      1  0.4695774278335  0.6379406965552  0.7292982033317 1.0
C      1  0.3880217824580  0.4070342861632  0.7384331380123 1.0
C      1  0.6391687678006  0.4486347939623  0.7379230669463 1.0
C      1  0.4694235110370  0.6379901809339  0.2671189434466 1.0
C      1  0.3880670192547  0.4067491034589  0.2575117180257 1.0
C      1  0.6391365325723  0.4486314776831  0.2582688319578 1.0
C      1  0.4849451323813  0.3888371928849  0.7276352892686 1.0
C      1  0.3936767306069  0.5912202770104  0.7301817798914 1.0
C      1  0.6165781973884  0.5430484027238  0.7273389928682 1.0
C      1  0.4850191203940  0.3886380333594  0.2683931102444 1.0
C      1  0.3935868825698  0.5912076951499  0.2659945956666 1.0
C      1  0.6166511895105  0.5430254710542  0.2689605678098 1.0
C      1  0.5609593449144  0.1935826498446  0.5876326506310 1.0
C      1  0.7376011895229  0.7067589580378  0.5866627253533 1.0
C      1  0.2005674737966  0.5957858590017  0.5876215327616 1.0
C      1  0.5609592209427  0.1936633475285  0.4087734015825 1.0
C      1  0.7374135897520  0.7067020194599  0.4100272743984 1.0
C      1  0.2003723348116  0.5958705335600  0.4084484408670 1.0
C      1  0.5579084902205  0.8096445601366  0.5869885160600 1.0
C      1  0.7420629740433  0.2904691660598  0.5883108599591 1.0
C      1  0.1983402325456  0.3929015926019  0.5898820064116 1.0
C      1  0.5577982672159  0.8095593502940  0.4097239223936 1.0
C      1  0.7421001498701  0.2904789915733  0.4080324919892 1.0
C      1  0.1984507947853  0.3930419504022  0.4063432253982 1.0
C      1  0.4976563140454  0.4107736022791  0.8922205106524 1.0
C      1  0.5787097892593  0.5485992342062  0.8894211921976 1.0
C      1  0.4175714872380  0.5515872802444  0.8909464527912 1.0
C      1  0.4979409517724  0.4108492534949  0.1038631544647 1.0
C      1  0.5788884753940  0.5487503836612  0.1070721970283 1.0
C      1  0.4178403345450  0.5516531310598  0.1053801404097 1.0
C      1  0.4972213485594  0.5970555584978  0.8894300103704 1.0
C      1  0.5809814157506  0.4565280077754  0.8942832695169 1.0
C      1  0.4174544951650  0.4567091660899  0.8934343505389 1.0
C      1  0.4973996350099  0.5972044782355  0.1070617896306 1.0
C      1  0.5812455349818  0.4566734979440  0.1019261384486 1.0
C      1  0.4177739597361  0.4567873758380  0.1026921461320 1.0
C      1  0.3512274370671  0.5560714474877  0.8156689372338 1.0
C      1  0.5289062069072  0.3510338662138  0.8176133243570 1.0
C      1  0.6140372224348  0.6009627830411  0.8120038331965 1.0
C      1  0.3513054329590  0.5560046946840  0.1804099580804 1.0
C      1  0.5291469747456  0.3509896654642  0.1783932324135 1.0
C      1  0.6140727229994  0.6010883544787  0.1845755160825 1.0
C      1  0.3483978999131  0.4500062532804  0.8209305772759 1.0
C      1  0.5241818626719  0.6563651504371  0.8130086888399 1.0
C      1  0.6242706885560  0.3970737535805  0.8246925605959 1.0
C      1  0.3485774331629  0.4499145880362  0.1750127063088 1.0
C      1  0.5242010544411  0.6564323469891  0.1836043664827 1.0
C      1  0.6244542838355  0.3970552199921  0.1715259720928 1.0
C      1  0.7058925343523  0.3348779014301  0.8282300456786 1.0
C      1  0.5358070094540  0.7589593451796  0.8186858889601 1.0
C      1  0.2525820118971  0.4097360709198  0.8314833316962 1.0
C      1  0.7060603596159  0.3348204404142  0.1681252482982 1.0
C      1  0.5357597649043  0.7590308339607  0.1778936894292 1.0
C      1  0.2528368734665  0.4096542830332  0.1641652997053 1.0
C      1  0.7015790377730  0.6545471346380  0.8157877279118 1.0
C      1  0.5287291270238  0.2490255947633  0.8181070113497 1.0
C      1  0.2584070663899  0.6021281052002  0.8196927363115 1.0
C      1  0.7015618126234  0.6547801980866  0.1808158088751 1.0
C      1  0.5289266027808  0.2490051095677  0.1779515010049 1.0
C      1  0.2584698397095  0.6019913743522  0.1762138626386 1.0
C      1  0.5480286155467  0.4691502140409  0.2972174190181 1.0
C      1  0.5480935498213  0.4691380302255  0.6989390718353 1.0
END
