TITL C-20217-6445-9 -7.866 3375.00 -1418.88334366 0 0 168 (C1) n - 1
REM
REM Run started: at 2021.01.02 15:37:13 in /gpfs/home/chem/mssmkc/CARBON/AIRSS/Generating-Clusters/Str-Search/Higher-Symm/C100-200
REM VASP from code version vasp.5.4.4.18Apr17-6-g9f103f2a35 (build Oct 11 2019 16:45:47) gamma-only
REM
REM
REM
REM
REM ./C.cell (533062f00bc710175b3da973d35f2034)
REM AIRSS Version 0.9.1 bugfix July 2018 build 013d7b7c2542+ Fri, 06 Jul 2018 19:26:36 +0100
REM compiler GCC version 6.3.0
REM options -cpp -iprefix /gpfs/warwick/csc/orac/software/Core/GCCcore/6.3.0/bin/../lib/gcc/x86_64-pc-linux-gnu/6.3.0/ -mtune=generic -march=x86-64 -g -O0
REM seed 526855358 218943372 631639909 343352662 857350109 -2014194815 -1472303794 1623411744 1259002322 -128008864 -199187824 -1258395423
REM
REM C.POTCAR (d86ddea03c3ceb6dc662c8ad6801f873)
REM 
CELL 1.54180   15.00000   15.00000   15.00000   90.00000   90.00000   90.00000
LATT -1
SFAC C  
C      1  0.3398624762827  0.7769069253281  0.2453343119022 1.0
C      1  0.2439304570826  0.7657851906134  0.3731826692865 1.0
C      1  0.2212493688259  0.7674708174348  0.5409498372507 1.0
C      1  0.2781257689858  0.7677356052495  0.6886258448712 1.0
C      1  0.4155461485968  0.7652635416040  0.7767055798136 1.0
C      1  0.5775716811162  0.7696617895708  0.7824409223170 1.0
C      1  0.7180697065806  0.7661377846047  0.6917194651562 1.0
C      1  0.7955047415697  0.7749106721710  0.5490448247579 1.0
C      1  0.7678425811795  0.7664046385273  0.3891475904320 1.0
C      1  0.6596272677944  0.7647910589782  0.2612392842241 1.0
C      1  0.4992464159833  0.7644260323798  0.2133033068017 1.0
C      1  0.7662894637572  0.2930971767759  0.3889307653957 1.0
C      1  0.6674649396301  0.2967797908197  0.2495428524802 1.0
C      1  0.5016273327666  0.2930076730906  0.2049242801678 1.0
C      1  0.3308849668280  0.2986671916066  0.2302154218170 1.0
C      1  0.2329540459553  0.2986680494993  0.3655348265005 1.0
C      1  0.2332125845399  0.2827310029580  0.5332590977189 1.0
C      1  0.2747858007284  0.2981834435559  0.6939896753853 1.0
C      1  0.4108009642266  0.3002563472076  0.7942513574986 1.0
C      1  0.5795944646244  0.2875358054926  0.7744538684169 1.0
C      1  0.7364393685470  0.3046825793236  0.7010602000297 1.0
C      1  0.8075763851592  0.2977369053882  0.5485225809099 1.0
C      1  0.4011113160015  0.1679382709919  0.2818781358826 1.0
C      1  0.3156928659774  0.1776381962739  0.3228928163502 1.0
C      1  0.2993217649886  0.1692025641890  0.4171358060939 1.0
C      1  0.3322449854159  0.1690486526296  0.6231517272801 1.0
C      1  0.3680432086159  0.1788348276268  0.7108228132949 1.0
C      1  0.4595641183374  0.1664107336355  0.7338771315391 1.0
C      1  0.6626423209744  0.1711235423564  0.6743869793400 1.0
C      1  0.7299040474614  0.1816670058568  0.6076912370545 1.0
C      1  0.7170536698448  0.1724459350136  0.5143323528923 1.0
C      1  0.6748377325787  0.1666497159262  0.3241619797062 1.0
C      1  0.5984248586061  0.1651361770334  0.2637015843000 1.0
C      1  0.2253359983112  0.6709234399647  0.3645044429557 1.0
C      1  0.2013705307180  0.6750982496585  0.5449358907015 1.0
C      1  0.2643927655077  0.6725288366984  0.6998424046718 1.0
C      1  0.4080504792639  0.6710419479153  0.7975767015782 1.0
C      1  0.5772188904108  0.6752795969002  0.7996539960700 1.0
C      1  0.7331288582073  0.6701005191968  0.6994846388410 1.0
C      1  0.8156186262486  0.6816047871399  0.5529836121181 1.0
C      1  0.7838067744669  0.6706962692206  0.3892138457667 1.0
C      1  0.6635164575328  0.6719140212241  0.2567716523522 1.0
C      1  0.4931710956454  0.6691074303370  0.2049922026859 1.0
C      1  0.3290185866597  0.6829021278130  0.2330544740197 1.0
C      1  0.6175077584811  0.6907328562372  0.5678199466005 1.0
C      1  0.6313086373668  0.6810767133434  0.4874857664793 1.0
C      1  0.6302213840758  0.6578995887144  0.3986225323177 1.0
C      1  0.5523916537518  0.6494797352998  0.3528382027002 1.0
C      1  0.4756798557826  0.6471534677490  0.4104155088144 1.0
C      1  0.4154888577071  0.7120814910315  0.4116519134232 1.0
C      1  0.3664537206625  0.7575236544395  0.4747364838476 1.0
C      1  0.3969194411260  0.7144267087285  0.5498571019434 1.0
C      1  0.4548701329902  0.6511333067216  0.5641582368517 1.0
C      1  0.4999781459759  0.6263905469875  0.6428136487389 1.0
C      1  0.5859162374455  0.6557698410419  0.6478543668686 1.0
C      1  0.4022279714919  0.8650571998677  0.6505337148598 1.0
C      1  0.4990695919766  0.8630555526043  0.6783932274296 1.0
C      1  0.5941343465839  0.8619182649663  0.6514286662048 1.0
C      1  0.6624382713882  0.8643339208755  0.5761807625624 1.0
C      1  0.6786206734015  0.8650506083639  0.4798869973791 1.0
C      1  0.6366987989402  0.8599502295949  0.3868172150342 1.0
C      1  0.5521422344613  0.8600750955041  0.3293606012670 1.0
C      1  0.4494312956733  0.8675603647411  0.3230088527995 1.0
C      1  0.3671560795026  0.8744151555222  0.3722420861721 1.0
C      1  0.3401075169184  0.8589124664865  0.4728081188522 1.0
C      1  0.3383837321608  0.8728722911812  0.5783227042647 1.0
C      1  0.6811765344371  0.5138661459375  0.4940764722976 1.0
C      1  0.6331906422770  0.4851607435978  0.4136082137264 1.0
C      1  0.5356396771281  0.5014123306970  0.3544677435517 1.0
C      1  0.4332249801501  0.5213001117768  0.3398225083506 1.0
C      1  0.3409523719569  0.5208444488556  0.3879988451385 1.0
C      1  0.3002223933823  0.5626084525045  0.4686932444825 1.0
C      1  0.3154866935834  0.5242757373113  0.5604259642154 1.0
C      1  0.3658679150610  0.5223442721514  0.6562423392082 1.0
C      1  0.4669123668317  0.5426285661488  0.6770358111746 1.0
C      1  0.6254908618948  0.4780299525818  0.6554135018256 1.0
C      1  0.6794197127841  0.5105956297077  0.5841193923435 1.0
C      1  0.3214607873723  0.3926411970028  0.2209928864192 1.0
C      1  0.2372040177663  0.3966031060940  0.3687730212979 1.0
C      1  0.2051858497228  0.3779431650370  0.5397786392146 1.0
C      1  0.2569658464029  0.3917115081985  0.7027755079160 1.0
C      1  0.4079017048168  0.3951177053284  0.8008948273636 1.0
C      1  0.5793120567849  0.3839334948234  0.7838876915113 1.0
C      1  0.7458193104724  0.3998491257162  0.7044404269581 1.0
C      1  0.8194196758502  0.3905649645700  0.5481642153470 1.0
C      1  0.7804557090871  0.3918194705306  0.3828543213018 1.0
C      1  0.6719493159342  0.3901067928151  0.2462248694273 1.0
C      1  0.5056860432878  0.3917416909721  0.1977740801371 1.0
C      1  0.4973771562624  0.6252785063173  0.8107795353860 1.0
C      1  0.6416773697218  0.6292465844794  0.7308892106963 1.0
C      1  0.7853996398043  0.6295039577540  0.6308336171224 1.0
C      1  0.8095917655984  0.6294271132093  0.4705675532680 1.0
C      1  0.7075150827329  0.6250360652459  0.3374804489379 1.0
C      1  0.5725921953125  0.6242261500730  0.2533612786186 1.0
C      1  0.4073273932179  0.6298110157277  0.2099051717582 1.0
C      1  0.2678555917709  0.6308488055119  0.2898717254519 1.0
C      1  0.2156380547221  0.6218156644627  0.4575534871527 1.0
C      1  0.2148190003269  0.6253988305900  0.6244327095967 1.0
C      1  0.3270872032437  0.6277042344510  0.7631185483047 1.0
C      1  0.5888987937606  0.4363452532202  0.2182671234140 1.0
C      1  0.4140249590169  0.4365712979952  0.2222884725179 1.0
C      1  0.2584629285036  0.4430418947552  0.2742869285157 1.0
C      1  0.1952567835380  0.4320530791880  0.4581758212146 1.0
C      1  0.2085597562031  0.4307238227252  0.6270852480252 1.0
C      1  0.3217783466378  0.4390115343248  0.7698867330693 1.0
C      1  0.4983307281219  0.4354134113507  0.7997616305339 1.0
C      1  0.6609028324530  0.4405056012562  0.7474516183920 1.0
C      1  0.7983473530717  0.4404922503813  0.6315308560228 1.0
C      1  0.8099021637088  0.4390486992810  0.4647495637128 1.0
C      1  0.7317165621046  0.4363158594974  0.3075453655785 1.0
C      1  0.2606281685796  0.8156157814147  0.6084089407779 1.0
C      1  0.3558568945759  0.8080505761159  0.7198391364474 1.0
C      1  0.4967257200119  0.8104356367874  0.7628752344654 1.0
C      1  0.6384512871640  0.8074460556122  0.7214206695766 1.0
C      1  0.7411012267184  0.8131193661475  0.6144338736526 1.0
C      1  0.7644632324719  0.8137283594692  0.4693843099536 1.0
C      1  0.7002764085060  0.8073023023540  0.3356860334949 1.0
C      1  0.5749263456455  0.8062585428140  0.2530234860245 1.0
C      1  0.4257043902119  0.8145704395332  0.2414460688885 1.0
C      1  0.2992220579673  0.8183456441550  0.3199965455963 1.0
C      1  0.2646318658357  0.7950555435416  0.4614804563589 1.0
C      1  0.5719247035358  0.0998786760265  0.5527142169875 1.0
C      1  0.6353998722870  0.1237586868469  0.4830540061703 1.0
C      1  0.6246761720003  0.1165363135378  0.3891736109557 1.0
C      1  0.5498595651784  0.1092521722845  0.3226285189310 1.0
C      1  0.4572361697327  0.1063062353664  0.3313692313206 1.0
C      1  0.4259870247842  0.0712196938290  0.4126981277688 1.0
C      1  0.3622777378551  0.1164035995944  0.4639440921724 1.0
C      1  0.3845531036779  0.1214636004618  0.5574726811294 1.0
C      1  0.4728857200103  0.0949411249064  0.5829749443427 1.0
C      1  0.5037515496254  0.1143040835543  0.6730253773710 1.0
C      1  0.5934399674823  0.1189516838731  0.6452447148177 1.0
C      1  0.3913389620659  0.4282562382692  0.6287013000566 1.0
C      1  0.4819131404083  0.4639791265536  0.6138361587662 1.0
C      1  0.5623127797135  0.4131152421160  0.6244506941226 1.0
C      1  0.5899371968724  0.3421657521706  0.5757059901125 1.0
C      1  0.6035266677485  0.3415867378126  0.4921267164296 1.0
C      1  0.6020838314587  0.3854862364674  0.4136683877773 1.0
C      1  0.5103983890349  0.4094207593454  0.3762734123667 1.0
C      1  0.4228841190986  0.4174775749690  0.3251162317025 1.0
C      1  0.3426350886857  0.4162634348940  0.3895944636235 1.0
C      1  0.3834560747904  0.3918489456938  0.4737217548619 1.0
C      1  0.3444520619661  0.4281831997523  0.5503162629666 1.0
C      1  0.5142575387848  0.5307507063914  0.7694644114494 1.0
C      1  0.6146637986149  0.5314993211771  0.7380859378504 1.0
C      1  0.7764834964270  0.5333939701175  0.5992196043917 1.0
C      1  0.7839221945721  0.5342289487330  0.4934251969110 1.0
C      1  0.6818738267829  0.5217064886492  0.3278562055835 1.0
C      1  0.5917064354789  0.5228512126486  0.2710006509732 1.0
C      1  0.3951227063223  0.5376987589411  0.2462175103411 1.0
C      1  0.2994224432420  0.5350706641388  0.2921278915320 1.0
C      1  0.1973223331642  0.5250078257344  0.4873069933548 1.0
C      1  0.2168275357666  0.5270165617967  0.5919092856230 1.0
C      1  0.3265443049442  0.5319800966630  0.7438413653918 1.0
C      1  0.2729818397606  0.2554751782825  0.2912528270076 1.0
C      1  0.2441345257810  0.2456988972927  0.4447370709661 1.0
C      1  0.2676866156659  0.2438384764822  0.6125367192397 1.0
C      1  0.3362094549919  0.2567839634128  0.7524991724125 1.0
C      1  0.4913630003415  0.2469293546872  0.7806868147133 1.0
C      1  0.6594538338803  0.2503757819578  0.7318896658274 1.0
C      1  0.7798686323085  0.2585295256665  0.6293998623271 1.0
C      1  0.7717293519049  0.2476645065946  0.4736256257497 1.0
C      1  0.7184026446592  0.2496557593088  0.3176190195341 1.0
C      1  0.5866454517131  0.2493361773596  0.2232239421533 1.0
C      1  0.4168018366823  0.2493685891962  0.2264830767437 1.0
C      1  0.4915729924979  0.5010402071451  0.5182959123544 1.0
C      1  0.4823325098832  0.5903989636783  0.4943281788352 1.0
C      1  0.4692087529127  0.4254197237368  0.4634203942065 1.0
END
