TITL C-20935-2846-6 -8.847 3375.00 -1574.94147354 0 0 188 (C1) n - 1
REM
REM Run started: at 2020.12.19 20:06:53 in /rds/project/t2_vol4/rds-t2-cs072/BORA/CARBON/AIRSS/Generating-Clusters/Str-Search/Higher-Symm/C100-200
REM VASP from code version vasp.5.4.4.18Apr17-6-g9f103f2a35 (build Oct 11 2019 16:45:47) gamma-only
REM
REM
REM
REM
REM ./C.cell (533062f00bc710175b3da973d35f2034)
REM AIRSS Version 0.9.1 bugfix July 2018 build 013d7b7c2542+ Fri, 06 Jul 2018 19:26:36 +0100
REM compiler GCC version 4.8.5 20150623 (Red Hat 4.8.5-39)
REM options -cpp -mtune=generic -march=x86-64 -g -O0
REM seed 764878201 204105898 1832719128 814420148 499056927 -449673287 1466743056 -1254742634 136541152 -1150204479 -434795098 697783051
REM
REM C.POTCAR (d86ddea03c3ceb6dc662c8ad6801f873)
REM 
CELL 1.54180   15.00000   15.00000   15.00000   90.00000   90.00000   90.00000
LATT -1
SFAC C  
C      1  0.5905552574063  0.4529277607268  0.4214934269868 1.0
C      1  0.4583614090770  0.6144201853908  0.3861158607585 1.0
C      1  0.4135980038412  0.4514813895724  0.4047885916231 1.0
C      1  0.4046717173101  0.4479392842376  0.5868819230415 1.0
C      1  0.4785328516334  0.5956582221389  0.5949262619653 1.0
C      1  0.5711739199328  0.4535581581882  0.6049272551914 1.0
C      1  0.3983265076978  0.5439494168073  0.5845368671362 1.0
C      1  0.4903055934977  0.4032646662819  0.5926763005015 1.0
C      1  0.6413909391237  0.6069801546692  0.6271335357809 1.0
C      1  0.6139863002108  0.5491616445205  0.4186182304904 1.0
C      1  0.5052355131392  0.4089102272997  0.4123097538991 1.0
C      1  0.3939668192392  0.5442951046498  0.3984714020422 1.0
C      1  0.3852989863005  0.7558289685842  0.7597623419213 1.0
C      1  0.3076661678827  0.2824449125676  0.7587096491882 1.0
C      1  0.7651764881466  0.4486395942847  0.7828244442480 1.0
C      1  0.6094450129575  0.7606101132314  0.2411754405962 1.0
C      1  0.6901931675390  0.2892020389029  0.2472798149783 1.0
C      1  0.2373414287285  0.4495623921547  0.2224582096803 1.0
C      1  0.6080109375292  0.2391558813968  0.2407430264222 1.0
C      1  0.6948004705058  0.7136985082953  0.2461295733579 1.0
C      1  0.2363586120130  0.5462190735500  0.2231522838701 1.0
C      1  0.3922158291357  0.2360190939748  0.7633072468284 1.0
C      1  0.3018725236404  0.7079359133436  0.7559528961057 1.0
C      1  0.7644893695761  0.5450376531862  0.7791529756482 1.0
C      1  0.3085496753973  0.6164195083303  0.2024143032484 1.0
C      1  0.5134775099743  0.2653446588032  0.2103517335051 1.0
C      1  0.7220871597166  0.6179671087308  0.2221354627528 1.0
C      1  0.6845029462614  0.6050714413740  0.7897630443655 1.0
C      1  0.4869351938617  0.2640668606630  0.7933310440514 1.0
C      1  0.2777535522808  0.6114343743884  0.7800159262616 1.0
C      1  0.6912138612418  0.3798573260575  0.8050201802453 1.0
C      1  0.4794882677233  0.7263735231185  0.7858476360835 1.0
C      1  0.2813648137434  0.3789529623169  0.7819816730677 1.0
C      1  0.3102511143509  0.3802382742528  0.2005042929031 1.0
C      1  0.5141655530393  0.7342323035174  0.2109487069751 1.0
C      1  0.7155627043400  0.3854789615326  0.2237996002578 1.0
C      1  0.4713101100452  0.2224679678607  0.5759682244607 1.0
C      1  0.7880027739285  0.6281277002781  0.5821964596903 1.0
C      1  0.2583719276075  0.6571059133643  0.5646441218223 1.0
C      1  0.5281700775169  0.2243047422684  0.4261309693845 1.0
C      1  0.2341614041429  0.6199051865592  0.4128903490525 1.0
C      1  0.7469373215642  0.6638788191459  0.4341847303149 1.0
C      1  0.5240154864753  0.7820165930845  0.4251083520874 1.0
C      1  0.2483940302309  0.3752422561923  0.4117392766333 1.0
C      1  0.7276818242567  0.3390979135341  0.4447969035964 1.0
C      1  0.4617037942728  0.7761785250172  0.5743070986926 1.0
C      1  0.7482539328271  0.3826361905150  0.5939758617429 1.0
C      1  0.2669122789847  0.3317437074758  0.5660231771010 1.0
C      1  0.1289783789148  0.4494511821881  0.3555521005031 1.0
C      1  0.7337525101724  0.1991976708679  0.3866230531293 1.0
C      1  0.6531124877112  0.8469656669537  0.3819503900007 1.0
C      1  0.8720964356463  0.4526611061135  0.6485659696455 1.0
C      1  0.2648633605004  0.1911260589395  0.6189527779666 1.0
C      1  0.3387996292948  0.8479379072070  0.6211565816638 1.0
C      1  0.8827877745494  0.5455801863689  0.6518975716391 1.0
C      1  0.2599210861624  0.7979684084579  0.6169529232335 1.0
C      1  0.3476728363471  0.1482621262627  0.6224807956835 1.0
C      1  0.1242448512466  0.5427448669859  0.3540143114810 1.0
C      1  0.7365803063917  0.8049449759074  0.3858022876347 1.0
C      1  0.6534312385561  0.1521621678632  0.3814191853003 1.0
C      1  0.7658365742012  0.7581147978256  0.4693969622473 1.0
C      1  0.1431611880338  0.5903330379221  0.4391147370876 1.0
C      1  0.5930045396292  0.1552080237784  0.4617142432264 1.0
C      1  0.2380434902497  0.7496883187600  0.5325092647715 1.0
C      1  0.8734547406439  0.5952734602733  0.5629683964152 1.0
C      1  0.4072263348951  0.1531282215816  0.5416360284971 1.0
C      1  0.2409695687375  0.2397383221312  0.5337285042107 1.0
C      1  0.8420812172736  0.4111936038443  0.5633587097939 1.0
C      1  0.3994677787962  0.8499612566280  0.5400076442595 1.0
C      1  0.7549232538912  0.2465684371206  0.4726059679054 1.0
C      1  0.1561015609655  0.4040998553723  0.4403072700592 1.0
C      1  0.5909128605515  0.8424695000439  0.4610077933140 1.0
C      1  0.3747776672051  0.8231354725658  0.2932363204115 1.0
C      1  0.2938601290975  0.2180961018468  0.2878396408276 1.0
C      1  0.8577263129479  0.4528939100838  0.3192394945228 1.0
C      1  0.6163521876171  0.8135223234081  0.7039830825751 1.0
C      1  0.7071404547331  0.2190019218979  0.7162571245256 1.0
C      1  0.1385059913625  0.4460078795396  0.6855981624230 1.0
C      1  0.6244585085262  0.1731719465671  0.7108151102511 1.0
C      1  0.6918715626860  0.7616095064333  0.6996691255022 1.0
C      1  0.1362450087888  0.5402018544511  0.6850391778821 1.0
C      1  0.3764364307551  0.1725659451583  0.2925124379098 1.0
C      1  0.2927853100933  0.7773175947991  0.2896769357338 1.0
C      1  0.8648867855097  0.5465369464515  0.3161489662382 1.0
C      1  0.2087140306842  0.3329842522671  0.6481041594215 1.0
C      1  0.7746750824741  0.3334803417329  0.6782890545948 1.0
C      1  0.4863824917978  0.8236318540660  0.6604344607061 1.0
C      1  0.7843285412940  0.3431881880424  0.3608763624339 1.0
C      1  0.2246289877528  0.3313413194230  0.3243312126430 1.0
C      1  0.5053844971092  0.8277869723338  0.3378274206263 1.0
C      1  0.8035180332836  0.6657585044031  0.3512548247803 1.0
C      1  0.2180050280897  0.6653703359050  0.3247950546952 1.0
C      1  0.5059798223388  0.1751451326886  0.3401142267438 1.0
C      1  0.2016290048838  0.6563859562676  0.6476320839534 1.0
C      1  0.7842278982688  0.6620663852725  0.6728150983131 1.0
C      1  0.4949652455559  0.1750751229008  0.6624171920680 1.0
C      1  0.1292179636618  0.3868317236975  0.6105046775085 1.0
C      1  0.7705404468979  0.2360234501537  0.6463971203320 1.0
C      1  0.5751104797891  0.8697480862252  0.6349968461306 1.0
C      1  0.8664760293341  0.3940219505066  0.3938840932137 1.0
C      1  0.2284432758680  0.2338851414816  0.3567611004416 1.0
C      1  0.4163022843521  0.8725442228630  0.3647540311177 1.0
C      1  0.8835884947058  0.6063932864880  0.3896732253693 1.0
C      1  0.2257531874550  0.7629917700586  0.3570604948147 1.0
C      1  0.4184504141777  0.1301086555794  0.3675761838177 1.0
C      1  0.1231277083297  0.5988708013013  0.6105103982945 1.0
C      1  0.7715187060226  0.7608996455339  0.6497298509072 1.0
C      1  0.5828841739280  0.1308851368921  0.6352957235744 1.0
C      1  0.2395495267866  0.7397644655032  0.6891961397346 1.0
C      1  0.4021605944133  0.1653277174318  0.6982539941305 1.0
C      1  0.8300609275233  0.5882790876156  0.7213768222731 1.0
C      1  0.7574378773745  0.7474726996232  0.3123818961874 1.0
C      1  0.5994369387992  0.1675103609364  0.3051138523999 1.0
C      1  0.1711109902245  0.5862701114075  0.2831291906897 1.0
C      1  0.7511982479403  0.2595903889673  0.3161066713241 1.0
C      1  0.5999574066548  0.8326838755180  0.3046347173439 1.0
C      1  0.1752856625194  0.4082034368874  0.2840294879532 1.0
C      1  0.2459945878594  0.2500402227220  0.6911921430738 1.0
C      1  0.3933457293448  0.8294972454510  0.6969996200633 1.0
C      1  0.8256852943724  0.4091415131139  0.7193013706211 1.0
C      1  0.3985024098455  0.5455599871916  0.8892867015759 1.0
C      1  0.4792950598592  0.4028625715434  0.8966712680534 1.0
C      1  0.5644401090760  0.5432176916063  0.8984416792770 1.0
C      1  0.6001222306148  0.5509867954422  0.1141140257068 1.0
C      1  0.5208157261485  0.4063836346796  0.1090534305393 1.0
C      1  0.4348260643707  0.5462210467424  0.1052875074854 1.0
C      1  0.6000886909010  0.4527126541125  0.1133432546705 1.0
C      1  0.5201729081895  0.5954553917125  0.1090446774583 1.0
C      1  0.4353170688193  0.4545106197002  0.1051363049100 1.0
C      1  0.3997050053752  0.4478581855171  0.8906262326179 1.0
C      1  0.4794070895107  0.5910100060034  0.8920473906920 1.0
C      1  0.5645873407811  0.4517483272478  0.9012395618019 1.0
C      1  0.6880747096194  0.6594021654979  0.7064511622087 1.0
C      1  0.2094232238173  0.5908313377127  0.7195518235393 1.0
C      1  0.5432227376187  0.2149906936485  0.7370408973448 1.0
C      1  0.2866850944864  0.6872578076340  0.2589610937606 1.0
C      1  0.7932949258747  0.5989385800953  0.2810142132346 1.0
C      1  0.4574368357310  0.2147273352572  0.2655117725881 1.0
C      1  0.2899230578881  0.3077983121787  0.2564038224726 1.0
C      1  0.7795032559636  0.4076975987386  0.2875671430971 1.0
C      1  0.4573407601217  0.7838913854088  0.2660762700562 1.0
C      1  0.7112908763023  0.3086430698312  0.7479416290202 1.0
C      1  0.2133341636413  0.3986412434934  0.7201692141883 1.0
C      1  0.5340401489761  0.7756437079012  0.7294741784022 1.0
C      1  0.6812149283948  0.5520086228098  0.1676128651785 1.0
C      1  0.3896870604490  0.6163542617921  0.1528434968787 1.0
C      1  0.4785180236308  0.3332383997500  0.1554032968299 1.0
C      1  0.3182313038842  0.5462115231482  0.8357416514958 1.0
C      1  0.6087253402248  0.6100698407653  0.8428269088070 1.0
C      1  0.5223356005671  0.3308227838925  0.8492787641855 1.0
C      1  0.3189078155602  0.4453549981734  0.8366465177182 1.0
C      1  0.6102991477812  0.3811428459633  0.8542288852386 1.0
C      1  0.5186155882487  0.6596897147613  0.8395408074158 1.0
C      1  0.6800877381328  0.4515032933258  0.1666361803464 1.0
C      1  0.3906471927582  0.3829122676204  0.1514278482953 1.0
C      1  0.4775174139653  0.6671571787802  0.1561735960026 1.0
C      1  0.1015219396967  0.5725314428819  0.5207303969503 1.0
C      1  0.6213206006120  0.1256409103853  0.5480204954848 1.0
C      1  0.7666843775379  0.7971507847384  0.5581629956021 1.0
C      1  0.9086199506144  0.5762236138850  0.4775562616295 1.0
C      1  0.3794475792805  0.1244736510174  0.4547469341614 1.0
C      1  0.2361810855132  0.7935156964230  0.4474690626019 1.0
C      1  0.8900032542177  0.4191551479892  0.4827894387003 1.0
C      1  0.3759061298064  0.8792394744395  0.4516831785961 1.0
C      1  0.2363265490210  0.2000722938663  0.4462155911381 1.0
C      1  0.1089694116734  0.4135950075429  0.5211689106022 1.0
C      1  0.6172805438964  0.8694923563320  0.5496308408656 1.0
C      1  0.7614638070000  0.2030919778410  0.5575391647064 1.0
C      1  0.3135440515185  0.5799366116300  0.4450560467384 1.0
C      1  0.5062398378261  0.3136454072035  0.4546868056643 1.0
C      1  0.6902354853454  0.5935886688122  0.4626356693122 1.0
C      1  0.7013314905937  0.6009877098864  0.5571751834244 1.0
C      1  0.4916256788612  0.3114640227460  0.5476679336075 1.0
C      1  0.3204300461666  0.5895399173299  0.5377337972731 1.0
C      1  0.6601961808711  0.4122587444629  0.5661637975333 1.0
C      1  0.4805584260274  0.6877956444613  0.5484237366253 1.0
C      1  0.3330499342467  0.3937182850270  0.5392322667385 1.0
C      1  0.3341646768779  0.4010784890104  0.4453105369249 1.0
C      1  0.4967720275919  0.6886703357210  0.4496616255231 1.0
C      1  0.6595442652028  0.3997759076211  0.4726178337713 1.0
C      1  0.7148898196010  0.1246559015811  0.5350310907733 1.0
C      1  0.2846749316998  0.8719330021246  0.4664534230720 1.0
C      1  0.2863472671941  0.1241161160252  0.4672734195003 1.0
C      1  0.7098027933448  0.8672431140069  0.5394491516117 1.0
C      1  0.0449793214776  0.4899070801799  0.5129021875384 1.0
C      1  0.9597871997652  0.4908911181348  0.4866711348928 1.0
C      1  0.5608147261823  0.5506155467146  0.6166150327392 1.0
C      1  0.5465124592086  0.6110664401041  0.4012484912792 1.0
END
