TITL C-20217-6445-30 -7.137 3375.00 -1226.70942341 0 0 151 (C1) n - 1
REM
REM Run started: at 2021.01.03 13:00:24 in /gpfs/home/chem/mssmkc/CARBON/AIRSS/Generating-Clusters/Str-Search/Higher-Symm/C100-200
REM VASP from code version vasp.5.4.4.18Apr17-6-g9f103f2a35 (build Oct 11 2019 16:45:47) gamma-only
REM
REM
REM
REM
REM ./C.cell (533062f00bc710175b3da973d35f2034)
REM AIRSS Version 0.9.1 bugfix July 2018 build 013d7b7c2542+ Fri, 06 Jul 2018 19:26:36 +0100
REM compiler GCC version 6.3.0
REM options -cpp -iprefix /gpfs/warwick/csc/orac/software/Core/GCCcore/6.3.0/bin/../lib/gcc/x86_64-pc-linux-gnu/6.3.0/ -mtune=generic -march=x86-64 -g -O0
REM seed -436278030 1436222869 1390291080 1342503554 -721572710 275023637 1344087801 -1770950535 2016295646 -1783862086 -410528985 -1862896077
REM
REM C.POTCAR (d86ddea03c3ceb6dc662c8ad6801f873)
REM 
CELL 1.54180   15.00000   15.00000   15.00000   90.00000   90.00000   90.00000
LATT -1
SFAC C  
C      1  0.6361313533855  0.6636774090135  0.3874685619633 1.0
C      1  0.3561820085686  0.6735905818968  0.3839011180018 1.0
C      1  0.7142393003164  0.5262505060095  0.4279571521267 1.0
C      1  0.2765603263142  0.5352438414658  0.4192174301038 1.0
C      1  0.2446646431573  0.7448395267812  0.6094199726775 1.0
C      1  0.7529584709719  0.7291995220332  0.6078391764387 1.0
C      1  0.5776345203499  0.8108315872513  0.3410329792523 1.0
C      1  0.4233744000687  0.8156153345001  0.3388700342592 1.0
C      1  0.8080649980496  0.5247504486082  0.6237388173051 1.0
C      1  0.1833104784570  0.5326903879626  0.6177852268234 1.0
C      1  0.8139743687046  0.4868307735661  0.7084993171612 1.0
C      1  0.1782299691723  0.4940142205601  0.7026911004838 1.0
C      1  0.6414006087609  0.1652224631596  0.5730855119558 1.0
C      1  0.4135496727930  0.2110899774646  0.5754971703695 1.0
C      1  0.4188596278308  0.3873958122675  0.5541817754013 1.0
C      1  0.5841689805943  0.3693126871053  0.5512319853254 1.0
C      1  0.5747208826180  0.8050448275452  0.4344114961370 1.0
C      1  0.4247333756043  0.8109948926502  0.4323453794432 1.0
C      1  0.7152996132495  0.2382718926164  0.6955539217337 1.0
C      1  0.3057160881192  0.2590473937121  0.6823141346874 1.0
C      1  0.3556158849929  0.6912204602377  0.7230062285572 1.0
C      1  0.6410886462391  0.6867546322742  0.7234694987530 1.0
C      1  0.2817100502018  0.4603324779882  0.8182423287835 1.0
C      1  0.7100758683575  0.4483287795801  0.8188912085716 1.0
C      1  0.2137328138742  0.5916253860350  0.3524983990738 1.0
C      1  0.7796969600885  0.5863904114695  0.3656581950731 1.0
C      1  0.5673651154189  0.4078896408961  0.1724517996813 1.0
C      1  0.4351961602728  0.4097991817512  0.1711093627893 1.0
C      1  0.8305970464271  0.3297676777521  0.5739048192491 1.0
C      1  0.1818389160169  0.3313678209419  0.5689783911349 1.0
C      1  0.3649507629152  0.4149163653410  0.3722986850539 1.0
C      1  0.6323710730043  0.4034269727124  0.3808687278931 1.0
C      1  0.3739309508688  0.6702742867579  0.5448360422368 1.0
C      1  0.6200907041268  0.6605319987318  0.5465114055058 1.0
C      1  0.8662566340614  0.3470453946636  0.6569772935502 1.0
C      1  0.1458734176074  0.3476981849499  0.6519460462330 1.0
C      1  0.6247558762739  0.5589870061989  0.4246164363066 1.0
C      1  0.3643889377548  0.5728659268349  0.4160466271267 1.0
C      1  0.3397306214543  0.5244637465182  0.5825259671311 1.0
C      1  0.6497918849305  0.5127222155227  0.5864032380643 1.0
C      1  0.8297756262038  0.5001580246481  0.5349258195022 1.0
C      1  0.1649722903229  0.5024046347707  0.5289601397174 1.0
C      1  0.4024605565640  0.2278246184131  0.3585984614846 1.0
C      1  0.5890116001422  0.2177872526162  0.3624715641178 1.0
C      1  0.4262782003925  0.2833954688653  0.2821190787988 1.0
C      1  0.5730156742264  0.2767095586171  0.2849898159693 1.0
C      1  0.5943506982874  0.7184182187034  0.3032410619411 1.0
C      1  0.4025407563879  0.7221996429399  0.3014562031785 1.0
C      1  0.3580695797530  0.4390562136508  0.5933529331746 1.0
C      1  0.6447840187709  0.4251052161188  0.5929573625281 1.0
C      1  0.6499407631189  0.3414041414556  0.2965110752219 1.0
C      1  0.3481187897954  0.3471217289210  0.2925760981113 1.0
C      1  0.7842943288034  0.5728656969638  0.4750604241212 1.0
C      1  0.2033714208082  0.5763299029399  0.4648370648997 1.0
C      1  0.7397528998855  0.5220379724944  0.7663703526592 1.0
C      1  0.2502702810755  0.5311444068693  0.7624094926864 1.0
C      1  0.8300960317286  0.4060042573590  0.5108368852297 1.0
C      1  0.1698201486699  0.4081326178940  0.5058771240149 1.0
C      1  0.2437665333367  0.5098152681747  0.3028640718479 1.0
C      1  0.7514381646247  0.5047288253282  0.3141163590139 1.0
C      1  0.7152900107698  0.2111076017283  0.6040913143873 1.0
C      1  0.3200966913775  0.2328942795815  0.5911327273513 1.0
C      1  0.4267451938529  0.7369733696761  0.7860735758126 1.0
C      1  0.5715649358340  0.7348722047730  0.7859118809689 1.0
C      1  0.2578499631786  0.2944110049697  0.4397167057864 1.0
C      1  0.7442854716795  0.2851131479428  0.4503580938647 1.0
C      1  0.6979471865958  0.5958647094469  0.7221176384236 1.0
C      1  0.2928627732243  0.6041789607692  0.7195657055437 1.0
C      1  0.3948277753476  0.5771809667037  0.5185149112084 1.0
C      1  0.5928964695928  0.5678070538626  0.5226127462296 1.0
C      1  0.2131278214857  0.3788544005409  0.4272447974991 1.0
C      1  0.7832513455226  0.3724879526524  0.4353547544609 1.0
C      1  0.2916489001611  0.3788601617618  0.8016630108592 1.0
C      1  0.7069030742237  0.3652540981099  0.8091786285371 1.0
C      1  0.6561937659582  0.4140757860544  0.2201795222042 1.0
C      1  0.3438760611365  0.4189019180984  0.2132164271249 1.0
C      1  0.4302286177927  0.6076907625941  0.1483630085065 1.0
C      1  0.5712409077716  0.6063122311336  0.1512441230550 1.0
C      1  0.2485767710396  0.2690696581841  0.5327676740999 1.0
C      1  0.7702093175189  0.2613110722488  0.5416582634235 1.0
C      1  0.3189416300270  0.2698529086994  0.3694159703196 1.0
C      1  0.6733690902429  0.2578445167215  0.3855992948959 1.0
C      1  0.2668292448272  0.4448742099876  0.3795253256432 1.0
C      1  0.7282374814878  0.4372543628980  0.3879470250415 1.0
C      1  0.6516546968802  0.5904306317575  0.2017889456135 1.0
C      1  0.3476682760139  0.5949853866250  0.1955125005724 1.0
C      1  0.7252304322610  0.6495884838540  0.5562160545207 1.0
C      1  0.2708746168522  0.6653136206148  0.5593230406710 1.0
C      1  0.7232957565533  0.5763109940548  0.6258189458984 1.0
C      1  0.2666431121513  0.5871970656055  0.6219080060672 1.0
C      1  0.2878856406011  0.7540118758900  0.6804479972051 1.0
C      1  0.7114764491892  0.7449048373190  0.6784431505612 1.0
C      1  0.7246246015315  0.6625533454262  0.3392005073602 1.0
C      1  0.2683521663369  0.6698161070637  0.3289512226038 1.0
C      1  0.5745157103147  0.6689677565190  0.6403208395754 1.0
C      1  0.4217750165177  0.6722981272966  0.6392310243405 1.0
C      1  0.4188271078121  0.5014735140176  0.3703317384337 1.0
C      1  0.5699467944675  0.4843326552108  0.3842133715628 1.0
C      1  0.5884485530920  0.3530840642003  0.4589004866345 1.0
C      1  0.4310747429121  0.3886477559379  0.4555208885766 1.0
C      1  0.6914095247293  0.5024440502094  0.2364738659009 1.0
C      1  0.3071318725235  0.5069795047174  0.2276998418566 1.0
C      1  0.7061927435985  0.2889128306258  0.7606492730515 1.0
C      1  0.3010148353085  0.3047959688072  0.7512501545481 1.0
C      1  0.4074535539312  0.7161180948663  0.4599323008481 1.0
C      1  0.5861040846833  0.7083971340469  0.4624686274689 1.0
C      1  0.6717306349487  0.6637535808691  0.2609678288924 1.0
C      1  0.3257922882527  0.6695167850386  0.2539673124611 1.0
C      1  0.8633881542984  0.4078160279945  0.7142585168688 1.0
C      1  0.1365122912402  0.4105719286527  0.7064186658984 1.0
C      1  0.4971888572638  0.6510858264703  0.4348936025161 1.0
C      1  0.5022225291570  0.8539023772311  0.2929296436415 1.0
C      1  0.5015890651718  0.4588488730046  0.1030335273044 1.0
C      1  0.4999886057222  0.7843459157889  0.7315626694593 1.0
C      1  0.5008441218784  0.3265765214937  0.4184783406418 1.0
C      1  0.4822327920203  0.2389792926279  0.8715562329553 1.0
C      1  0.4929778095761  0.5638919154247  0.4967229461793 1.0
C      1  0.5011863699819  0.5538834654125  0.1164768055298 1.0
C      1  0.5002562729926  0.4984486026413  0.6998987781927 1.0
C      1  0.5017026875941  0.4297232640762  0.2513670051894 1.0
C      1  0.5016823960443  0.4242510797729  0.0126681342616 1.0
C      1  0.4893199881187  0.2511486447203  0.7298580608756 1.0
C      1  0.5009588233344  0.8313398929229  0.6454326400726 1.0
C      1  0.5022394613586  0.7747895364596  0.1417294073543 1.0
C      1  0.5046217415637  0.4045850551836  0.6958638253095 1.0
C      1  0.4812613009228  0.1895109369913  0.8027884071728 1.0
C      1  0.4977946539648  0.5974451218322  0.6693458120111 1.0
C      1  0.4982183670040  0.3526466896131  0.6081100741500 1.0
C      1  0.5020268308532  0.3914471107871  0.9375668661285 1.0
C      1  0.4991542656349  0.3335273639674  0.8642385937679 1.0
C      1  0.5010628580217  0.8710336744261  0.5677903244664 1.0
C      1  0.4993383161179  0.7334372469256  0.6435785426435 1.0
C      1  0.4997820694073  0.2631202675623  0.2159332477117 1.0
C      1  0.4808002948847  0.1849855098976  0.5084141372149 1.0
C      1  0.5009615068872  0.8525863346755  0.4808815210510 1.0
C      1  0.5044183510688  0.3426991765527  0.7670615117165 1.0
C      1  0.5032398139021  0.5142534936880  0.3126646859412 1.0
C      1  0.4987949092643  0.7009477577532  0.8409329733164 1.0
C      1  0.5010043468549  0.3303399426715  0.1564602307704 1.0
C      1  0.5004749803257  0.6788751491244  0.1732521998724 1.0
C      1  0.5038183729434  0.6141133126318  0.3329396110524 1.0
C      1  0.5028683657181  0.8324688938399  0.2024019269029 1.0
C      1  0.5626424221685  0.1641917706010  0.5454707250854 1.0
C      1  0.4978211823920  0.6379439355337  0.9214248265361 1.0
C      1  0.4976199524070  0.5901577233644  0.8496025891697 1.0
C      1  0.4887611119605  0.2213972214908  0.4163002946938 1.0
C      1  0.4855974111060  0.4793918328153  0.4417544127819 1.0
C      1  0.4973291885722  0.6855336027186  0.2728696828817 1.0
C      1  0.5006995961188  0.3431218428614  0.3166701201676 1.0
C      1  0.4971935372948  0.5604384618052  0.7629359224535 1.0
C      1  0.4719136399061  0.2571805752107  0.6406755569816 1.0
END
