TITL C-209297-6453-5 -5.395 3375.00 -889.55678896 0 0 112 (C1) n - 1
REM
REM Run started: at 2021.01.02 19:59:04 in /rds/project/t2_vol4/rds-t2-cs072/BORA/CARBON/AIRSS/Generating-Clusters/Str-Search/Higher-Symm/C100-200
REM VASP from code version vasp.5.4.4.18Apr17-6-g9f103f2a35 (build Oct 11 2019 16:45:47) gamma-only
REM
REM
REM
REM
REM ./C.cell (533062f00bc710175b3da973d35f2034)
REM AIRSS Version 0.9.1 bugfix July 2018 build 013d7b7c2542+ Fri, 06 Jul 2018 19:26:36 +0100
REM compiler GCC version 4.8.5 20150623 (Red Hat 4.8.5-39)
REM options -cpp -mtune=generic -march=x86-64 -g -O0
REM seed 862264137 -1218085005 -922536194 -844488679 -1526107380 -53710851 -1439207000 -1302260959 1203623672 58505873 159225434 467279456
REM
REM C.POTCAR (d86ddea03c3ceb6dc662c8ad6801f873)
REM 
CELL 1.54180   15.00000   15.00000   15.00000   90.00000   90.00000   90.00000
LATT -1
SFAC C  
C      1  0.8103983844925  0.5368232627010  0.5526523474625 1.0
C      1  0.2621711301592  0.7346329195700  0.5504153336781 1.0
C      1  0.3676505776575  0.2321875164654  0.5504012920182 1.0
C      1  0.8052694404692  0.5359655971872  0.4407128064534 1.0
C      1  0.2611773552116  0.7329679654444  0.4517582398312 1.0
C      1  0.3696995344710  0.2378400192612  0.4426736800220 1.0
C      1  0.1877835187882  0.6701713882945  0.2169271055852 1.0
C      1  0.5212260567017  0.1550547099543  0.2318860398392 1.0
C      1  0.7973902130697  0.6470842874298  0.2081942372382 1.0
C      1  0.2094692873912  0.6716931994077  0.7877299973521 1.0
C      1  0.5168732058425  0.1586004389283  0.7605504056414 1.0
C      1  0.7977484024161  0.6547187231836  0.7844089656581 1.0
C      1  0.3149466851302  0.3729044529723  0.6264305874874 1.0
C      1  0.7176178591166  0.4142775920348  0.6233672063853 1.0
C      1  0.4985308220867  0.7225751417764  0.6073731111228 1.0
C      1  0.2977016697954  0.3850937884848  0.3958180180792 1.0
C      1  0.7152712158767  0.4012149670557  0.3848987939727 1.0
C      1  0.5003308736858  0.7154829942464  0.3865583260677 1.0
C      1  0.5681367224525  0.3321830450538  0.7125256958538 1.0
C      1  0.6245821811719  0.6965587746750  0.7422099997682 1.0
C      1  0.2997699828179  0.5142894178483  0.7450539133198 1.0
C      1  0.5852705130034  0.3281939588251  0.2679952763815 1.0
C      1  0.6202907219852  0.6856248308621  0.2421014330903 1.0
C      1  0.2900320060858  0.5197589821872  0.2628908487621 1.0
C      1  0.5151254784372  0.4487211090574  0.1463171575712 1.0
C      1  0.5268168480553  0.5485282190311  0.1480177634266 1.0
C      1  0.4409182970591  0.5106323747285  0.1496018076600 1.0
C      1  0.5094589287103  0.4312491081416  0.8510396928058 1.0
C      1  0.5214198399454  0.5849314878858  0.8432527134809 1.0
C      1  0.4620703820573  0.5161656006040  0.8452614768420 1.0
C      1  0.6324869318541  0.5494344602998  0.4496367818722 1.0
C      1  0.4552856347270  0.5480642108464  0.4508953576070 1.0
C      1  0.4747076170574  0.3765224506194  0.4566858427151 1.0
C      1  0.6453045619030  0.5620095082501  0.5491163634541 1.0
C      1  0.4301734713149  0.5618494502809  0.5487963741795 1.0
C      1  0.4802608496085  0.3738374805096  0.5510707447586 1.0
C      1  0.3932111912611  0.5132546478100  0.6179015645864 1.0
C      1  0.5470147570693  0.3922364587227  0.6244360510088 1.0
C      1  0.6113689347489  0.6047252060060  0.6222037080799 1.0
C      1  0.3965403838884  0.5175735550023  0.3780381402765 1.0
C      1  0.5430923750869  0.4176111263527  0.3928018626839 1.0
C      1  0.6108347983355  0.5981150960653  0.3670818964329 1.0
C      1  0.8113499133545  0.6306263192787  0.6029479805137 1.0
C      1  0.1954938852693  0.6870861575316  0.6032829302885 1.0
C      1  0.4335468889951  0.1651354078977  0.5946426873316 1.0
C      1  0.8011771868788  0.6299977672763  0.3914471715227 1.0
C      1  0.1901951807846  0.6873505842191  0.4025994034978 1.0
C      1  0.4399968717232  0.1761383853928  0.3947913888921 1.0
C      1  0.8508788918525  0.4683849622903  0.3843221341226 1.0
C      1  0.4159945564877  0.7604103834620  0.3729555666047 1.0
C      1  0.2574119356597  0.3066966611963  0.3501480589143 1.0
C      1  0.8576191595060  0.4662861727476  0.6036018816327 1.0
C      1  0.3398959745823  0.7629698486954  0.5952145806406 1.0
C      1  0.2780834887648  0.2324657596336  0.5926085033581 1.0
C      1  0.5285733010140  0.4649771693246  0.3002052353921 1.0
C      1  0.5854981014435  0.5467022679086  0.2913716983382 1.0
C      1  0.4364171360475  0.4987072696779  0.2984540268003 1.0
C      1  0.5349731609343  0.4703339758398  0.6930545502704 1.0
C      1  0.5815482062056  0.5563981173702  0.6969848739004 1.0
C      1  0.4410068609990  0.4987663330055  0.6963536589499 1.0
C      1  0.4164954525098  0.7694564133517  0.6257739266196 1.0
C      1  0.2543804273667  0.2994418169536  0.6395168133546 1.0
C      1  0.8102493444474  0.4073646168989  0.6442103136329 1.0
C      1  0.3395796067525  0.7566016808982  0.4047529786867 1.0
C      1  0.2846318171524  0.2395233270295  0.3928276630538 1.0
C      1  0.8037020825821  0.4150137596948  0.3400963551356 1.0
C      1  0.1247170621279  0.6595726649092  0.4626033897498 1.0
C      1  0.4536763970799  0.1052285272944  0.4493714697046 1.0
C      1  0.8054567484512  0.6962899414089  0.4547897121724 1.0
C      1  0.1276972767916  0.6596350832138  0.5461338720760 1.0
C      1  0.4509988476446  0.0995826425086  0.5346477934942 1.0
C      1  0.8108009725615  0.6958334924342  0.5381763042658 1.0
C      1  0.7924433925840  0.6458166107658  0.6930882467202 1.0
C      1  0.2106171645453  0.6591731847397  0.6949892464310 1.0
C      1  0.4807296445166  0.1829769993828  0.6743984477829 1.0
C      1  0.7850115194454  0.6429490462964  0.2999012227433 1.0
C      1  0.1980133270893  0.6605159732847  0.3099602193327 1.0
C      1  0.4891403892967  0.1907330768184  0.3144795537132 1.0
C      1  0.3797154546033  0.3453879880952  0.4501658090810 1.0
C      1  0.7117991676745  0.4843577966663  0.4476889951564 1.0
C      1  0.4787214780689  0.6479604117895  0.4540427949834 1.0
C      1  0.3862153563011  0.3391861287950  0.5619698764830 1.0
C      1  0.7113829751163  0.4902137191094  0.5550683673618 1.0
C      1  0.4717633155243  0.6497172071571  0.5452150259552 1.0
C      1  0.5456396229192  0.3997000738486  0.2251638130390 1.0
C      1  0.5779579802557  0.5976616947220  0.2130886042429 1.0
C      1  0.3772897026224  0.5102624366613  0.2241624155120 1.0
C      1  0.5459128810338  0.4057117931462  0.7738409965590 1.0
C      1  0.5714686827564  0.6152917816086  0.7741850524812 1.0
C      1  0.3903848537067  0.5093372875682  0.7756244624814 1.0
C      1  0.2187183113654  0.4810770389354  0.5968340519709 1.0
C      1  0.6746893968792  0.2784195172685  0.5873478148947 1.0
C      1  0.5913160756021  0.7716869222729  0.5778189766295 1.0
C      1  0.2438377367891  0.4624359212857  0.4285274193503 1.0
C      1  0.6817850366431  0.3127767715350  0.4185431525966 1.0
C      1  0.5951324352766  0.7680703875337  0.4041257421875 1.0
C      1  0.2479736530419  0.5925737775724  0.7501145278232 1.0
C      1  0.5337935913407  0.2419333477832  0.7191575172959 1.0
C      1  0.7153610013145  0.6812472498521  0.7496697408265 1.0
C      1  0.2330740355202  0.5944534646116  0.2535584789358 1.0
C      1  0.5487759204391  0.2397789399420  0.2631447610456 1.0
C      1  0.7127881703487  0.6732065824279  0.2385036399973 1.0
C      1  0.5899578861766  0.6945203313531  0.3409131668385 1.0
C      1  0.3028660869090  0.4934472603613  0.3602357198389 1.0
C      1  0.6211779702767  0.3600183531562  0.3599090646913 1.0
C      1  0.5911112889551  0.7021277830884  0.6455258965765 1.0
C      1  0.3006965861473  0.4710682627368  0.6489878915316 1.0
C      1  0.6390717422735  0.3547855475851  0.6387998291468 1.0
C      1  0.6059202720395  0.7684244243192  0.4915280204071 1.0
C      1  0.2228061514990  0.4790446630275  0.5120984965746 1.0
C      1  0.6767816575765  0.2877067058687  0.5024675938567 1.0
C      1  0.5459556085583  0.5023725036212  0.4427468634959 1.0
END
