TITL C-200339-6352-1 -7.095 3375.00 -1268.21238320 0 0 160 (D2) n - 1
REM
REM Run started: at 2020.11.28 01:43:01 in /rds/project/t2_vol4/rds-t2-cs072/BORA/CARBON/AIRSS/Generating-Clusters/Str-Search/Higher-Symm
REM VASP from code version vasp.5.4.4.18Apr17-6-g9f103f2a35 (build Oct 11 2019 16:45:47) gamma-only
REM
REM
REM
REM
REM ./C.cell (e5ae0387ce4d49c7c0135a1433873289)
REM AIRSS Version 0.9.1 bugfix July 2018 build 013d7b7c2542+ Fri, 06 Jul 2018 19:26:36 +0100
REM compiler GCC version 4.8.5 20150623 (Red Hat 4.8.5-39)
REM options -cpp -mtune=generic -march=x86-64 -g -O0
REM seed 1129474916 -1000379272 -1696696868 2055323599 -1126775405 1411234635 1215105774 -761819419 -485362676 -108504338 1808386941 576258781
REM
REM C.POTCAR (d86ddea03c3ceb6dc662c8ad6801f873)
REM 
CELL 1.54180   15.00000   15.00000   15.00000   90.00000   90.00000   90.00000
LATT -1
SFAC C  
C      1  0.5567588579484  0.5357362592630  0.2199962718706 1.0
C      1  0.4575219582140  0.5533512528657  0.2181487416991 1.0
C      1  0.4432344095911  0.4642597192837  0.2199885118033 1.0
C      1  0.5424723117516  0.4466418983144  0.2181521648533 1.0
C      1  0.4466652909593  0.5424665261385  0.7818537520250 1.0
C      1  0.5357190436061  0.5567458950352  0.7800091116305 1.0
C      1  0.5533385317106  0.4575388529186  0.7818483613116 1.0
C      1  0.4642873535855  0.4432608812967  0.7800025750091 1.0
C      1  0.3074819537451  0.3460247078645  0.1875336998360 1.0
C      1  0.6558732430245  0.3057222694029  0.1884548193284 1.0
C      1  0.6925043129723  0.6539618134169  0.1875367464563 1.0
C      1  0.3441244942056  0.6942732333831  0.1884665799776 1.0
C      1  0.6942939669800  0.3441458074335  0.8115444735281 1.0
C      1  0.3460663149221  0.3074895067839  0.8124617776190 1.0
C      1  0.3057112389645  0.6558576332602  0.8115387706133 1.0
C      1  0.6539498278457  0.6925246697830  0.8124684881393 1.0
C      1  0.5921411777767  0.3707115132544  0.3605838072875 1.0
C      1  0.6300371549014  0.5917809753571  0.3614433452393 1.0
C      1  0.4078561020454  0.6292828313457  0.3605826630041 1.0
C      1  0.3699581702574  0.4082138894139  0.3614398059041 1.0
C      1  0.4082223481409  0.3699553394511  0.6385562155495 1.0
C      1  0.3707100514616  0.5921394734635  0.6394144949273 1.0
C      1  0.5917819184612  0.6300480523017  0.6385619234690 1.0
C      1  0.6292931597354  0.4078648251265  0.6394119043646 1.0
C      1  0.4788073040985  0.4307767717212  0.5919225566414 1.0
C      1  0.5693208499624  0.4791145278901  0.5919083819277 1.0
C      1  0.5211975094692  0.5692269552460  0.5919309864330 1.0
C      1  0.4306819134195  0.5208919045023  0.5919073616505 1.0
C      1  0.5208871855322  0.4306769240971  0.4080925279120 1.0
C      1  0.4307726381341  0.4788027081718  0.4080738132629 1.0
C      1  0.4791070416913  0.5693197177132  0.4080970141422 1.0
C      1  0.5692222738285  0.5211916207966  0.4080789568357 1.0
C      1  0.8658518197843  0.5235735523582  0.5464646155441 1.0
C      1  0.4765178826908  0.8660120002289  0.5454972330766 1.0
C      1  0.1341508849306  0.4764263311910  0.5464653881697 1.0
C      1  0.5234846563702  0.1339891909411  0.5455000845441 1.0
C      1  0.1339863176214  0.5234763698054  0.4545009969867 1.0
C      1  0.5235686109365  0.8658490638030  0.4535327943885 1.0
C      1  0.8660106041362  0.4765224051380  0.4544987262907 1.0
C      1  0.4764329348327  0.1341444688774  0.4535330690021 1.0
C      1  0.6140945731441  0.6861905630299  0.2180713724093 1.0
C      1  0.3115951332832  0.6155746849952  0.2185234703422 1.0
C      1  0.3858988858742  0.3138038406831  0.2180677135637 1.0
C      1  0.6883990433885  0.3844196909518  0.2185208958185 1.0
C      1  0.3844094135032  0.6884006671585  0.7814861741890 1.0
C      1  0.6861887903078  0.6141132433855  0.7819333905312 1.0
C      1  0.6155959451257  0.3116046426474  0.7814861619155 1.0
C      1  0.3138179947663  0.3858939792619  0.7819309108438 1.0
C      1  0.5919845310344  0.6235878782069  0.7400996263265 1.0
C      1  0.3773650325121  0.5945619843179  0.7407919965690 1.0
C      1  0.4080216320221  0.3764195213841  0.7400920752650 1.0
C      1  0.6226405040220  0.4054431761050  0.7407884312591 1.0
C      1  0.4054285233987  0.6226291134097  0.2592099194210 1.0
C      1  0.6235783521766  0.5919884204669  0.2598956532741 1.0
C      1  0.5945660014468  0.3773641672652  0.2592101873552 1.0
C      1  0.3764149059372  0.4080054088334  0.2598902216709 1.0
C      1  0.6060835820893  0.7938453334472  0.5644587176893 1.0
C      1  0.2066972831873  0.6060675799130  0.5650256231103 1.0
C      1  0.3939210724469  0.2061553032377  0.5644588396674 1.0
C      1  0.7933032093735  0.3939320298268  0.5650275860253 1.0
C      1  0.3939267606036  0.7933032090618  0.4349749727532 1.0
C      1  0.7938386355256  0.6060861951982  0.4355474243256 1.0
C      1  0.6060732209273  0.2066947698768  0.4349730145542 1.0
C      1  0.2061590715184  0.3939091568341  0.4355496376807 1.0
C      1  0.7515646820602  0.6528864734189  0.5868077256100 1.0
C      1  0.3474118596215  0.7516770614606  0.5866662971294 1.0
C      1  0.2484391512446  0.3471247904360  0.5868093422837 1.0
C      1  0.6525946383233  0.2483319763215  0.5866609184293 1.0
C      1  0.2483248078352  0.6525872774977  0.4133444576679 1.0
C      1  0.6528697121469  0.7515621200887  0.4131895567289 1.0
C      1  0.7516711874643  0.3474096716504  0.4133475588213 1.0
C      1  0.3471229586068  0.2484322569571  0.4131898396639 1.0
C      1  0.5323486599917  0.7379320191217  0.2314828421269 1.0
C      1  0.2599384725066  0.5334668297635  0.2321996563538 1.0
C      1  0.4676481000222  0.2620623493495  0.2314793645133 1.0
C      1  0.7400569461772  0.4665266146672  0.2322002842693 1.0
C      1  0.4665176099942  0.7400609531965  0.7677906169544 1.0
C      1  0.7379378031120  0.5323615855842  0.7685123200233 1.0
C      1  0.5334903931531  0.2599421294055  0.7677890293852 1.0
C      1  0.2620665842215  0.4676418753802  0.7685120425577 1.0
C      1  0.7566458230232  0.2583997880460  0.3850355807376 1.0
C      1  0.7418157488327  0.7563942399970  0.3845475557319 1.0
C      1  0.2433547983946  0.7415994041162  0.3850391146738 1.0
C      1  0.2581731458915  0.2435986527807  0.3845571362987 1.0
C      1  0.2436151940675  0.2581801916068  0.6154538730620 1.0
C      1  0.2583964066029  0.7566428734724  0.6149597701424 1.0
C      1  0.7563932674654  0.7418329998477  0.6154408917627 1.0
C      1  0.7416024885225  0.2433582785322  0.6149674058703 1.0
C      1  0.6713443304728  0.3972420990882  0.4141490026829 1.0
C      1  0.6031055133633  0.6712580541723  0.4141147278868 1.0
C      1  0.3286502560463  0.6027521579583  0.4141399338561 1.0
C      1  0.3968894793825  0.3287384057106  0.4141125904902 1.0
C      1  0.3287461903943  0.3968875070975  0.5858856555913 1.0
C      1  0.3972476778111  0.6713508416891  0.5858614712108 1.0
C      1  0.6712561030755  0.6031190170075  0.5858854912932 1.0
C      1  0.6027562980823  0.3286558609293  0.5858519064672 1.0
C      1  0.2798157373507  0.4388585087698  0.2300234997791 1.0
C      1  0.5625707050611  0.2802872339149  0.2294216322276 1.0
C      1  0.7201778080772  0.5611335541459  0.2300248068922 1.0
C      1  0.4374269527621  0.7197104980653  0.2294249877469 1.0
C      1  0.7197197838900  0.4374446119180  0.7705762962546 1.0
C      1  0.4388802165428  0.2798136521263  0.7699713935629 1.0
C      1  0.2802811557713  0.5625580946375  0.7705767651841 1.0
C      1  0.5611279941429  0.7201916289338  0.7699732865452 1.0
C      1  0.3993001281546  0.8170230681774  0.5317657560313 1.0
C      1  0.1827563499907  0.3990499368074  0.5323954200534 1.0
C      1  0.6007007391317  0.1829797900551  0.5317660069206 1.0
C      1  0.8172464422286  0.6009525790518  0.5323932546662 1.0
C      1  0.6009458164348  0.8172491395567  0.4676072619336 1.0
C      1  0.8170193913973  0.3993031534644  0.4682331088287 1.0
C      1  0.3990522166062  0.1827468602987  0.4676070050257 1.0
C      1  0.1829770169201  0.6006955481175  0.4682339479345 1.0
C      1  0.2837879058371  0.4471661352691  0.3923066148840 1.0
C      1  0.5529577633996  0.2844361763787  0.3914761775261 1.0
C      1  0.7162083625191  0.5528287082073  0.3923077902654 1.0
C      1  0.4470373103870  0.7155590886410  0.3914783866812 1.0
C      1  0.7155669747203  0.4470464762752  0.6085212991495 1.0
C      1  0.4471834449876  0.2837792336139  0.6076944381102 1.0
C      1  0.2844359975872  0.5529586234971  0.6085218030408 1.0
C      1  0.5528215236610  0.7162236674724  0.6076995648725 1.0
C      1  0.4586710095980  0.8542651517784  0.3742531882406 1.0
C      1  0.1450738134086  0.4587747615074  0.3750564688410 1.0
C      1  0.5413306896959  0.1457295982760  0.3742519945215 1.0
C      1  0.8549220891115  0.5412235281386  0.3750541885768 1.0
C      1  0.5412139567539  0.8549299083014  0.6249394810612 1.0
C      1  0.8542683729944  0.4586770823492  0.6257463187525 1.0
C      1  0.4587881487235  0.1450737093357  0.6249422781044 1.0
C      1  0.1457343873860  0.5413231828578  0.6257457972535 1.0
C      1  0.3621206715180  0.8773745172485  0.3720846420200 1.0
C      1  0.1221304458277  0.3621967642280  0.3726979915862 1.0
C      1  0.6378821921483  0.1226205323165  0.3720837757377 1.0
C      1  0.8778619633065  0.6377995798596  0.3726957141247 1.0
C      1  0.6377918321414  0.8778749892677  0.6273034306014 1.0
C      1  0.8773788015450  0.3621186527189  0.6279172898248 1.0
C      1  0.3622110659403  0.1221349496787  0.6273103099241 1.0
C      1  0.1226224737631  0.6378808855153  0.6279151178031 1.0
C      1  0.6647333441188  0.5092930684310  0.5485476295614 1.0
C      1  0.4905846144180  0.6650644175918  0.5480087634065 1.0
C      1  0.3352730382154  0.4907137178641  0.5485478407546 1.0
C      1  0.5094178612705  0.3349394409556  0.5480036768261 1.0
C      1  0.3349349860162  0.5094052887887  0.4519919227886 1.0
C      1  0.5092778187887  0.6647269937801  0.4514480271525 1.0
C      1  0.6650608073645  0.4905910401291  0.4519938683333 1.0
C      1  0.4907176386807  0.3352663616506  0.4514448832189 1.0
C      1  0.6929778711117  0.1971874616967  0.3763961138459 1.0
C      1  0.8032214496108  0.6928891597305  0.3766323078075 1.0
C      1  0.3070231853133  0.8028094157056  0.3763959574423 1.0
C      1  0.1967694329504  0.3071062521157  0.3766379855564 1.0
C      1  0.3071196857346  0.1967800784910  0.6233747160977 1.0
C      1  0.1971888880708  0.6929744301177  0.6235990108667 1.0
C      1  0.6928842453142  0.8032328547118  0.6233684877274 1.0
C      1  0.8028114100166  0.3070259399481  0.6236010247715 1.0
C      1  0.4798573562016  0.2309503141753  0.6879997083200 1.0
C      1  0.7680707542573  0.4793520015891  0.6887828193588 1.0
C      1  0.5201488153572  0.7690550520559  0.6880011631891 1.0
C      1  0.2319330827852  0.5206516520031  0.6887820297482 1.0
C      1  0.5206576849923  0.2319291147099  0.3112144652486 1.0
C      1  0.2309385893809  0.4798353042479  0.3120047983048 1.0
C      1  0.4793406498414  0.7680646813295  0.3112182305302 1.0
C      1  0.7690551329963  0.5201589429197  0.3120045889626 1.0
END
