TITL C-21117-6405-17 -8.64 3375.00 -1567.27457570 0 0 188 (C1) n - 1
REM
REM Run started: at 2020.12.27 14:34:30 in /gpfs/home/chem/mssmkc/CARBON/AIRSS/Generating-Clusters/Str-Search/Higher-Symm/C100-200
REM VASP from code version vasp.5.4.4.18Apr17-6-g9f103f2a35 (build Oct 11 2019 16:45:47) gamma-only
REM
REM
REM
REM
REM ./C.cell (533062f00bc710175b3da973d35f2034)
REM AIRSS Version 0.9.1 bugfix July 2018 build 013d7b7c2542+ Fri, 06 Jul 2018 19:26:36 +0100
REM compiler GCC version 6.3.0
REM options -cpp -iprefix /gpfs/warwick/csc/orac/software/Core/GCCcore/6.3.0/bin/../lib/gcc/x86_64-pc-linux-gnu/6.3.0/ -mtune=generic -march=x86-64 -g -O0
REM seed -158166545 1795208537 107832102 -532064063 1985345985 358755335 -60569974 1710963102 717018841 1517852144 1654215542 -1453723450
REM
REM C.POTCAR (d86ddea03c3ceb6dc662c8ad6801f873)
REM 
CELL 1.54180   15.00000   15.00000   15.00000   90.00000   90.00000   90.00000
LATT -1
SFAC C  
C      1  0.8239395621262  0.5883986918966  0.6457874266902 1.0
C      1  0.8900940571146  0.5572403211597  0.2574488840991 1.0
C      1  0.4952201922319  0.5995799769545  0.1333265024894 1.0
C      1  0.1659612654915  0.5927079618848  0.3301648723126 1.0
C      1  0.1896619815610  0.6044920192874  0.6949187484752 1.0
C      1  0.5217087425705  0.6266132849813  0.8624879511456 1.0
C      1  0.8295366818653  0.3938574044824  0.6613596009336 1.0
C      1  0.8254829004142  0.3806547796724  0.2820584234778 1.0
C      1  0.5141030673366  0.3973159609194  0.1339761473806 1.0
C      1  0.1728134351335  0.3999435276265  0.3424205328088 1.0
C      1  0.1854328157326  0.3850176907925  0.7262671675426 1.0
C      1  0.5241735958068  0.4674486034855  0.9624681226728 1.0
C      1  0.4064642090591  0.1987111795317  0.4950157137261 1.0
C      1  0.4393893656822  0.1745038233179  0.5912887793643 1.0
C      1  0.5442790373344  0.1850467334456  0.5972921823077 1.0
C      1  0.6110648921975  0.1693252908849  0.5213940041368 1.0
C      1  0.5661340178204  0.1924714868736  0.4303051569360 1.0
C      1  0.4620363588606  0.1734988854670  0.4092168252775 1.0
C      1  0.3917365710540  0.8356189751522  0.4771490062990 1.0
C      1  0.4364322380619  0.8139234229499  0.5681557644934 1.0
C      1  0.5372325780166  0.8249919228083  0.5889175453379 1.0
C      1  0.5920637898958  0.8097236494042  0.5031855826263 1.0
C      1  0.5605773644747  0.8359517742124  0.4086608307918 1.0
C      1  0.4590548743358  0.8251657324621  0.4009709479942 1.0
C      1  0.3418874452884  0.3840605619163  0.1389212177781 1.0
C      1  0.0963336516532  0.3997091088047  0.4806335933352 1.0
C      1  0.2944165543919  0.4070766837644  0.8313765649026 1.0
C      1  0.6527528091111  0.4040219877915  0.8602074927902 1.0
C      1  0.9134414988217  0.3827906415595  0.5275470606740 1.0
C      1  0.7098685509641  0.3982149221446  0.1765971075699 1.0
C      1  0.3315171288049  0.5974162098409  0.1228403258355 1.0
C      1  0.0837879147928  0.6117469556431  0.4602204948871 1.0
C      1  0.2688038820859  0.6114551497325  0.8270144385513 1.0
C      1  0.6792425784187  0.6154046174246  0.8539310143168 1.0
C      1  0.8898457833213  0.5838161250783  0.5055565119671 1.0
C      1  0.7541392788699  0.6055247172852  0.1927556153394 1.0
C      1  0.5077200398550  0.3515348165378  0.3894475868383 1.0
C      1  0.4248268673114  0.3593943070967  0.4322200105636 1.0
C      1  0.4482097495660  0.2937217722410  0.5009101772009 1.0
C      1  0.4676144520661  0.3306827415888  0.5906678617658 1.0
C      1  0.6007950088707  0.3289851507235  0.5322420917468 1.0
C      1  0.5434943732407  0.2912309417079  0.4593404451732 1.0
C      1  0.5301736787509  0.6755895907970  0.4275930829575 1.0
C      1  0.3853477104162  0.6885823269821  0.4776458706794 1.0
C      1  0.4240064546678  0.7119969955189  0.5721265904028 1.0
C      1  0.4860261064898  0.6466351367659  0.6126109073957 1.0
C      1  0.5689026724500  0.6436811465233  0.5751428001066 1.0
C      1  0.5905957371286  0.7060423724090  0.4977968894454 1.0
C      1  0.5815738953746  0.7467268202911  0.2648219653338 1.0
C      1  0.3288733903682  0.7433976485751  0.3027446850002 1.0
C      1  0.2421993518974  0.7500299918556  0.5427904223455 1.0
C      1  0.4171407083955  0.7573626953856  0.7316669390981 1.0
C      1  0.6623486612144  0.7456005139084  0.6686099066192 1.0
C      1  0.7416265062094  0.7467405486963  0.4257188787886 1.0
C      1  0.5794781859168  0.2351025150316  0.2716161123779 1.0
C      1  0.3349408979450  0.2436370382037  0.3200006213010 1.0
C      1  0.2618719528078  0.2587082836414  0.5622272438532 1.0
C      1  0.4313462260024  0.2367368154473  0.7469636007224 1.0
C      1  0.6801685567158  0.2485527650514  0.6958533372250 1.0
C      1  0.7525855206161  0.2382439062954  0.4515087665969 1.0
C      1  0.2478165660717  0.3036058731521  0.7208996441094 1.0
C      1  0.5485955376618  0.2663427804808  0.8464757715064 1.0
C      1  0.8155203119807  0.3018622482604  0.6248502012925 1.0
C      1  0.7661151426217  0.2989175196061  0.2926765372021 1.0
C      1  0.4594691267636  0.2772526620530  0.1733511955591 1.0
C      1  0.1975371501645  0.3136412317247  0.3863729190077 1.0
C      1  0.2290712439153  0.6929251866953  0.6970968077998 1.0
C      1  0.5500587824996  0.7092633659896  0.8194593788031 1.0
C      1  0.7969397433242  0.6734205000482  0.5983536720918 1.0
C      1  0.7779046869745  0.7603221560501  0.2749369570533 1.0
C      1  0.4611440630224  0.6886769133088  0.1690702685629 1.0
C      1  0.1869061979430  0.6853281459799  0.3651714735280 1.0
C      1  0.2022989758591  0.4900986341282  0.5748066514431 1.0
C      1  0.4274208281676  0.4720508176372  0.7614254471995 1.0
C      1  0.5835890704309  0.4888395888770  0.6857627228926 1.0
C      1  0.7808414237157  0.4351309111836  0.4470617786290 1.0
C      1  0.5954628608518  0.4484738908172  0.2768859201734 1.0
C      1  0.3783890398412  0.4456881076916  0.2528763323614 1.0
C      1  0.1410105064596  0.5622318589773  0.6173435069914 1.0
C      1  0.4014701938348  0.5603519433252  0.7508225126697 1.0
C      1  0.6190568984793  0.5440088588355  0.7504625844818 1.0
C      1  0.7616293764087  0.5198941604028  0.4228647241852 1.0
C      1  0.6431778490883  0.5264893299928  0.2933050078477 1.0
C      1  0.3716863892311  0.5503174214745  0.2420100792744 1.0
C      1  0.7808343955185  0.4455759405437  0.7268883774393 1.0
C      1  0.8837333210090  0.4195087757650  0.3462411882869 1.0
C      1  0.5428942913417  0.4609076778294  0.0595100120649 1.0
C      1  0.2162077069414  0.4455223110990  0.2715540422006 1.0
C      1  0.1191055150718  0.4203103861414  0.6699214216515 1.0
C      1  0.4503782028691  0.5175005450704  0.9453572405155 1.0
C      1  0.7812775611450  0.5429745908293  0.7160335726205 1.0
C      1  0.8933924380750  0.5168571889555  0.3375477825929 1.0
C      1  0.5551959516932  0.5453109248714  0.0930901991999 1.0
C      1  0.2120834584218  0.5428013262646  0.2651639049321 1.0
C      1  0.0786731164894  0.5044116104589  0.6744404121603 1.0
C      1  0.4396274142751  0.5918855982243  0.8952869085921 1.0
C      1  0.2828470569360  0.5949667266493  0.2185124318440 1.0
C      1  0.1129842849611  0.6289506322137  0.5508098277959 1.0
C      1  0.3707989408391  0.6178792438947  0.8305802480242 1.0
C      1  0.7093578446608  0.5952321812319  0.7555626801800 1.0
C      1  0.8450000044546  0.5764016194018  0.4125267305189 1.0
C      1  0.6638231462209  0.5942710810707  0.2257016167623 1.0
C      1  0.2918749553528  0.3935098834227  0.2324946109398 1.0
C      1  0.1457847941130  0.4036853888585  0.5725991412359 1.0
C      1  0.3907162679730  0.4018104652475  0.8139449758474 1.0
C      1  0.7239618764922  0.3951038240840  0.7866989422403 1.0
C      1  0.8640951417065  0.3821896044371  0.4372037755028 1.0
C      1  0.5979752332066  0.3921335772797  0.1927774578204 1.0
C      1  0.4253817840263  0.2029497962961  0.3266541732249 1.0
C      1  0.3072062638087  0.2263188246095  0.4829750677169 1.0
C      1  0.3859709639650  0.2110517312730  0.6637182210166 1.0
C      1  0.5828337706093  0.2289206595742  0.6832361236960 1.0
C      1  0.7003924641808  0.2086105497552  0.5314060235297 1.0
C      1  0.6270184409954  0.2108356693110  0.3492157286823 1.0
C      1  0.4249088951916  0.7674836116061  0.3181599237288 1.0
C      1  0.3082562269871  0.7603659546432  0.4662399247659 1.0
C      1  0.3734191199165  0.7706670822269  0.6412195357901 1.0
C      1  0.5726674379611  0.7911064489516  0.6702430529251 1.0
C      1  0.6820556103727  0.7555650728614  0.5052587904209 1.0
C      1  0.6164566092157  0.8014439589440  0.3378395586684 1.0
C      1  0.7841590943532  0.4421792270775  0.2136287110612 1.0
C      1  0.4235805279914  0.4425655271241  0.1585582172117 1.0
C      1  0.1149981438300  0.4522129846241  0.4033596772294 1.0
C      1  0.2248955502833  0.4533651918985  0.7842283581231 1.0
C      1  0.5945129577151  0.4691171170969  0.8939542522731 1.0
C      1  0.8850924860342  0.4418288310715  0.5981640928445 1.0
C      1  0.8160530957396  0.5353065958955  0.2053676382578 1.0
C      1  0.4134390579863  0.5436723995328  0.1485365213898 1.0
C      1  0.1103828295009  0.5468923463865  0.3952175026323 1.0
C      1  0.2179496603671  0.5499422536279  0.7725932632302 1.0
C      1  0.5953180552430  0.5594230018885  0.8521726271996 1.0
C      1  0.8787155601544  0.5349984165160  0.5864288801184 1.0
C      1  0.2710352041236  0.6946892790810  0.7818350431930 1.0
C      1  0.6462212008902  0.6991397536521  0.8243095896080 1.0
C      1  0.8462692851683  0.6665040434652  0.5171371673976 1.0
C      1  0.7419597377939  0.7019503822327  0.2153114097705 1.0
C      1  0.3654306075836  0.6840785933225  0.1505089825544 1.0
C      1  0.1279918810304  0.6953193724638  0.4347731287425 1.0
C      1  0.2968677643662  0.3156269987710  0.7998137218717 1.0
C      1  0.6276190818795  0.3117556246459  0.8427019926042 1.0
C      1  0.8718915426908  0.2993887136247  0.5486061157132 1.0
C      1  0.7113521157097  0.3118818856792  0.2173187046444 1.0
C      1  0.3685199865605  0.2973954545864  0.1648375648153 1.0
C      1  0.1461104337649  0.3186292730207  0.4647750113305 1.0
C      1  0.6167909654072  0.4539304199806  0.4340502897024 1.0
C      1  0.5677249377244  0.4142610656287  0.3587791125903 1.0
C      1  0.3760144285027  0.4329492005926  0.4571435801559 1.0
C      1  0.3706549045890  0.4484271337777  0.5543366047127 1.0
C      1  0.4394439120992  0.4107850479283  0.6127073831478 1.0
C      1  0.6321771618448  0.4134995194854  0.5243491352621 1.0
C      1  0.5878764452326  0.5446160458740  0.4571778852474 1.0
C      1  0.5022983765352  0.5897095825419  0.4408680031211 1.0
C      1  0.4006193737745  0.5864397560583  0.4734638093178 1.0
C      1  0.3750211422157  0.5486490937799  0.5684007002608 1.0
C      1  0.4356723444172  0.5686478533439  0.6523069762746 1.0
C      1  0.6103349502269  0.5606885115001  0.5518307233491 1.0
C      1  0.3624148673597  0.7135637478382  0.7936238357095 1.0
C      1  0.6902259006596  0.6965736453103  0.7417752980298 1.0
C      1  0.8171466333552  0.6848694730891  0.4304248032033 1.0
C      1  0.6441875972889  0.6880246644391  0.2257501879978 1.0
C      1  0.3079151961200  0.6944808324493  0.2246625785665 1.0
C      1  0.1578011376463  0.7115380774078  0.5242962521593 1.0
C      1  0.3910050525249  0.3014016584094  0.8045306922862 1.0
C      1  0.6946013579166  0.3037777252959  0.7716551684194 1.0
C      1  0.8334114442541  0.2839774931697  0.4648343633274 1.0
C      1  0.6221799462805  0.2963979981697  0.2165001425762 1.0
C      1  0.3136229949554  0.2925793485486  0.2435628411043 1.0
C      1  0.1846104873020  0.3113676771888  0.5480999242139 1.0
C      1  0.7193690993271  0.7293707071246  0.5939601490019 1.0
C      1  0.7142256305527  0.7827681741446  0.3461998526606 1.0
C      1  0.4891360792636  0.7383236632103  0.2447978147255 1.0
C      1  0.2700742496178  0.7370121680310  0.3737147120239 1.0
C      1  0.2745170638700  0.7473204417736  0.6294765790166 1.0
C      1  0.5123398244763  0.7594623943459  0.7445004841651 1.0
C      1  0.7361213117057  0.2463568909913  0.6205274448000 1.0
C      1  0.7182047818466  0.2450722761949  0.3621103928489 1.0
C      1  0.4856222348303  0.2313447265302  0.2522134491802 1.0
C      1  0.2775779156906  0.2572693528852  0.3966090480666 1.0
C      1  0.2947774975364  0.2520869736176  0.6512608320230 1.0
C      1  0.5230433264168  0.2314748758851  0.7627189548275 1.0
C      1  0.6668633274495  0.5315318308994  0.3926599889269 1.0
C      1  0.4022178806689  0.5091794251709  0.3218119182086 1.0
C      1  0.2904509945172  0.4987846102580  0.5769279984379 1.0
C      1  0.6254024971344  0.4832040671594  0.5952215078842 1.0
C      1  0.3745949066463  0.5130176101041  0.4092970673086 1.0
C      1  0.4818064804089  0.4731327868844  0.6773601796781 1.0
C      1  0.5538985658580  0.2914427371903  0.6102619612325 1.0
C      1  0.4510738659036  0.7247740560050  0.4090824298280 1.0
END
