TITL C-21117-6405-42 -7.25 3375.00 -1305.30428415 0 0 157 (C1) n - 1
REM
REM Run started: at 2020.12.28 11:45:53 in /gpfs/home/chem/mssmkc/CARBON/AIRSS/Generating-Clusters/Str-Search/Higher-Symm/C100-200
REM VASP from code version vasp.5.4.4.18Apr17-6-g9f103f2a35 (build Oct 11 2019 16:45:47) gamma-only
REM
REM
REM
REM
REM ./C.cell (533062f00bc710175b3da973d35f2034)
REM AIRSS Version 0.9.1 bugfix July 2018 build 013d7b7c2542+ Fri, 06 Jul 2018 19:26:36 +0100
REM compiler GCC version 6.3.0
REM options -cpp -iprefix /gpfs/warwick/csc/orac/software/Core/GCCcore/6.3.0/bin/../lib/gcc/x86_64-pc-linux-gnu/6.3.0/ -mtune=generic -march=x86-64 -g -O0
REM seed 2085784791 671048180 2006403643 680912383 -1476429888 -500576293 1095681227 -264350553 -1554963346 -2101562664 511406106 -1268846457
REM
REM C.POTCAR (d86ddea03c3ceb6dc662c8ad6801f873)
REM 
CELL 1.54180   15.00000   15.00000   15.00000   90.00000   90.00000   90.00000
LATT -1
SFAC C  
C      1  0.6175346786545  0.5461818112848  0.8710123794076 1.0
C      1  0.5556658352434  0.8485264336477  0.6215370278250 1.0
C      1  0.8527446801187  0.6125749692687  0.5476927769270 1.0
C      1  0.3927733068213  0.4597442303607  0.8595460019106 1.0
C      1  0.6160592070676  0.4538207849647  0.1378954986201 1.0
C      1  0.3910728936021  0.5461527536383  0.1361679938647 1.0
C      1  0.4639057178342  0.1453103270356  0.6124012375903 1.0
C      1  0.5537583303631  0.1490784685811  0.3879723779128 1.0
C      1  0.4611718846703  0.8661252403641  0.3877171306857 1.0
C      1  0.1460141333648  0.3875655266406  0.5470134690437 1.0
C      1  0.8591359969437  0.3920435799185  0.4585094791768 1.0
C      1  0.1522591161592  0.6250707749570  0.4502847425970 1.0
C      1  0.6143289534257  0.5468136246058  0.1391623718668 1.0
C      1  0.5514111274569  0.8564495402838  0.3892894809517 1.0
C      1  0.8539026492702  0.6118141014600  0.4567042962772 1.0
C      1  0.3948764940528  0.4547807420053  0.1375999210919 1.0
C      1  0.6178150155714  0.4540405396652  0.8713216523792 1.0
C      1  0.3900501725138  0.5509957253777  0.8628882744026 1.0
C      1  0.4629343774498  0.1405814734301  0.3873230848589 1.0
C      1  0.5550691688001  0.1468238923365  0.6141367857917 1.0
C      1  0.4663250494121  0.8410493117294  0.6138791002372 1.0
C      1  0.1455692163839  0.3830895324355  0.4549530704580 1.0
C      1  0.8588797313033  0.3928610007888  0.5506481510266 1.0
C      1  0.1507141927103  0.6286822526787  0.5409804651319 1.0
C      1  0.7875739706192  0.5942714458983  0.3335539145201 1.0
C      1  0.5992229562841  0.3361745440817  0.7963792730038 1.0
C      1  0.3350821896531  0.7968520657245  0.5970070881417 1.0
C      1  0.2215356120116  0.4102039841120  0.3414587780535 1.0
C      1  0.7849828442659  0.4093645813653  0.6699205037259 1.0
C      1  0.2222538790478  0.6146083723856  0.6584109073727 1.0
C      1  0.4125699113409  0.6764455189934  0.8082773091044 1.0
C      1  0.5931448471144  0.6634455413643  0.2128093576445 1.0
C      1  0.4071463561086  0.3202498944879  0.1905975114190 1.0
C      1  0.6717569333454  0.2181627073935  0.5995064173824 1.0
C      1  0.3334776662688  0.1885083282481  0.3850419946255 1.0
C      1  0.6583591342228  0.7711413391090  0.4083267163353 1.0
C      1  0.7846113297235  0.5982296387620  0.6709421457213 1.0
C      1  0.5983787601291  0.3277954166725  0.2009598325600 1.0
C      1  0.3331793734863  0.8181788431617  0.4036051233507 1.0
C      1  0.2222466861403  0.4208238368514  0.6586282500458 1.0
C      1  0.7888925822077  0.4045500209106  0.3356067563423 1.0
C      1  0.2163985569502  0.6005819202538  0.3279269979347 1.0
C      1  0.3957703843197  0.6737819391548  0.2004379459958 1.0
C      1  0.5995836472162  0.6710604281347  0.8105404393415 1.0
C      1  0.4069022128350  0.3312051506301  0.7978093089906 1.0
C      1  0.6684963824850  0.2221867847924  0.4035444520520 1.0
C      1  0.3340386400935  0.1961297776324  0.6140083730275 1.0
C      1  0.6622018286182  0.7694132337053  0.6014829280854 1.0
C      1  0.2725993975226  0.2703286280954  0.6013302387999 1.0
C      1  0.2961271984501  0.5539728663524  0.2841470217621 1.0
C      1  0.5581439349235  0.2660939463653  0.2615173416645 1.0
C      1  0.6933387971228  0.6851948399837  0.5565310569860 1.0
C      1  0.2724287315261  0.7528943276776  0.4473288950972 1.0
C      1  0.7173533445470  0.2968465664529  0.4498191347952 1.0
C      1  0.7136245515662  0.4421303823170  0.2773465933797 1.0
C      1  0.2965883209014  0.4648585437278  0.7080848443974 1.0
C      1  0.7083949751833  0.5600777003449  0.7250100881572 1.0
C      1  0.4269608819728  0.7237144631110  0.2857253340166 1.0
C      1  0.5566410200539  0.7341255281469  0.7501877521154 1.0
C      1  0.4497171541380  0.2863430897012  0.7157349774518 1.0
C      1  0.2742437647816  0.2649942293909  0.3937659309485 1.0
C      1  0.3033224709270  0.5756710821706  0.7079497069756 1.0
C      1  0.5616357360499  0.2942034391301  0.7122680391340 1.0
C      1  0.6956496504492  0.6857400665193  0.4459470703792 1.0
C      1  0.2655294354087  0.7531750609786  0.5529611990884 1.0
C      1  0.7182770890919  0.2955835688127  0.5585705129773 1.0
C      1  0.7078815036448  0.4506600107295  0.7251433721834 1.0
C      1  0.2952314961891  0.4473196641926  0.2859480701129 1.0
C      1  0.7132917538824  0.5523293829895  0.2796009276162 1.0
C      1  0.4575375286988  0.7377341095678  0.7513385203626 1.0
C      1  0.5454660790693  0.7063721940703  0.2933423612365 1.0
C      1  0.4507096841446  0.2688136134396  0.2696039904678 1.0
C      1  0.6229004585117  0.1537917877780  0.4562129428672 1.0
C      1  0.1582250729679  0.4680597182695  0.6066134609387 1.0
C      1  0.4534736388854  0.6233752421071  0.1358472397214 1.0
C      1  0.3928220932608  0.8714094770673  0.4586931714745 1.0
C      1  0.6245415594082  0.8439964826604  0.5514318803064 1.0
C      1  0.3885712483313  0.1404438401411  0.5464335389820 1.0
C      1  0.8589406926190  0.5499105773223  0.6246633479758 1.0
C      1  0.1564891676009  0.5537106786900  0.3848217574484 1.0
C      1  0.8593109919168  0.4572344127400  0.3837559435340 1.0
C      1  0.5496242845976  0.3813332812532  0.1354897414584 1.0
C      1  0.4549198900145  0.3827747207472  0.8642120657822 1.0
C      1  0.5486799425871  0.6175107940286  0.8754827408212 1.0
C      1  0.6256008464324  0.1486275159671  0.5466704490151 1.0
C      1  0.1595412637772  0.4597059975178  0.3908852218559 1.0
C      1  0.4580372223578  0.6210488930286  0.8761926190114 1.0
C      1  0.3961110427374  0.8555771711909  0.5501225308667 1.0
C      1  0.6206891225970  0.8443089249774  0.4599899672425 1.0
C      1  0.3888055137242  0.1382574076164  0.4546674324421 1.0
C      1  0.8610861132312  0.5471204174557  0.3816393363503 1.0
C      1  0.1568321294408  0.5595547006387  0.6097590959088 1.0
C      1  0.8574489701811  0.4600297757659  0.6237802403821 1.0
C      1  0.5479570445980  0.3821657669936  0.8648540598202 1.0
C      1  0.4570413716853  0.3777587648340  0.1303612797056 1.0
C      1  0.5441746405705  0.6190519808204  0.1417894417466 1.0
C      1  0.7925196928625  0.3425441020303  0.6038055036025 1.0
C      1  0.3448422673958  0.6091059788186  0.7959033578605 1.0
C      1  0.5932813681387  0.7820380810537  0.3399739657304 1.0
C      1  0.2130191428392  0.6847024819374  0.5922857925485 1.0
C      1  0.7803703791714  0.6531740944818  0.4058689872543 1.0
C      1  0.2046913300768  0.3284338034147  0.3918660689745 1.0
C      1  0.6676063025998  0.4045800840642  0.8031032213170 1.0
C      1  0.3503302341484  0.4031539550670  0.2101747130679 1.0
C      1  0.6648866096524  0.5994180871444  0.2044964268343 1.0
C      1  0.4093765529086  0.1897848079863  0.3231259817048 1.0
C      1  0.6043419219361  0.2168644599413  0.6653923615956 1.0
C      1  0.4176957358586  0.7645310715841  0.6604160437165 1.0
C      1  0.7923068636756  0.3420294303780  0.4057111587762 1.0
C      1  0.3385590844367  0.5968304312519  0.2030144139336 1.0
C      1  0.5996914940089  0.7781912459825  0.6744778751054 1.0
C      1  0.2193356637800  0.6781140245950  0.3973949428373 1.0
C      1  0.7774081020708  0.6530976970688  0.5963747560833 1.0
C      1  0.2051802140752  0.3372424951091  0.6124620160419 1.0
C      1  0.6699560146687  0.3983500882554  0.1994697547728 1.0
C      1  0.3509051637882  0.4158081252266  0.7822557694071 1.0
C      1  0.6685997309426  0.6031672744522  0.8083871136288 1.0
C      1  0.4121285351512  0.2016670945048  0.6715827456379 1.0
C      1  0.6014421841442  0.2168789657103  0.3330679746297 1.0
C      1  0.3984284201607  0.8113774361593  0.3320753542199 1.0
C      1  0.4187403942944  0.3578638932779  0.6437850462635 1.0
C      1  0.3148769243174  0.6607925517799  0.4269358372359 1.0
C      1  0.6141780993896  0.4440749925197  0.3253204685400 1.0
C      1  0.5329671253755  0.6567524669193  0.5800246896354 1.0
C      1  0.3945161640722  0.6604749699402  0.3646473700894 1.0
C      1  0.5850033177538  0.3827644436758  0.3904789350442 1.0
C      1  0.6487768629537  0.3766498866081  0.4588489236387 1.0
C      1  0.3475213494918  0.3270271506545  0.5818162108280 1.0
C      1  0.6195895930251  0.6094114283632  0.5790309434818 1.0
C      1  0.3873060214500  0.5712438966310  0.3287593169203 1.0
C      1  0.6238561369842  0.5594915479478  0.6633207127671 1.0
C      1  0.3936145602978  0.4408720396129  0.6919649928046 1.0
C      1  0.4263988567744  0.3448715191409  0.3470900099763 1.0
C      1  0.3572937334665  0.5531082863331  0.5551438521506 1.0
C      1  0.6102228985203  0.4559364334397  0.6786371161783 1.0
C      1  0.5465605324900  0.6569957409430  0.3834264914964 1.0
C      1  0.4407559109304  0.6725858381362  0.6134616507259 1.0
C      1  0.5800117257889  0.3765828093689  0.6285879305306 1.0
C      1  0.6481864697967  0.3734482529239  0.5585731509351 1.0
C      1  0.3530193468009  0.3187857522821  0.4086663258421 1.0
C      1  0.6258421298333  0.6066579331386  0.4196233762754 1.0
C      1  0.3900679418492  0.5857975097879  0.6422283456578 1.0
C      1  0.6295542586996  0.5477919913054  0.3399955036003 1.0
C      1  0.3954282368614  0.4263100720009  0.3000473093238 1.0
C      1  0.4525212527972  0.5184521714971  0.6840943040809 1.0
C      1  0.5471096621051  0.5083247669660  0.3007320900681 1.0
C      1  0.6308796916210  0.5458560894822  0.5021201377397 1.0
C      1  0.4715303359552  0.6744519502671  0.5193412840583 1.0
C      1  0.3761930348072  0.3430023955741  0.4951464957724 1.0
C      1  0.6654194936519  0.4598940602066  0.5084652918310 1.0
C      1  0.3282598126990  0.5917605948527  0.4892702690196 1.0
C      1  0.4946390089788  0.3750640199838  0.5848560516199 1.0
C      1  0.4997919058954  0.3623680059754  0.4098163420216 1.0
C      1  0.4692331143356  0.6663905867211  0.4274446153885 1.0
C      1  0.5424428842190  0.5213501976525  0.7015993872746 1.0
C      1  0.4520510124081  0.5063464681424  0.3115111629120 1.0
C      1  0.4696399548586  0.3621655845676  0.4984296784164 1.0
END
