TITL C-21629-752-6 -5.346 3375.00 -925.05126827 0 0 116 (C4) n - 1
REM
REM Run started: at 2020.12.09 08:59:31 in /rds/project/t2_vol4/rds-t2-cs072/BORA/CARBON/AIRSS/Generating-Clusters/Str-Search/Higher-Symm/C100-200
REM VASP from code version vasp.5.4.4.18Apr17-6-g9f103f2a35 (build Oct 11 2019 16:45:47) gamma-only
REM
REM
REM
REM
REM ./C.cell (533062f00bc710175b3da973d35f2034)
REM AIRSS Version 0.9.1 bugfix July 2018 build 013d7b7c2542+ Fri, 06 Jul 2018 19:26:36 +0100
REM compiler GCC version 4.8.5 20150623 (Red Hat 4.8.5-39)
REM options -cpp -mtune=generic -march=x86-64 -g -O0
REM seed 731721326 1445971528 -661785580 637252955 1526129947 1481440624 -2129471458 -603581368 1121633207 22586432 907546545 120729008
REM
REM C.POTCAR (d86ddea03c3ceb6dc662c8ad6801f873)
REM 
CELL 1.54180   15.00000   15.00000   15.00000   90.00000   90.00000   90.00000
LATT -1
SFAC C  
C      1  0.5770536909034  0.2728971646601  0.2977516237462 1.0
C      1  0.2728927400000  0.4229459814596  0.2977574253672 1.0
C      1  0.4229415645753  0.7271063204333  0.2977566215800 1.0
C      1  0.7271011985840  0.5770597538024  0.2977519598990 1.0
C      1  0.7118572321359  0.6965673927054  0.3785394511893 1.0
C      1  0.6965634490557  0.2881396539602  0.3785370457371 1.0
C      1  0.2881375886297  0.3034353427852  0.3785437542663 1.0
C      1  0.3034311105062  0.7118637766489  0.3785445813285 1.0
C      1  0.2364825272215  0.5613912888636  0.4577170269337 1.0
C      1  0.5613891958729  0.7635173856220  0.4577120589302 1.0
C      1  0.7635138146233  0.4386083502268  0.4577069107817 1.0
C      1  0.4386075161869  0.2364851477441  0.4577125121582 1.0
C      1  0.3704784082303  0.4332518985428  0.7820078597771 1.0
C      1  0.4332629400177  0.6295303984920  0.7820044441163 1.0
C      1  0.6295372894208  0.5667311581619  0.7819990087794 1.0
C      1  0.5667509593360  0.3704671625417  0.7819982979953 1.0
C      1  0.4478268005307  0.4479724591283  0.3490559127561 1.0
C      1  0.4479693907232  0.5521679842563  0.3490537870526 1.0
C      1  0.5521648390407  0.5520264122031  0.3490531651297 1.0
C      1  0.5520208745387  0.4478305586830  0.3490532567797 1.0
C      1  0.7214133328470  0.4038293341289  0.2954071955981 1.0
C      1  0.4038247238315  0.2785844897105  0.2954093260366 1.0
C      1  0.2785832241539  0.5961752438167  0.2954133106187 1.0
C      1  0.5961693637054  0.7214176953115  0.2954103453306 1.0
C      1  0.7507737445599  0.5962852711150  0.3869669295096 1.0
C      1  0.5962809269021  0.2492250928665  0.3869662468015 1.0
C      1  0.2492292533744  0.4037180696306  0.3869729012334 1.0
C      1  0.4037137233583  0.7507708799251  0.3869723811624 1.0
C      1  0.5555198504817  0.7196111303853  0.6256645463325 1.0
C      1  0.7196119318623  0.4444795916868  0.6256577702589 1.0
C      1  0.4444841398879  0.2803909520019  0.6256644750102 1.0
C      1  0.2803903130803  0.5555170818143  0.6256699259345 1.0
C      1  0.4690818094273  0.5636435153390  0.8282424755628 1.0
C      1  0.5636517632182  0.5309189293884  0.8282368536596 1.0
C      1  0.5309285513411  0.4363541815093  0.8282374661087 1.0
C      1  0.4363607513800  0.4690776733091  0.8282422855194 1.0
C      1  0.3129047328210  0.7023789021704  0.7032270622466 1.0
C      1  0.7023895379544  0.6870943705440  0.7032150020168 1.0
C      1  0.6871032063081  0.2976134865530  0.7032064345555 1.0
C      1  0.2976233307023  0.3128996533123  0.7032187085737 1.0
C      1  0.6435509625961  0.2065022993534  0.5755223327569 1.0
C      1  0.2065038045831  0.3564487185840  0.5755368148992 1.0
C      1  0.3564480548147  0.7934966827907  0.5755359782340 1.0
C      1  0.7934985679006  0.6435527708952  0.5755222869109 1.0
C      1  0.4081210374030  0.6781084108942  0.7125155270826 1.0
C      1  0.6781162257389  0.5918778545566  0.7125079553682 1.0
C      1  0.5918866812425  0.3218920511438  0.7125055509217 1.0
C      1  0.3218983991558  0.4081174819088  0.7125134104519 1.0
C      1  0.6187083534994  0.7491509140935  0.3827005927849 1.0
C      1  0.7491477669400  0.3812905609664  0.3826954821658 1.0
C      1  0.3812895203100  0.2508518102404  0.3827000251567 1.0
C      1  0.2508509444822  0.6187103099214  0.3827046450117 1.0
C      1  0.6261299440408  0.4961857523563  0.2072000491189 1.0
C      1  0.4961809155879  0.3738681374142  0.2072004061382 1.0
C      1  0.3738619471958  0.5038106199503  0.2072005928434 1.0
C      1  0.5038086888277  0.6261360234264  0.2072002794358 1.0
C      1  0.6104503586334  0.7308476033410  0.5396279375275 1.0
C      1  0.7308411225221  0.3895482519948  0.5396206900417 1.0
C      1  0.3895501002348  0.2691558865655  0.5396298033881 1.0
C      1  0.2691518359137  0.6104500533593  0.5396344644452 1.0
C      1  0.6449974708560  0.3522459365716  0.4982489339220 1.0
C      1  0.3522460945829  0.3550004417190  0.4982592713241 1.0
C      1  0.3549986585512  0.6477522295300  0.4982597220512 1.0
C      1  0.6477526241038  0.6450006480656  0.4982525415156 1.0
C      1  0.7634436283752  0.7231815459170  0.6366814903007 1.0
C      1  0.7231831968142  0.2365549452460  0.6366760790638 1.0
C      1  0.2365620236708  0.2768174942426  0.6366897277149 1.0
C      1  0.2768194327474  0.7634369356960  0.6366934032193 1.0
C      1  0.2528185241468  0.6262756113450  0.6806728943805 1.0
C      1  0.6262820262348  0.7471804960650  0.6806647873110 1.0
C      1  0.7471944370684  0.3737181535662  0.6806568973532 1.0
C      1  0.3737261805849  0.2528107801225  0.6806685770198 1.0
C      1  0.6828535046087  0.6684354962133  0.2910761290024 1.0
C      1  0.6684279581435  0.3171462729816  0.2910754969745 1.0
C      1  0.3171377478773  0.3315660791046  0.2910784419317 1.0
C      1  0.3315632665305  0.6828606868710  0.2910804035044 1.0
C      1  0.4128025633774  0.7210562052994  0.5425143315764 1.0
C      1  0.7210574512889  0.5871968854706  0.5425048312809 1.0
C      1  0.5871969669565  0.2789441035693  0.5425037069645 1.0
C      1  0.2789432214949  0.4128022964159  0.5425142124463 1.0
C      1  0.5341013546040  0.2458350732330  0.4604672625795 1.0
C      1  0.2458381251286  0.4658974460713  0.4604737095925 1.0
C      1  0.4658949500561  0.7541610587105  0.4604713288388 1.0
C      1  0.7541622352504  0.5341023737617  0.4604657888906 1.0
C      1  0.3156823907429  0.2278666090318  0.6043728013452 1.0
C      1  0.2278664656354  0.6843185048447  0.6043789157859 1.0
C      1  0.6843214801335  0.7721355373091  0.6043713477635 1.0
C      1  0.7721342660438  0.3156772113576  0.6043594349396 1.0
C      1  0.5859422218734  0.4180493727091  0.4466096836217 1.0
C      1  0.4180449589421  0.4140571213842  0.4466146340421 1.0
C      1  0.4140534931641  0.5819523507900  0.4466144724089 1.0
C      1  0.5819483333311  0.5859457151174  0.4466117324160 1.0
C      1  0.5322297130019  0.3249796309799  0.6260622412054 1.0
C      1  0.3249802025440  0.4677708893646  0.6260695654800 1.0
C      1  0.4677728199027  0.6750217857320  0.6260680976677 1.0
C      1  0.6750248782822  0.5322258280833  0.6260622353501 1.0
C      1  0.3029007428933  0.8562918452991  0.6021153867005 1.0
C      1  0.8562921255644  0.6971124552492  0.6020803695235 1.0
C      1  0.6971106089190  0.1437065465830  0.6020753300934 1.0
C      1  0.1437084755371  0.3028974749104  0.6021081357835 1.0
C      1  0.5082714376588  0.7061367254203  0.2577716758319 1.0
C      1  0.7061312866016  0.4917283100326  0.2577695369583 1.0
C      1  0.4917224869052  0.2938691024096  0.2577712129164 1.0
C      1  0.2938631969575  0.5082763808309  0.2577745865777 1.0
C      1  0.4909210330109  0.5767926350917  0.5921188107707 1.0
C      1  0.5767939145379  0.5090823532955  0.5921153013297 1.0
C      1  0.5090815523829  0.4232105103884  0.5921149077411 1.0
C      1  0.4232100898836  0.4909219166003  0.5921183384804 1.0
C      1  0.4972858531760  0.5942754692147  0.4935538531078 1.0
C      1  0.5942713090709  0.5027139005586  0.4935504604048 1.0
C      1  0.5027110554317  0.4057337468134  0.4935512397332 1.0
C      1  0.4057262386097  0.4972891639784  0.4935545067363 1.0
C      1  0.4289418108994  0.4327713485853  0.2456211030959 1.0
C      1  0.4327686817263  0.5710493720324  0.2456190970940 1.0
C      1  0.5710444960144  0.5672278083684  0.2456181617369 1.0
C      1  0.5672221646168  0.4289498526505  0.2456184835425 1.0
END
