TITL C-21117-6405-23 -5.828 3375.00 -972.59472275 0 0 119 (Cs) n - 1
REM
REM Run started: at 2020.12.27 21:32:28 in /gpfs/home/chem/mssmkc/CARBON/AIRSS/Generating-Clusters/Str-Search/Higher-Symm/C100-200
REM VASP from code version vasp.5.4.4.18Apr17-6-g9f103f2a35 (build Oct 11 2019 16:45:47) gamma-only
REM
REM
REM
REM
REM ./C.cell (533062f00bc710175b3da973d35f2034)
REM AIRSS Version 0.9.1 bugfix July 2018 build 013d7b7c2542+ Fri, 06 Jul 2018 19:26:36 +0100
REM compiler GCC version 6.3.0
REM options -cpp -iprefix /gpfs/warwick/csc/orac/software/Core/GCCcore/6.3.0/bin/../lib/gcc/x86_64-pc-linux-gnu/6.3.0/ -mtune=generic -march=x86-64 -g -O0
REM seed 448452018 1805866147 973862878 -1881738137 -1031638461 -956248226 -224591111 73010638 -2063143411 347569270 937993231 -2092487032
REM
REM C.POTCAR (d86ddea03c3ceb6dc662c8ad6801f873)
REM 
CELL 1.54180   15.00000   15.00000   15.00000   90.00000   90.00000   90.00000
LATT -1
SFAC C  
C      1  0.2571027529951  0.6631479721453  0.4272241909176 1.0
C      1  0.7424290332206  0.3380175419305  0.4236757267841 1.0
C      1  0.7368652240811  0.6578095671216  0.5800187996625 1.0
C      1  0.2599260751228  0.3476905594739  0.5782692204674 1.0
C      1  0.6616748345003  0.2572432942335  0.4236992592083 1.0
C      1  0.3363855132638  0.7424787076907  0.4271934930189 1.0
C      1  0.6519841558830  0.7398056971833  0.5780895761193 1.0
C      1  0.3419439202944  0.2628301696066  0.5802154549733 1.0
C      1  0.3298988624192  0.2065717364064  0.5036502969009 1.0
C      1  0.6595234781412  0.7941182711341  0.4989383322296 1.0
C      1  0.6885209377548  0.1896283899671  0.4902168769183 1.0
C      1  0.3173117376540  0.8075961784559  0.4965754673906 1.0
C      1  0.2056107870423  0.3401231213515  0.4991392393884 1.0
C      1  0.7930760758262  0.6698348240694  0.5034181742081 1.0
C      1  0.1919726024605  0.6821644647552  0.4966137192516 1.0
C      1  0.8100636704843  0.3112038881706  0.4901347279168 1.0
C      1  0.3238215927702  0.8045896455039  0.5785332159390 1.0
C      1  0.6791261937726  0.1928335680072  0.5718257155561 1.0
C      1  0.6683735137516  0.7959829376964  0.4171404572327 1.0
C      1  0.3132006409571  0.1985597270287  0.4236160995654 1.0
C      1  0.8068486977785  0.3205495467266  0.5717415668469 1.0
C      1  0.1950572083862  0.6757641213945  0.5785802005891 1.0
C      1  0.8010763803216  0.6865656326720  0.4233915051101 1.0
C      1  0.2037435193582  0.3312639544065  0.4173384356476 1.0
C      1  0.7106614974402  0.2288805475871  0.2751824818075 1.0
C      1  0.2875098289981  0.7723136330739  0.2807632346553 1.0
C      1  0.3001868450537  0.2449490383290  0.7322319306849 1.0
C      1  0.6962875628098  0.7589569880187  0.7302617629113 1.0
C      1  0.2272306062553  0.7119815552021  0.2807795749763 1.0
C      1  0.7707964307191  0.2889612580301  0.2751736292475 1.0
C      1  0.2407165853141  0.3033434851029  0.7304330923587 1.0
C      1  0.7547426180558  0.6995335603620  0.7320838432094 1.0
C      1  0.6346554655479  0.5670749987316  0.4632021115525 1.0
C      1  0.3697155572547  0.4358089677165  0.4615654483163 1.0
C      1  0.3107459485589  0.5747439871966  0.5746797362229 1.0
C      1  0.6932842602173  0.4268723531172  0.5648024369622 1.0
C      1  0.5638273068268  0.6299544359996  0.4614772488831 1.0
C      1  0.4326066069938  0.3649816298643  0.4633088330032 1.0
C      1  0.5728532828267  0.3064150278634  0.5648714835298 1.0
C      1  0.4249122344901  0.6889754781621  0.5746314202581 1.0
C      1  0.7982592636657  0.4676896560539  0.7117059714966 1.0
C      1  0.2015712859922  0.5325766173592  0.7193198407913 1.0
C      1  0.2162056944977  0.4713631179510  0.2892227839940 1.0
C      1  0.8040093957254  0.5291105377510  0.3113926819182 1.0
C      1  0.4671268964014  0.7981942981043  0.7192351837672 1.0
C      1  0.5321330674380  0.2015621807378  0.7118580834860 1.0
C      1  0.4705390301716  0.1954960721759  0.3115151502754 1.0
C      1  0.5281633475223  0.7834494405986  0.2891449480052 1.0
C      1  0.6548277783105  0.5765045513478  0.2799897271643 1.0
C      1  0.3578421339883  0.4077437599877  0.2477943814677 1.0
C      1  0.3520123017500  0.5823538530702  0.7513271968718 1.0
C      1  0.6513308069977  0.4135572900531  0.7449553808892 1.0
C      1  0.5917623156703  0.6418100401297  0.2477553900317 1.0
C      1  0.4231466958267  0.3446967809529  0.2800591876210 1.0
C      1  0.5862621604410  0.3484731128500  0.7450029588114 1.0
C      1  0.4173980797915  0.6477210820481  0.7513109046047 1.0
C      1  0.6604183937722  0.4894377458806  0.4165953646031 1.0
C      1  0.3694469644500  0.5222828886831  0.4248049446930 1.0
C      1  0.3426051063448  0.4968395275509  0.6144528108415 1.0
C      1  0.6568069217532  0.5025939337647  0.6104760569213 1.0
C      1  0.4773190960505  0.6301672068632  0.4247743640781 1.0
C      1  0.5102128157449  0.3392080052248  0.4166711725529 1.0
C      1  0.4971349174605  0.3429076057775  0.6105619186980 1.0
C      1  0.5028572152436  0.6571327222187  0.6143781901875 1.0
C      1  0.6521127448286  0.2700237504548  0.6261478312926 1.0
C      1  0.3491018262611  0.7275152988181  0.6347972434291 1.0
C      1  0.3119114417819  0.2447591908307  0.3404643189393 1.0
C      1  0.6818900702646  0.7501169640809  0.3347223682224 1.0
C      1  0.2721745470194  0.6505614919155  0.6348329314951 1.0
C      1  0.7297221411861  0.3476295007885  0.6260954153242 1.0
C      1  0.2495829026227  0.3176853575366  0.3349175339327 1.0
C      1  0.7548273981593  0.6877995025140  0.3402499234806 1.0
C      1  0.2147596445139  0.3694495698478  0.6714403629754 1.0
C      1  0.7812124828754  0.6338689699797  0.6726286525314 1.0
C      1  0.7850587426665  0.3591870795125  0.3300067628968 1.0
C      1  0.2194493955159  0.6387916888683  0.3336184189179 1.0
C      1  0.3659061554632  0.2185111067055  0.6728197798122 1.0
C      1  0.6302234144508  0.7849710533157  0.6712650797448 1.0
C      1  0.3607221404128  0.7801754397873  0.3335922407171 1.0
C      1  0.6404969337168  0.2145727114498  0.3300625912562 1.0
C      1  0.4508574822006  0.1892949684980  0.6936027505964 1.0
C      1  0.5463092374584  0.8139711199472  0.6955920783393 1.0
C      1  0.5528150994940  0.1877982631127  0.3127252150767 1.0
C      1  0.4489451339243  0.7941837076188  0.3080325878802 1.0
C      1  0.1857932426085  0.4533787103447  0.6957461728454 1.0
C      1  0.8105319096089  0.5489426096872  0.6933833782583 1.0
C      1  0.2054709803778  0.5505650869514  0.3080824732611 1.0
C      1  0.8118082859662  0.4468529629560  0.3126253951665 1.0
C      1  0.4033005677668  0.6719744424380  0.4782405453033 1.0
C      1  0.5778949370435  0.2995723895692  0.4689696458190 1.0
C      1  0.5829784731123  0.6575070665743  0.5578730868972 1.0
C      1  0.4138327196556  0.3431277314828  0.5588428440340 1.0
C      1  0.7000936638537  0.4218091823920  0.4689174558046 1.0
C      1  0.3276721297666  0.5963140719603  0.4782773782649 1.0
C      1  0.6565680614009  0.5858812995959  0.5587339161841 1.0
C      1  0.3422063605884  0.4166981525155  0.5579772276546 1.0
C      1  0.2671182471208  0.3928164235370  0.2782758701897 1.0
C      1  0.7457520008133  0.6027362608377  0.2996237568756 1.0
C      1  0.7437595691304  0.3936259904625  0.7162245816114 1.0
C      1  0.2589854836139  0.6040668563344  0.7242859910008 1.0
C      1  0.3969343490367  0.2537691537365  0.2997606402852 1.0
C      1  0.6067174718319  0.7325676007607  0.2781388660222 1.0
C      1  0.3956597000738  0.7407410904901  0.7242232442331 1.0
C      1  0.6062024504173  0.2560385447917  0.7163151920743 1.0
C      1  0.6276317063014  0.4941226611371  0.3227749155150 1.0
C      1  0.3943771717565  0.4934890114893  0.2270664045249 1.0
C      1  0.3747643464463  0.4960995302771  0.7060872581597 1.0
C      1  0.6251593955126  0.4994053890922  0.7006125768761 1.0
C      1  0.5060253671082  0.6052140296335  0.2270545678778 1.0
C      1  0.5054828556970  0.3719455075456  0.3228363145069 1.0
C      1  0.5003948516819  0.3746088039439  0.7006774405140 1.0
C      1  0.5036431666071  0.6249983812259  0.7060285369334 1.0
C      1  0.4473562140771  0.4447218325487  0.7370649289771 1.0
C      1  0.5452436565790  0.4543407034806  0.3009292063421 1.0
C      1  0.4351550792819  0.5643838666197  0.1887488718028 1.0
C      1  0.5550419725935  0.5524344151873  0.7370071831829 1.0
C      1  0.5004081597507  0.4993984164201  0.7974794495757 1.0
C      1  0.4764877182749  0.5230835954823  0.2842783822100 1.0
C      1  0.4399815691162  0.5596184042931  0.3714940001629 1.0
END
