TITL C-21800-7154-17 -8.912 3375.00 -1534.37990456 0 0 188 (C1) n - 1
REM
REM Run started: at 2021.01.02 20:38:55 in /gpfs/home/chem/mssmkc/CARBON/AIRSS/Generating-Clusters/Str-Search/Higher-Symm/C100-200
REM VASP from code version vasp.5.4.4.18Apr17-6-g9f103f2a35 (build Oct 11 2019 16:45:47) gamma-only
REM
REM
REM
REM
REM ./C.cell (533062f00bc710175b3da973d35f2034)
REM AIRSS Version 0.9.1 bugfix July 2018 build 013d7b7c2542+ Fri, 06 Jul 2018 19:26:36 +0100
REM compiler GCC version 6.3.0
REM options -cpp -iprefix /gpfs/warwick/csc/orac/software/Core/GCCcore/6.3.0/bin/../lib/gcc/x86_64-pc-linux-gnu/6.3.0/ -mtune=generic -march=x86-64 -g -O0
REM seed -564070204 -1186997153 985432623 -745564838 1104433787 -1700549656 2048419099 563483335 -160326402 -102348004 -1545128428 1988295100
REM
REM C.POTCAR (d86ddea03c3ceb6dc662c8ad6801f873)
REM 
CELL 1.54180   15.00000   15.00000   15.00000   90.00000   90.00000   90.00000
LATT -1
SFAC C  
C      1  0.5879798096698  0.3875284326561  0.4454340808859 1.0
C      1  0.6473750584125  0.5623278339143  0.4267913917577 1.0
C      1  0.5046871947307  0.6725569043244  0.4307938591370 1.0
C      1  0.3575900848044  0.5413692370956  0.4430039422674 1.0
C      1  0.4052307570070  0.3792602602075  0.4362933102020 1.0
C      1  0.2525338069947  0.1891795085232  0.5296043200786 1.0
C      1  0.7143453006539  0.1885777434344  0.5331923113472 1.0
C      1  0.8734950331458  0.6039579416196  0.5268650452486 1.0
C      1  0.5082644729360  0.8874843963858  0.5345138949720 1.0
C      1  0.1466867384685  0.6223723104501  0.5359702845249 1.0
C      1  0.7210292603421  0.2024324652135  0.1988953635848 1.0
C      1  0.8601226771684  0.6125338712623  0.1922729249395 1.0
C      1  0.4996840256773  0.8839198528482  0.2006013745490 1.0
C      1  0.1399821630137  0.6157507215917  0.2043206858310 1.0
C      1  0.2955063288978  0.2198097536868  0.1967214377327 1.0
C      1  0.3103444219681  0.5097247036932  0.2428441655007 1.0
C      1  0.4379647797969  0.3297888184165  0.2400215947590 1.0
C      1  0.6406329079987  0.3849579660588  0.2424346350477 1.0
C      1  0.6552611147427  0.6142174386982  0.2330362682976 1.0
C      1  0.4397652569273  0.6888064046892  0.2361265983001 1.0
C      1  0.4950969107501  0.5964205750869  0.3664840057558 1.0
C      1  0.4189476277364  0.5308912570760  0.3694627568981 1.0
C      1  0.4532457851531  0.4367068665650  0.3710145358330 1.0
C      1  0.5525747414277  0.4446915612005  0.3729674878808 1.0
C      1  0.5784480146573  0.5411593645191  0.3619095687352 1.0
C      1  0.2355672060606  0.6711566418081  0.5592299579316 1.0
C      1  0.2369505299648  0.2845804111828  0.5616406405423 1.0
C      1  0.6149050513350  0.2007911085832  0.5542894328389 1.0
C      1  0.8383400634785  0.5093473724173  0.5518543492624 1.0
C      1  0.5884584079213  0.8318293387605  0.5629130253487 1.0
C      1  0.5571872420698  0.6545382903705  0.5068572868875 1.0
C      1  0.4157907944165  0.5212317355559  0.5305044315386 1.0
C      1  0.4138426174683  0.4160021289487  0.5293561468179 1.0
C      1  0.5265478199104  0.4075102404383  0.5356512200207 1.0
C      1  0.5859867874660  0.5628861188519  0.5023813581654 1.0
C      1  0.4069910303444  0.8205054654294  0.4345810938282 1.0
C      1  0.1759537986483  0.5045530563625  0.4381360280458 1.0
C      1  0.3861967173490  0.2006456963431  0.4333042582219 1.0
C      1  0.7545780349007  0.3027122608150  0.4350552710670 1.0
C      1  0.7772501398964  0.6864945905148  0.4284830824191 1.0
C      1  0.6847602557462  0.4009435836386  0.6576820493255 1.0
C      1  0.6569440027149  0.6387332862348  0.6355611491741 1.0
C      1  0.4254147265427  0.6590173762529  0.6244358284206 1.0
C      1  0.2955388889932  0.4597717677599  0.6616129415349 1.0
C      1  0.4689131383049  0.2998977548176  0.6614884492148 1.0
C      1  0.6875824058414  0.2661915926850  0.1528934602320 1.0
C      1  0.7900835526840  0.6266596921986  0.1379414521266 1.0
C      1  0.4658491907157  0.8247299840853  0.1420320527404 1.0
C      1  0.1858148079157  0.5655367859221  0.1443838865235 1.0
C      1  0.3464406458157  0.2531234979745  0.1324929248290 1.0
C      1  0.3577513914317  0.8271158563590  0.7391414739344 1.0
C      1  0.1310498985017  0.4655250274472  0.7500453144666 1.0
C      1  0.4099258454326  0.1318818648988  0.7237916890922 1.0
C      1  0.8015400332416  0.3192367046133  0.7511200951910 1.0
C      1  0.7685878758961  0.7370712418711  0.7365662868999 1.0
C      1  0.5465023682551  0.9029256794157  0.3656749751643 1.0
C      1  0.1400763111947  0.6643510538730  0.3702534728389 1.0
C      1  0.2312928907830  0.2067082167344  0.3573581049836 1.0
C      1  0.6987963198253  0.1590762575921  0.3624365662071 1.0
C      1  0.8927141567533  0.5735240997377  0.3583522969170 1.0
C      1  0.3720746414096  0.2688444387004  0.8010326657064 1.0
C      1  0.6921929049812  0.2172227596526  0.7332790080322 1.0
C      1  0.8289398762184  0.6023826189996  0.7470572795001 1.0
C      1  0.5068287231612  0.8069224304610  0.7105991385359 1.0
C      1  0.1843608493232  0.6062189425961  0.7359261776060 1.0
C      1  0.5246831015771  0.2548675719561  0.7802428486561 1.0
C      1  0.7419745013542  0.4691476606876  0.8220372358199 1.0
C      1  0.6156163594065  0.7231981353665  0.8134219638965 1.0
C      1  0.3305497547870  0.6696382040391  0.7916103389963 1.0
C      1  0.2809025043139  0.4008050192439  0.7494082725606 1.0
C      1  0.2832979641247  0.1853056379616  0.4358294421783 1.0
C      1  0.7346991783932  0.2024112789255  0.4427907376112 1.0
C      1  0.8622331109857  0.6267569710788  0.4361678423101 1.0
C      1  0.4872419546458  0.8848174762693  0.4409384782594 1.0
C      1  0.1369539728564  0.6002918290067  0.4455945368580 1.0
C      1  0.7079292260839  0.6204186687877  0.1576882397562 1.0
C      1  0.4505146449358  0.7438765764366  0.1643621132450 1.0
C      1  0.2595991379962  0.5318995506628  0.1695689527356 1.0
C      1  0.4240118848824  0.3016062214173  0.1472666309653 1.0
C      1  0.6417268723239  0.3448807802821  0.1543477891907 1.0
C      1  0.7516711487121  0.7162492114954  0.5258365546517 1.0
C      1  0.3735176702069  0.8002232682117  0.5348969423975 1.0
C      1  0.1736893703224  0.4573825011452  0.5319764551952 1.0
C      1  0.4423785455783  0.1994013477054  0.5204025626833 1.0
C      1  0.7857076486110  0.3371984147799  0.5289475209412 1.0
C      1  0.1801462822057  0.7476624602020  0.3871899063227 1.0
C      1  0.1612631714602  0.2706213281006  0.3747022623742 1.0
C      1  0.6101333751247  0.1232402676357  0.3705732243210 1.0
C      1  0.9048596323570  0.4802808621759  0.3709181752287 1.0
C      1  0.6397752167062  0.8855544497577  0.3793149262439 1.0
C      1  0.5080447762744  0.6271713271257  0.6567849011478 1.0
C      1  0.3448298809049  0.5407986925165  0.6998231906744 1.0
C      1  0.4059483269710  0.3677573914753  0.6967831072724 1.0
C      1  0.6075386828943  0.3646363599663  0.7067884637032 1.0
C      1  0.6375008283896  0.5579870128357  0.6740662036893 1.0
C      1  0.1321653816090  0.5429216042592  0.6949618063968 1.0
C      1  0.3599632321990  0.1513332929872  0.6499873495607 1.0
C      1  0.7692696119968  0.2504639904776  0.6940621448949 1.0
C      1  0.8270506317977  0.6801303548733  0.6914392389087 1.0
C      1  0.4283311059018  0.8577773564044  0.6853497980098 1.0
C      1  0.4165592492295  0.3476661825609  0.8387806270014 1.0
C      1  0.5685907698507  0.4135459880492  0.7892209411329 1.0
C      1  0.5852730463783  0.5479585623516  0.8411408464495 1.0
C      1  0.4862822309422  0.6743293083097  0.8343194303065 1.0
C      1  0.4112049013223  0.5223935376690  0.7827425989209 1.0
C      1  0.6640653468493  0.3495512377314  0.4104830989695 1.0
C      1  0.7086287541386  0.6197881858546  0.3941259788098 1.0
C      1  0.4509343880268  0.7393381804859  0.3971326917704 1.0
C      1  0.2738540899040  0.5219482134926  0.4111768681367 1.0
C      1  0.3957810986866  0.2973946189388  0.4015467908543 1.0
C      1  0.1770098337588  0.3514875369537  0.5282181566742 1.0
C      1  0.5311773287887  0.1641659498337  0.5177115220094 1.0
C      1  0.8519546523254  0.4182225803924  0.5237462187860 1.0
C      1  0.6772546839384  0.8080971324604  0.5289269290957 1.0
C      1  0.2738461988893  0.7600703106425  0.5329640642801 1.0
C      1  0.4082264565468  0.6237736623272  0.8224779823648 1.0
C      1  0.3750769420834  0.4257308342451  0.7923720071517 1.0
C      1  0.5094827643683  0.3390922269204  0.8280649854559 1.0
C      1  0.6447683906994  0.4745207115600  0.8333326344540 1.0
C      1  0.5758380042587  0.6409949528313  0.8509080224480 1.0
C      1  0.3172119988894  0.3010275030242  0.6175314862010 1.0
C      1  0.6167849615609  0.2877902618186  0.5789076625595 1.0
C      1  0.7549758475167  0.5336083083279  0.5835163456130 1.0
C      1  0.5373396110419  0.7697725642729  0.6193215325305 1.0
C      1  0.2821213091042  0.5942217673644  0.5762195011805 1.0
C      1  0.5635214644331  0.4418159504511  0.2676105515930 1.0
C      1  0.5804216799303  0.5515494522411  0.2592308410800 1.0
C      1  0.4811960170167  0.6004631664359  0.2617909999223 1.0
C      1  0.4069586377168  0.5208580314696  0.2663918152790 1.0
C      1  0.4581646103527  0.4240295908001  0.2679465544776 1.0
C      1  0.6961831108745  0.4902576336406  0.6431798736055 1.0
C      1  0.5740370083985  0.6799425028089  0.6070966043028 1.0
C      1  0.3715134935159  0.5815292990058  0.6084900370042 1.0
C      1  0.3584006178147  0.3941533723096  0.6119074598883 1.0
C      1  0.5477373250573  0.3434495683739  0.6202012611012 1.0
C      1  0.2544400405441  0.8060362287998  0.3687455014849 1.0
C      1  0.1439433789656  0.3646457114487  0.3613991120962 1.0
C      1  0.5147273101138  0.1305067056004  0.3534529390506 1.0
C      1  0.8649580961543  0.3936585423816  0.3557301073285 1.0
C      1  0.7121694338764  0.8238268742772  0.3610227173975 1.0
C      1  0.4377562478223  0.7389059313952  0.5832287532854 1.0
C      1  0.2364575318287  0.5069874740492  0.5931641776228 1.0
C      1  0.4040385185537  0.2407458141343  0.6049349280440 1.0
C      1  0.7028292135869  0.3363663757272  0.5883617564830 1.0
C      1  0.7315196372867  0.6301887262222  0.5796551274600 1.0
C      1  0.6985785158084  0.7450524832613  0.7812382573629 1.0
C      1  0.3266903261081  0.7625283993261  0.7812108230362 1.0
C      1  0.1877812639276  0.4123614950699  0.7776260526286 1.0
C      1  0.4383949672161  0.2038561919266  0.7769250322803 1.0
C      1  0.7810489197067  0.3873064140389  0.7942056560373 1.0
C      1  0.1732843328943  0.4516974744155  0.3502120117270 1.0
C      1  0.4391788613338  0.1822077317830  0.3445246731576 1.0
C      1  0.7865044361362  0.3439099771521  0.3465149423387 1.0
C      1  0.7438853893581  0.7379973603385  0.3429382493453 1.0
C      1  0.3456914916325  0.8065178229487  0.3510220650107 1.0
C      1  0.3215465608116  0.3120124866250  0.7226917631376 1.0
C      1  0.6166485980418  0.2611157352064  0.7451759270348 1.0
C      1  0.7941890173839  0.5442256665373  0.7959003973218 1.0
C      1  0.5268459952261  0.7562556145419  0.7894738435988 1.0
C      1  0.2736849968889  0.6077371501187  0.7459460815301 1.0
C      1  0.6961457888118  0.3651134950409  0.3167628985125 1.0
C      1  0.6986051920570  0.6592697658559  0.3068117384633 1.0
C      1  0.4069965451096  0.7393934404700  0.3132573201900 1.0
C      1  0.2564152966371  0.4912605195078  0.3189963699208 1.0
C      1  0.4265908180849  0.2725276506609  0.3117462399999 1.0
C      1  0.1230560284933  0.6400535735110  0.2819478871907 1.0
C      1  0.2577295035011  0.1985613829976  0.2688755645927 1.0
C      1  0.7336284123365  0.1758707900231  0.2795880480470 1.0
C      1  0.8869802247028  0.6035724200785  0.2707121546090 1.0
C      1  0.5171772094621  0.9094565105140  0.2778925723834 1.0
C      1  0.1387294895684  0.5367275477977  0.5946779640394 1.0
C      1  0.2934494025670  0.1327740700599  0.5890968303334 1.0
C      1  0.7682245115258  0.2554880668080  0.5926051260147 1.0
C      1  0.8246041601009  0.6740402592383  0.5897050751309 1.0
C      1  0.4248499655293  0.8783307075891  0.5894049825927 1.0
C      1  0.4689632124859  0.4901632317055  0.9992077727867 1.0
C      1  0.4501930230591  0.4030460944991  0.0167616754808 1.0
C      1  0.4839170369588  0.3365344976493  0.0802729365711 1.0
C      1  0.5733160228090  0.3704965385077  0.0893849764687 1.0
C      1  0.5364895561515  0.4512986232267  0.0561607357940 1.0
C      1  0.2277643261802  0.7877783029216  0.4584472199529 1.0
C      1  0.1369885631516  0.3234472196860  0.4465544885936 1.0
C      1  0.5504899976830  0.1144904307115  0.4395393117710 1.0
C      1  0.8967217478228  0.4190510708236  0.4414420428435 1.0
C      1  0.6926897884267  0.8542101885386  0.4486278751550 1.0
C      1  0.5448956984555  0.5546769623867  0.6978355940635 1.0
C      1  0.5143335275520  0.5050189814488  0.7762083153722 1.0
C      1  0.5201043404760  0.5072708480888  0.5312173420602 1.0
END
