TITL C-215682-6932-9 -3.748 3375.00 -635.38345032 0 0 78 (Cs) n - 1
REM
REM Run started: at 2020.12.28 03:36:34 in /rds/project/t2_vol4/rds-t2-cs072/BORA/CARBON/AIRSS/Generating-Clusters/Str-Search/Higher-Symm/C10-100
REM VASP from code version vasp.5.4.4.18Apr17-6-g9f103f2a35 (build Oct 11 2019 16:45:47) gamma-only
REM
REM
REM
REM
REM ./C.cell (f39ce9773e2efe3fa5bbdf770a4156b8)
REM AIRSS Version 0.9.1 bugfix July 2018 build 013d7b7c2542+ Fri, 06 Jul 2018 19:26:36 +0100
REM compiler GCC version 4.8.5 20150623 (Red Hat 4.8.5-39)
REM options -cpp -mtune=generic -march=x86-64 -g -O0
REM seed -1733751616 -1666309166 1430415751 360896010 -1314283846 1111306020 -948092994 496522380 892432921 -1586308152 671975299 225260495
REM
REM C.POTCAR (d86ddea03c3ceb6dc662c8ad6801f873)
REM 
CELL 1.54180   15.00000   15.00000   15.00000   90.00000   90.00000   90.00000
LATT -1
SFAC C  
C      1  0.4361203912793  0.2681154534825  0.4049039693916 1.0
C      1  0.4555349012074  0.2581144886723  0.5987090743305 1.0
C      1  0.6143712019806  0.2649985463297  0.4895267949451 1.0
C      1  0.4361208194816  0.7318846313309  0.4049039470717 1.0
C      1  0.4555353389046  0.7418856742462  0.5987088696839 1.0
C      1  0.6143716509912  0.7350011580597  0.4895265429893 1.0
C      1  0.5294133303556  0.2905061886901  0.6368051068613 1.0
C      1  0.6076209712822  0.2854292798112  0.4022944285000 1.0
C      1  0.3635615718436  0.2843934395702  0.4552655131760 1.0
C      1  0.5294136977281  0.7094938821043  0.6368049356098 1.0
C      1  0.6076214577281  0.7145704247902  0.4022942550299 1.0
C      1  0.3635620154552  0.7156067589471  0.4552653121618 1.0
C      1  0.5885686146900  0.6913481712364  0.5613990197915 1.0
C      1  0.5130009620162  0.6902736714083  0.3957730653297 1.0
C      1  0.4057747154504  0.6969994392470  0.5418407351655 1.0
C      1  0.5885682240658  0.3086517584831  0.5613992482664 1.0
C      1  0.5130005732903  0.3097261781098  0.3957732008541 1.0
C      1  0.4057744171802  0.3030007258095  0.5418408960075 1.0
C      1  0.7582886675878  0.6083674975299  0.4786715099661 1.0
C      1  0.3542163772783  0.6078289033672  0.2893423743412 1.0
C      1  0.3794677808576  0.5957063094123  0.7395900796441 1.0
C      1  0.7582884253650  0.3916319965023  0.4786717305735 1.0
C      1  0.3542161752514  0.3921712756718  0.2893424852513 1.0
C      1  0.3794675343842  0.4042939988667  0.7395900340779 1.0
C      1  0.2155943477806  0.5474132303848  0.3685833515747 1.0
C      1  0.5253208256839  0.5491051999057  0.8199036245650 1.0
C      1  0.7588850026548  0.5474634533514  0.3177888321546 1.0
C      1  0.2155942492875  0.4525871065674  0.3685833796710 1.0
C      1  0.5253207051304  0.4508950475073  0.8199035408982 1.0
C      1  0.7588849128851  0.4525359402428  0.3177889102531 1.0
C      1  0.2796826499473  0.6151926484169  0.3488224682137 1.0
C      1  0.4696903380217  0.6017747500195  0.7662090730024 1.0
C      1  0.7420589945139  0.6147307678320  0.3844889596113 1.0
C      1  0.2796824909275  0.3848076401343  0.3488225899627 1.0
C      1  0.4696900876488  0.3982255622407  0.7662090646619 1.0
C      1  0.7420587516276  0.3852687333742  0.3844892123817 1.0
C      1  0.6622690095950  0.3421943466375  0.3503071015067 1.0
C      1  0.2901104839958  0.3401186265416  0.4343589684448 1.0
C      1  0.5303352500693  0.3740115655227  0.6897811121669 1.0
C      1  0.6622692445183  0.6578051918236  0.3503069773377 1.0
C      1  0.2901107420403  0.6598817775542  0.4343588610399 1.0
C      1  0.5303355223815  0.6259886462652  0.6897811070768 1.0
C      1  0.3258237142790  0.5969979855269  0.6756823069785 1.0
C      1  0.7411211200993  0.5908396046273  0.5578984364719 1.0
C      1  0.4319625837637  0.5897387921690  0.2678404525724 1.0
C      1  0.3258235343137  0.4030022737967  0.6756823048664 1.0
C      1  0.7411209808826  0.4091600508754  0.5578986889482 1.0
C      1  0.4319625179003  0.4102612876370  0.2678405154015 1.0
C      1  0.5820970509783  0.4546196746541  0.4630070587391 1.0
C      1  0.4324726652810  0.4545392819362  0.4581703822771 1.0
C      1  0.4985299936597  0.4442790336798  0.6033439386168 1.0
C      1  0.5820971467857  0.5453801316618  0.4630069925403 1.0
C      1  0.4324727468510  0.5454608032130  0.4581703587205 1.0
C      1  0.4985301233635  0.5557210599591  0.6033439188528 1.0
C      1  0.4147229780894  0.5923687867879  0.5475942936318 1.0
C      1  0.5861040787324  0.5870890690734  0.5524329711760 1.0
C      1  0.5095367341164  0.5868476870854  0.4038609062240 1.0
C      1  0.4147228407469  0.4076313931119  0.5475943383892 1.0
C      1  0.5861039185296  0.4129108196343  0.5524330307384 1.0
C      1  0.5095365788512  0.4131521671719  0.4038609379619 1.0
C      1  0.5205128150169  0.5583757637688  0.3022316984340 1.0
C      1  0.3171393144197  0.5775949055839  0.5835415921709 1.0
C      1  0.6653196122805  0.5567477555243  0.6141455950626 1.0
C      1  0.5205126679803  0.4416240838449  0.3022317011802 1.0
C      1  0.3171392153828  0.4224054156077  0.5835416574491 1.0
C      1  0.6653194320384  0.4432521199849  0.6141456877008 1.0
C      1  0.6197271720803  0.5487974642774  0.7831951397356 1.0
C      1  0.6838630231299  0.5479075799423  0.2513520939334 1.0
C      1  0.1965656123622  0.5475889619951  0.4673979675668 1.0
C      1  0.6197270401379  0.4512025907185  0.7831950861056 1.0
C      1  0.6838630508974  0.4520918547934  0.2513520824360 1.0
C      1  0.1965655240018  0.4524115207014  0.4673980145384 1.0
C      1  0.2534256253433  0.6065105147688  0.5099583652399 1.0
C      1  0.6253172812350  0.5917961210388  0.7030790819895 1.0
C      1  0.6158729990848  0.6018269712035  0.2809020471137 1.0
C      1  0.2534254270384  0.3934899390230  0.5099584176514 1.0
C      1  0.6253170685286  0.4082038882757  0.7030790800634 1.0
C      1  0.6158727874537  0.3981725603463  0.2809021949787 1.0
END
