TITL C-21373-5286-1 -8.101 3375.00 -1322.31741813 0 0 162 (C1) n - 1
REM
REM Run started: at 2020.12.09 05:04:43 in /rds/project/t2_vol4/rds-t2-cs072/BORA/CARBON/AIRSS/Generating-Clusters/Str-Search/Higher-Symm/C100-200
REM VASP from code version vasp.5.4.4.18Apr17-6-g9f103f2a35 (build Oct 11 2019 16:45:47) gamma-only
REM
REM
REM
REM
REM ./C.cell (533062f00bc710175b3da973d35f2034)
REM AIRSS Version 0.9.1 bugfix July 2018 build 013d7b7c2542+ Fri, 06 Jul 2018 19:26:36 +0100
REM compiler GCC version 4.8.5 20150623 (Red Hat 4.8.5-39)
REM options -cpp -mtune=generic -march=x86-64 -g -O0
REM seed -403266845 1043036032 604067924 -149244845 -1261165508 870587406 -1202454657 1892122623 17388527 1471579069 -361255811 53761429
REM
REM C.POTCAR (d86ddea03c3ceb6dc662c8ad6801f873)
REM 
CELL 1.54180   15.00000   15.00000   15.00000   90.00000   90.00000   90.00000
LATT -1
SFAC C  
C      1  0.2196751942864  0.4045509206154  0.7368686364311 1.0
C      1  0.7617849341684  0.1862699236417  0.4179366188862 1.0
C      1  0.4009063507312  0.7224673072323  0.2335474437998 1.0
C      1  0.7957690138624  0.5857004023451  0.7697242445924 1.0
C      1  0.7910277747525  0.4077548752676  0.2440040132310 1.0
C      1  0.2160114047665  0.5923582366457  0.2718407748697 1.0
C      1  0.2610867154285  0.7855618201838  0.4046378060893 1.0
C      1  0.2215002162502  0.1910437780698  0.5814652920784 1.0
C      1  0.7084120811528  0.7723926437102  0.5721581678930 1.0
C      1  0.5953166335950  0.2673477187295  0.1995379141144 1.0
C      1  0.5948426725366  0.7442388237049  0.7898270450500 1.0
C      1  0.4103107449552  0.2846885157589  0.7852650303283 1.0
C      1  0.1745429726298  0.4246915524647  0.2189290165495 1.0
C      1  0.7343063894450  0.2173721896911  0.6024123299080 1.0
C      1  0.4111587076479  0.7621700781006  0.8162324980123 1.0
C      1  0.8285059602124  0.5911393532455  0.2537713628646 1.0
C      1  0.7883717339426  0.4127821600530  0.7231823796440 1.0
C      1  0.1895913441790  0.5884507439897  0.7540874752779 1.0
C      1  0.2406877969468  0.8008018821048  0.5903046697727 1.0
C      1  0.2790472477025  0.2068494948211  0.4117717559339 1.0
C      1  0.7532846157872  0.7802974646846  0.3988372147263 1.0
C      1  0.5771160890303  0.2234112039407  0.8109747147214 1.0
C      1  0.5947005363450  0.7806774830198  0.1875203104730 1.0
C      1  0.4102512142855  0.2492660304985  0.2106883118088 1.0
C      1  0.2047754441653  0.7240712644720  0.4098337662140 1.0
C      1  0.4116901135862  0.2205938254858  0.7336710735467 1.0
C      1  0.7292471131742  0.4089992279641  0.1884299711604 1.0
C      1  0.8161420227723  0.2481129894935  0.4142283003512 1.0
C      1  0.7815482821107  0.7351293320612  0.5707572847592 1.0
C      1  0.1829689300138  0.2645901463137  0.5803877819352 1.0
C      1  0.5921953220125  0.7944216383922  0.7235258773167 1.0
C      1  0.5893774708933  0.2083465777351  0.2591630281555 1.0
C      1  0.4047836429569  0.7929998357700  0.2781229582729 1.0
C      1  0.2687906258168  0.5920634215656  0.2074717385153 1.0
C      1  0.2764255730231  0.4119798481806  0.7970227852072 1.0
C      1  0.7276913277506  0.5863642031299  0.8168634341013 1.0
C      1  0.1785334386094  0.7473265284616  0.5881158373413 1.0
C      1  0.4119242909419  0.1989731349243  0.2773902676007 1.0
C      1  0.7341260805034  0.4185636851421  0.7850063050078 1.0
C      1  0.7935273858534  0.2769335209322  0.5925107586710 1.0
C      1  0.8134514833911  0.7236570239240  0.4059814623891 1.0
C      1  0.2188054535167  0.2628217668130  0.4107103268232 1.0
C      1  0.5702343665684  0.8466287797427  0.2310152169483 1.0
C      1  0.5777581823897  0.1783934214321  0.7410315685336 1.0
C      1  0.4161398567942  0.8139238987201  0.7507632082754 1.0
C      1  0.2481058445957  0.5876043237814  0.8136751807149 1.0
C      1  0.2433337801189  0.4178592006757  0.1733559967021 1.0
C      1  0.7812011610540  0.5722223989788  0.1873640040510 1.0
C      1  0.4454761438680  0.6825791275745  0.8475773251923 1.0
C      1  0.8038875656231  0.4713805913453  0.6450846781378 1.0
C      1  0.6690176086850  0.8168595962706  0.4204099117180 1.0
C      1  0.5628763952527  0.3110765338788  0.8428587722901 1.0
C      1  0.6023821872179  0.6877448193512  0.1964210218740 1.0
C      1  0.4513277310661  0.3370759795095  0.1906657941309 1.0
C      1  0.1617714836522  0.5520006385470  0.6739396874475 1.0
C      1  0.1553303523409  0.4417385762150  0.3095449221528 1.0
C      1  0.8494806833713  0.5457475004936  0.3322248568660 1.0
C      1  0.3528688813671  0.1898335875116  0.4753413263884 1.0
C      1  0.3291695216752  0.8083548857342  0.5514500951055 1.0
C      1  0.6637555092516  0.1755988451925  0.5592209154580 1.0
C      1  0.4509816469057  0.6450944465861  0.2107224362441 1.0
C      1  0.8085254644388  0.4513668202100  0.3303954851899 1.0
C      1  0.6300133744091  0.7787060846803  0.5140752261223 1.0
C      1  0.5508239989803  0.3405416353331  0.1632450495609 1.0
C      1  0.5409780631854  0.6628275723033  0.8112899199090 1.0
C      1  0.4737822544134  0.3588390980273  0.8020570634845 1.0
C      1  0.2008994929230  0.5300270455866  0.3492254052638 1.0
C      1  0.2008986778097  0.4568282176003  0.6548181831843 1.0
C      1  0.8317973844318  0.5670337896497  0.6845857750631 1.0
C      1  0.3071090043087  0.1541232264596  0.5655544098276 1.0
C      1  0.3307861627616  0.8262509933570  0.4511283856939 1.0
C      1  0.6718649261901  0.1932351495869  0.4577506793142 1.0
C      1  0.3757756582841  0.5509215869058  0.3925005102641 1.0
C      1  0.4294510058908  0.3406813791446  0.5450541447438 1.0
C      1  0.5386087300624  0.3958042536031  0.3442254974145 1.0
C      1  0.6229954362574  0.4473835415932  0.3589449652589 1.0
C      1  0.6522150100570  0.5242794198726  0.5630291072409 1.0
C      1  0.3830912880170  0.4662281350413  0.6167505888763 1.0
C      1  0.6152265611174  0.6140138994183  0.5711616011107 1.0
C      1  0.6011120974481  0.3667389283459  0.4160798643133 1.0
C      1  0.4150955427818  0.6769647866925  0.4722348174707 1.0
C      1  0.4399367861439  0.6238425166913  0.4047526360067 1.0
C      1  0.4533523428526  0.3983502082911  0.6195023541089 1.0
C      1  0.5721977384937  0.6285355955835  0.6471315509567 1.0
C      1  0.3632627139002  0.5562862936926  0.6461781621677 1.0
C      1  0.3967264683998  0.3707068111564  0.4558611691831 1.0
C      1  0.5511893548001  0.4128709948633  0.6450118276785 1.0
C      1  0.6268271208258  0.4276984404437  0.5856005427695 1.0
C      1  0.6511529382959  0.5371670607592  0.3980815227689 1.0
C      1  0.3645464880049  0.4493315112734  0.4035506664284 1.0
C      1  0.6092988474616  0.6248590271541  0.4141065040631 1.0
C      1  0.6210845270165  0.3627889526968  0.5106935255727 1.0
C      1  0.3740145658664  0.6527870220593  0.6209070367678 1.0
C      1  0.4216898564579  0.6204558605768  0.6897433476393 1.0
C      1  0.4341040980618  0.3934587684224  0.3642177928104 1.0
C      1  0.5303962034203  0.6372542777857  0.3542904587462 1.0
C      1  0.8489014316543  0.6725726808891  0.5506068396335 1.0
C      1  0.5444773630980  0.8320239394831  0.6509665609425 1.0
C      1  0.6539824849825  0.5399551476257  0.8545972207483 1.0
C      1  0.1532644957077  0.3418246559182  0.5342519298717 1.0
C      1  0.1585269685147  0.6566663686458  0.4555532094280 1.0
C      1  0.8487535682207  0.3271408774977  0.4493751423032 1.0
C      1  0.4361902140723  0.1516317290140  0.6735422930075 1.0
C      1  0.4497282525539  0.8493611417449  0.3401429476192 1.0
C      1  0.5559896543438  0.1619151636902  0.3328468945666 1.0
C      1  0.3429568007767  0.4605841933839  0.8426227199873 1.0
C      1  0.3353771136964  0.5493490168558  0.1567429087279 1.0
C      1  0.6626116779553  0.4611249754234  0.1456642142349 1.0
C      1  0.8589929545669  0.6564990807422  0.4556167349764 1.0
C      1  0.5387662148374  0.8726706703399  0.3158164781162 1.0
C      1  0.6966003382045  0.5536264103855  0.1472117908228 1.0
C      1  0.1552317769069  0.3282299694864  0.4353763602903 1.0
C      1  0.1419376558211  0.6704507841084  0.5500947594847 1.0
C      1  0.8421622220982  0.3416403842612  0.5466259702574 1.0
C      1  0.4583043514791  0.1574132506182  0.3469522887906 1.0
C      1  0.4485585076462  0.8467201232652  0.6708425704292 1.0
C      1  0.5343601498988  0.1448582123719  0.6639470270846 1.0
C      1  0.3248881583724  0.4543815253167  0.1470924392344 1.0
C      1  0.3243848776454  0.5558446488051  0.8559619141655 1.0
C      1  0.6694722400871  0.4416476577549  0.8499634480200 1.0
C      1  0.4126999023204  0.4179052483743  0.1472369559035 1.0
C      1  0.1289807427409  0.3832035734178  0.3698459871264 1.0
C      1  0.4393987190343  0.1480139657562  0.4404335008772 1.0
C      1  0.6485222983769  0.6285925244216  0.1501340709866 1.0
C      1  0.6200120707578  0.3705799196660  0.8745770031838 1.0
C      1  0.4101499769064  0.5976654496509  0.8689993587654 1.0
C      1  0.8665876945950  0.5661789115234  0.4244002369507 1.0
C      1  0.8526749337858  0.4375461875967  0.5629174840021 1.0
C      1  0.1370135321554  0.5844490458031  0.5896789567702 1.0
C      1  0.6117880615201  0.8638492593703  0.3718207339023 1.0
C      1  0.5719093364138  0.1474022942077  0.5761897487169 1.0
C      1  0.4063613848189  0.8590891285720  0.5872879701597 1.0
C      1  0.4375062009501  0.4437533524308  0.8468359205591 1.0
C      1  0.1590775581048  0.4297237254086  0.5648062972646 1.0
C      1  0.3669743110826  0.1234055295555  0.6228932994383 1.0
C      1  0.5665590586627  0.5730346023324  0.8539300321257 1.0
C      1  0.5705651570127  0.4339279044238  0.1445680567190 1.0
C      1  0.4315267967320  0.5693776151846  0.1596406964919 1.0
C      1  0.8651931282291  0.6235915575699  0.6254222547444 1.0
C      1  0.8502379330470  0.4108535887473  0.4109681852463 1.0
C      1  0.1582006339112  0.5618279568232  0.4362994430876 1.0
C      1  0.5545667637149  0.8307781297932  0.5558061847161 1.0
C      1  0.5920913745138  0.1505268013672  0.4192228579500 1.0
C      1  0.4199059387241  0.8499177829193  0.4312827721156 1.0
C      1  0.3748308780310  0.7083199733778  0.5449105692559 1.0
C      1  0.6433294061859  0.2910723233331  0.4613653317794 1.0
C      1  0.4987497532815  0.3842113528799  0.7083232655496 1.0
C      1  0.5338267737897  0.6511492001226  0.2638954328299 1.0
C      1  0.5157620371904  0.6310328393085  0.7140045078576 1.0
C      1  0.7130381767239  0.4761071681363  0.6044247714396 1.0
C      1  0.6160947179371  0.6735728258829  0.4944273240491 1.0
C      1  0.4706783952385  0.3609170149475  0.2867118167991 1.0
C      1  0.2974397127789  0.4831337999258  0.6346551887425 1.0
C      1  0.2970245080559  0.5135711838189  0.3752118047557 1.0
C      1  0.7125834193182  0.4830303338337  0.3567385883622 1.0
C      1  0.3843063704453  0.2823035770348  0.4962724804881 1.0
C      1  0.4800240835521  0.5287466841600  0.8645378073709 1.0
C      1  0.8627951266167  0.4809750778842  0.4765500589442 1.0
C      1  0.4703090321485  0.8589995923010  0.5160118489117 1.0
C      1  0.4815475143909  0.4831656190180  0.1438074941225 1.0
C      1  0.1453950188349  0.5156607196332  0.5192496870060 1.0
C      1  0.5261319629317  0.1402831221770  0.4868745715606 1.0
END
