TITL C-21379-380-4 -8.549 3375.00 -1536.86587201 0 0 186 (C1) n - 1
REM
REM Run started: at 2020.12.09 09:16:23 in /rds/project/t2_vol4/rds-t2-cs072/BORA/CARBON/AIRSS/Generating-Clusters/Str-Search/Higher-Symm/C100-200
REM VASP from code version vasp.5.4.4.18Apr17-6-g9f103f2a35 (build Oct 11 2019 16:45:47) gamma-only
REM
REM
REM
REM
REM ./C.cell (533062f00bc710175b3da973d35f2034)
REM AIRSS Version 0.9.1 bugfix July 2018 build 013d7b7c2542+ Fri, 06 Jul 2018 19:26:36 +0100
REM compiler GCC version 4.8.5 20150623 (Red Hat 4.8.5-39)
REM options -cpp -mtune=generic -march=x86-64 -g -O0
REM seed 188727082 598888501 -362831485 -697614641 370401988 1714397248 -1152544069 -211796531 257171258 295413817 668104957 -1306619306
REM
REM C.POTCAR (d86ddea03c3ceb6dc662c8ad6801f873)
REM 
CELL 1.54180   15.00000   15.00000   15.00000   90.00000   90.00000   90.00000
LATT -1
SFAC C  
C      1  0.6083858763078  0.3371473121012  0.7701784194475 1.0
C      1  0.5904464485458  0.1843984981133  0.4476603886078 1.0
C      1  0.5801368025073  0.4664814500939  0.1782087537043 1.0
C      1  0.6436671604165  0.8809736116549  0.3856142202854 1.0
C      1  0.6159307347532  0.7081136424273  0.7129561995843 1.0
C      1  0.2184272153211  0.4080267518512  0.6687743934823 1.0
C      1  0.2004879149600  0.2987313354431  0.4808407717598 1.0
C      1  0.1875223901657  0.4467575854308  0.3065547277616 1.0
C      1  0.1946517337237  0.6512276874479  0.3962530135731 1.0
C      1  0.2498145089564  0.6169597316068  0.6026227034464 1.0
C      1  0.6720539923220  0.4033798492169  0.7886527679690 1.0
C      1  0.6601638785351  0.1755835603347  0.5148994406536 1.0
C      1  0.6510661917550  0.4140983373977  0.1766000354488 1.0
C      1  0.6665010652733  0.8329066794890  0.3213347905816 1.0
C      1  0.6679038353764  0.7890194687315  0.6781586642939 1.0
C      1  0.1765514979827  0.4460671136549  0.5834492977196 1.0
C      1  0.1576584653497  0.3898042222805  0.4901353154617 1.0
C      1  0.1420470865981  0.4696673737008  0.3966640644993 1.0
C      1  0.1497730798374  0.5715328055323  0.4417053444540 1.0
C      1  0.1779211728306  0.5550690747220  0.5569880670527 1.0
C      1  0.5972485184750  0.1817590547269  0.3554179183241 1.0
C      1  0.5876100806059  0.5613507323879  0.1538299118260 1.0
C      1  0.6138801623739  0.9038100036862  0.4703995550229 1.0
C      1  0.6108442322052  0.6577057265297  0.8036301700938 1.0
C      1  0.6128094292819  0.2452239300257  0.7416242702293 1.0
C      1  0.4930615760889  0.5320266129638  0.6829940418535 1.0
C      1  0.4392262139497  0.3147794340788  0.5957142404377 1.0
C      1  0.4320496623730  0.3514614048965  0.3560166800694 1.0
C      1  0.4684495602673  0.5629428773090  0.3430124840016 1.0
C      1  0.4312138936897  0.7302367211770  0.5229408536547 1.0
C      1  0.6475796093251  0.5717416772323  0.6024514212830 1.0
C      1  0.6223192500347  0.4021291733014  0.5617094235107 1.0
C      1  0.6003740591237  0.4348818677242  0.4053164520864 1.0
C      1  0.6223574767482  0.5125052811213  0.3486062856672 1.0
C      1  0.6491133528758  0.6422905045604  0.5086132433848 1.0
C      1  0.7628525168679  0.7651149848778  0.6631396503366 1.0
C      1  0.7702255444449  0.4107751146749  0.7821211056523 1.0
C      1  0.7527453550219  0.2065220812602  0.4982408353452 1.0
C      1  0.6878506619937  0.3396619090246  0.2102530757931 1.0
C      1  0.6822413711768  0.7592612303495  0.2675923717407 1.0
C      1  0.3507005394799  0.3660396589057  0.7979729636097 1.0
C      1  0.3381055323094  0.1712995283963  0.4745633711857 1.0
C      1  0.3325771337271  0.4134513015724  0.1834272001364 1.0
C      1  0.3388316584523  0.7627939517395  0.3370696509818 1.0
C      1  0.3540597623260  0.7387969796423  0.7183421828682 1.0
C      1  0.2206974960535  0.2459073075446  0.5567480018974 1.0
C      1  0.2115558879075  0.3583949661420  0.2807355641764 1.0
C      1  0.2159671243817  0.6552044674387  0.3045999270313 1.0
C      1  0.2389029899966  0.7234883194397  0.6033778661752 1.0
C      1  0.2328343149088  0.4637793939229  0.7445179070717 1.0
C      1  0.3661806279347  0.2174697413687  0.7201770878135 1.0
C      1  0.3527255403957  0.1981511107690  0.3100463965126 1.0
C      1  0.3490989507817  0.5832730062717  0.1606348378687 1.0
C      1  0.3739414492480  0.8151064496552  0.4988143891694 1.0
C      1  0.3709642927651  0.6137716938769  0.8261128276538 1.0
C      1  0.2232328012783  0.2564983608890  0.3986833969543 1.0
C      1  0.2180735394288  0.5121999084296  0.2431707383174 1.0
C      1  0.2272907440384  0.7263101662313  0.4460380668507 1.0
C      1  0.2524648184174  0.6140907518285  0.7084851940058 1.0
C      1  0.2399842984249  0.3175633683501  0.6898449176309 1.0
C      1  0.5395381910912  0.4864913209100  0.7572257032854 1.0
C      1  0.5167754799210  0.2609060782536  0.5732320523485 1.0
C      1  0.5101838717712  0.3496126937806  0.2957928010514 1.0
C      1  0.5633333796544  0.6757618585351  0.3099684887183 1.0
C      1  0.5179320600349  0.7486159051671  0.5746976308582 1.0
C      1  0.3077311434100  0.7764440362045  0.4248962504606 1.0
C      1  0.3197654063620  0.6601732062382  0.7584240189479 1.0
C      1  0.3134376876763  0.2947480152754  0.7468054651631 1.0
C      1  0.2992430702676  0.1980201427536  0.3916283662323 1.0
C      1  0.2959496738601  0.5022137263988  0.1860926957192 1.0
C      1  0.7117565753573  0.5322807063778  0.3307018951862 1.0
C      1  0.7207625810873  0.6512637450477  0.4546342213856 1.0
C      1  0.6837175463997  0.6277938050468  0.6816546579363 1.0
C      1  0.6753381702366  0.4757679752697  0.5983643981546 1.0
C      1  0.6592614730783  0.4064595540024  0.4718646756364 1.0
C      1  0.0449706916426  0.5664021325651  0.4693828291890 1.0
C      1  0.0766791978621  0.5517893716431  0.5641885121199 1.0
C      1  0.0760049297757  0.4606463112020  0.5817897293983 1.0
C      1  0.0569120280719  0.4078416531755  0.5030032575814 1.0
C      1  0.0391882284566  0.4708808065727  0.4264650065883 1.0
C      1  0.8390055187898  0.6108803567547  0.6191440010557 1.0
C      1  0.8384775682391  0.4142587168641  0.6291719821402 1.0
C      1  0.8234010744898  0.3498214030338  0.4616794121806 1.0
C      1  0.8604693249278  0.4681280339380  0.3467662237574 1.0
C      1  0.8608697017111  0.6356967291869  0.4241309770382 1.0
C      1  0.5340675164760  0.3670142658671  0.3901802173557 1.0
C      1  0.5609351875757  0.5839019869579  0.3344911994260 1.0
C      1  0.5570581789045  0.6767533897380  0.5068817722690 1.0
C      1  0.5514977418974  0.5572950602959  0.6083997178124 1.0
C      1  0.5573008814717  0.3494747607130  0.5978304445755 1.0
C      1  0.7660061104600  0.4622666747156  0.5695705465584 1.0
C      1  0.7566318192785  0.4236106279070  0.4712113607243 1.0
C      1  0.7785517957965  0.5028455502189  0.3988364790536 1.0
C      1  0.7891706167321  0.5827433698341  0.4652906500307 1.0
C      1  0.8066982755730  0.5491576473157  0.5542463177161 1.0
C      1  0.7998844904054  0.4915774261577  0.8259482280792 1.0
C      1  0.7968171895725  0.2088926280185  0.5805841346221 1.0
C      1  0.7640509459213  0.3419121485293  0.2758680901665 1.0
C      1  0.7473937749188  0.6926297613043  0.2952314498066 1.0
C      1  0.8030332528420  0.8304538923243  0.6099670020119 1.0
C      1  0.6483178053825  0.6156792912303  0.1997050435992 1.0
C      1  0.6726873227449  0.8940338618039  0.5477958765737 1.0
C      1  0.6761253504814  0.5845698389107  0.7811213906558 1.0
C      1  0.6761464976828  0.2031255802467  0.6802752157882 1.0
C      1  0.6674653691801  0.2211742769449  0.3041297480951 1.0
C      1  0.6307583036693  0.2630390216751  0.2272815653096 1.0
C      1  0.6048401546236  0.7033804775263  0.2221680993789 1.0
C      1  0.6256840387020  0.8534882148031  0.6223696056691 1.0
C      1  0.6279810971922  0.4947637727916  0.7950981968368 1.0
C      1  0.6277097015284  0.1648187093207  0.6052234431787 1.0
C      1  0.7772188883137  0.6694720518355  0.6597134911585 1.0
C      1  0.8231770713725  0.3889752404173  0.7114565519459 1.0
C      1  0.7827670853353  0.2649809857731  0.4252293974519 1.0
C      1  0.8275602120498  0.4038721822087  0.2941334433204 1.0
C      1  0.7881062643902  0.6870427186502  0.3858797778405 1.0
C      1  0.9366833081009  0.4766237906167  0.4107480663842 1.0
C      1  0.9401005934479  0.5771148565955  0.4598161934720 1.0
C      1  0.9063939901292  0.5510351344713  0.5594332158339 1.0
C      1  0.9073431817025  0.4452073040262  0.5675531681218 1.0
C      1  0.9063405959584  0.4036234558959  0.4834274978492 1.0
C      1  0.5151985759315  0.3841498384209  0.7578951045368 1.0
C      1  0.5018290859887  0.2219485546794  0.4790578676790 1.0
C      1  0.4950093829872  0.4316896334478  0.2319728044751 1.0
C      1  0.4979790140822  0.7329821544383  0.3513957874689 1.0
C      1  0.5178506800688  0.7138566844768  0.6741618154027 1.0
C      1  0.5245434017907  0.2642814163199  0.2387065312857 1.0
C      1  0.5124456438827  0.6993491334745  0.1716091373673 1.0
C      1  0.5284777682128  0.8478327533622  0.5917107544758 1.0
C      1  0.5316490217559  0.5231187561131  0.8502871985176 1.0
C      1  0.5284889498563  0.1736508506886  0.6283455822505 1.0
C      1  0.4417526496570  0.3815469952426  0.8271468192126 1.0
C      1  0.4306105131959  0.1521648082135  0.4958930067341 1.0
C      1  0.4251430865448  0.3835575605447  0.1736126901964 1.0
C      1  0.4291304926377  0.7679820117467  0.2989739569651 1.0
C      1  0.4446516527547  0.7744261444438  0.7140531112636 1.0
C      1  0.3875014565573  0.4365250953778  0.3551839217775 1.0
C      1  0.4231669023433  0.6085217874398  0.4116139030562 1.0
C      1  0.4160538360718  0.6389551300131  0.5755335748295 1.0
C      1  0.4312537175509  0.4662919084910  0.6461240198408 1.0
C      1  0.4066406110678  0.3459467562253  0.5146982727124 1.0
C      1  0.7647132065183  0.8838136612695  0.5583744340281 1.0
C      1  0.7628711566234  0.5651632757525  0.8248080288419 1.0
C      1  0.7659007911282  0.2118476346670  0.6583730179447 1.0
C      1  0.7458091523030  0.2677770298671  0.3394287503514 1.0
C      1  0.7198291234631  0.6046893369978  0.2651611718025 1.0
C      1  0.5082782847113  0.6116260454809  0.1317023176549 1.0
C      1  0.5213757293975  0.8895696896035  0.4990137892229 1.0
C      1  0.5327788194469  0.6240452217028  0.8436713295303 1.0
C      1  0.5273994995319  0.2038260270335  0.7245598234737 1.0
C      1  0.5146481955706  0.1877002851847  0.3041102625688 1.0
C      1  0.3502344872118  0.2625993356860  0.2348879487310 1.0
C      1  0.3486046804516  0.6733353063533  0.2040204615152 1.0
C      1  0.3597333683889  0.8383568383962  0.5997645380892 1.0
C      1  0.3648730277425  0.5171085757049  0.8464944006503 1.0
C      1  0.3597857180297  0.1693704325174  0.6324200639670 1.0
C      1  0.4636484859271  0.3100197830990  0.4392214410291 1.0
C      1  0.4398785933518  0.4896946756193  0.2961610762326 1.0
C      1  0.4760368455178  0.6925674682366  0.4392456453096 1.0
C      1  0.4731153068644  0.6276324595542  0.6593159590988 1.0
C      1  0.4782440271236  0.3790784197110  0.6601809122495 1.0
C      1  0.1788277072535  0.2804364702571  0.3206947380290 1.0
C      1  0.1789964350176  0.5968154430618  0.2411608774115 1.0
C      1  0.1946075420895  0.7465706141988  0.5300823765052 1.0
C      1  0.1994992934333  0.5508007762225  0.7421490113194 1.0
C      1  0.1883148199831  0.2555856308904  0.6441328700489 1.0
C      1  0.4405670914545  0.1343588729010  0.5924950763981 1.0
C      1  0.4342548793388  0.2882028954842  0.1894480793321 1.0
C      1  0.4301428195358  0.7269316621466  0.2084893729120 1.0
C      1  0.4424467729993  0.8484749143049  0.6472792088798 1.0
C      1  0.4458334090524  0.4717625759340  0.8686851789824 1.0
C      1  0.4484389283696  0.6639133247194  0.8466403781923 1.0
C      1  0.4481569392192  0.2156920638446  0.7672581382105 1.0
C      1  0.4352664574149  0.1534801766410  0.3282171236155 1.0
C      1  0.4284988248787  0.5659571683446  0.1149565597964 1.0
C      1  0.4410033450173  0.8799948406299  0.4582154717614 1.0
C      1  0.3019344162996  0.7783590270359  0.6500471749269 1.0
C      1  0.3047919778584  0.4489729152628  0.8051923800413 1.0
C      1  0.2953109578028  0.1853642955171  0.5576077277909 1.0
C      1  0.2876249338410  0.3399243885081  0.2245078559072 1.0
C      1  0.2915231676478  0.7047902396691  0.2766172588594 1.0
C      1  0.3577957115367  0.4239457186957  0.5113773390352 1.0
C      1  0.3469676432294  0.4727002403609  0.4318635175733 1.0
C      1  0.3520940518373  0.5664333607497  0.4545354373431 1.0
C      1  0.3396059390584  0.5796544561038  0.5574771728419 1.0
C      1  0.3653044642983  0.4846753833484  0.5868568720580 1.0
C      1  0.5043548646071  0.6047147841792  0.5471510610750 1.0
END
