TITL C-21117-6405-47 -7.637 3375.00 -1401.52263555 0 0 176 (Th) n - 1
REM
REM Run started: at 2020.12.28 13:40:28 in /gpfs/home/chem/mssmkc/CARBON/AIRSS/Generating-Clusters/Str-Search/Higher-Symm/C100-200
REM VASP from code version vasp.5.4.4.18Apr17-6-g9f103f2a35 (build Oct 11 2019 16:45:47) gamma-only
REM
REM
REM
REM
REM ./C.cell (533062f00bc710175b3da973d35f2034)
REM AIRSS Version 0.9.1 bugfix July 2018 build 013d7b7c2542+ Fri, 06 Jul 2018 19:26:36 +0100
REM compiler GCC version 6.3.0
REM options -cpp -iprefix /gpfs/warwick/csc/orac/software/Core/GCCcore/6.3.0/bin/../lib/gcc/x86_64-pc-linux-gnu/6.3.0/ -mtune=generic -march=x86-64 -g -O0
REM seed -424071822 -613238794 840041402 1449597440 1136060461 -36255329 910550468 1137850177 1009256546 63465921 -402411941 -1348928632
REM
REM C.POTCAR (d86ddea03c3ceb6dc662c8ad6801f873)
REM 
CELL 1.54180   15.00000   15.00000   15.00000   90.00000   90.00000   90.00000
LATT -1
SFAC C  
C      1  0.4504012857801  0.6686784734232  0.3472418154121 1.0
C      1  0.6676252364884  0.3483439837694  0.4502783395962 1.0
C      1  0.3473740006092  0.4514066894834  0.6674142442184 1.0
C      1  0.5473449659601  0.3310176693345  0.3472034963005 1.0
C      1  0.4503806937372  0.3308879359743  0.6501990443508 1.0
C      1  0.5473509804569  0.6688049381158  0.6501778418934 1.0
C      1  0.3298897587461  0.6513631516685  0.4503007092101 1.0
C      1  0.6676052160697  0.6513705609052  0.5472113822318 1.0
C      1  0.3298955140858  0.3482821204417  0.5472464900649 1.0
C      1  0.6502760118493  0.5483659039037  0.6674661090944 1.0
C      1  0.3472874850554  0.5483550469958  0.3298193420697 1.0
C      1  0.6503441978018  0.4514076132981  0.3297143188543 1.0
C      1  0.4503852421638  0.6688504529533  0.6502026846465 1.0
C      1  0.6675992933156  0.3483918387892  0.5472081217874 1.0
C      1  0.3472958495548  0.4514139041790  0.3298268424753 1.0
C      1  0.5473488330876  0.3309274346514  0.6501860925144 1.0
C      1  0.4504072264525  0.3310698369866  0.3472474650537 1.0
C      1  0.5473358286493  0.6687239907770  0.3472153670478 1.0
C      1  0.3298858691777  0.6514665514588  0.5472481773109 1.0
C      1  0.6676337553399  0.6514123517087  0.4502775291446 1.0
C      1  0.3298902387973  0.3483797837411  0.4502954144494 1.0
C      1  0.6503410393499  0.5483644207621  0.3297122374456 1.0
C      1  0.3473635467569  0.5483510722669  0.6674229184874 1.0
C      1  0.6502629474335  0.4513968769878  0.6674705753884 1.0
C      1  0.2514918166022  0.3104940704282  0.6017560685527 1.0
C      1  0.3095217134248  0.6028506059882  0.2513960645529 1.0
C      1  0.6018457795763  0.2525548115584  0.3094518313450 1.0
C      1  0.7460988819595  0.6891313498936  0.6017393678167 1.0
C      1  0.2515106006707  0.6892054320776  0.3957546534571 1.0
C      1  0.7460922120801  0.3106225996607  0.3958309885390 1.0
C      1  0.6882225272490  0.3968123350783  0.2513613010566 1.0
C      1  0.3096691531064  0.3968465751125  0.7458816687757 1.0
C      1  0.6881208741009  0.6027653921677  0.7459491289700 1.0
C      1  0.3958740065596  0.7471505904100  0.3095015419228 1.0
C      1  0.6018959395716  0.7472332764047  0.6880720442475 1.0
C      1  0.3958964243499  0.2524916965063  0.6880983921723 1.0
C      1  0.2515129260117  0.3105579563059  0.3957551639969 1.0
C      1  0.3096578313872  0.6029022182032  0.7458852133726 1.0
C      1  0.6018896985051  0.2525044935759  0.6880705674261 1.0
C      1  0.7460956216619  0.6891619383901  0.3958344151075 1.0
C      1  0.2514889023330  0.6892628518775  0.6017619492331 1.0
C      1  0.7460914464444  0.3106356572202  0.6017475108449 1.0
C      1  0.6881231562064  0.3969977910614  0.7459448799357 1.0
C      1  0.3095236557981  0.3969252710405  0.2514021477892 1.0
C      1  0.6882183360771  0.6029647080545  0.2513606267468 1.0
C      1  0.3958926325319  0.7472485579390  0.6880893521132 1.0
C      1  0.6018337686442  0.7471985250996  0.3094762227459 1.0
C      1  0.3958633674971  0.2526060098084  0.3094901590846 1.0
C      1  0.6927300072023  0.5558039009128  0.5788189636736 1.0
C      1  0.5547558148419  0.5800689237691  0.6925416488241 1.0
C      1  0.5790215093403  0.6940169414573  0.5546457477995 1.0
C      1  0.3046015709313  0.4439419866116  0.5788745821807 1.0
C      1  0.6926799819207  0.4439932108249  0.4185219186655 1.0
C      1  0.3046333261025  0.5557424355253  0.4185181912111 1.0
C      1  0.4430023156433  0.4196859267057  0.6925305248910 1.0
C      1  0.5547587842186  0.4196463188153  0.3044389182719 1.0
C      1  0.4429860300899  0.5800708593640  0.3045122815491 1.0
C      1  0.4186057815395  0.3057357420581  0.5546263113837 1.0
C      1  0.5789869329249  0.3057369874247  0.4428543181686 1.0
C      1  0.4186416980781  0.6938418764694  0.4428942578882 1.0
C      1  0.6926819920055  0.5557889465244  0.4185115275776 1.0
C      1  0.5547439203559  0.5801129834439  0.3044498340618 1.0
C      1  0.5789869687664  0.6939856684063  0.4428640167579 1.0
C      1  0.3046400079675  0.4440224808041  0.4185157219542 1.0
C      1  0.6927191471624  0.4439431026468  0.5788229419446 1.0
C      1  0.3045921386785  0.5558105493920  0.5788811230337 1.0
C      1  0.4429991448369  0.4196874474431  0.3045273874716 1.0
C      1  0.5547493207991  0.4196757595037  0.6925316880667 1.0
C      1  0.4430001124265  0.5800651235485  0.6925423598962 1.0
C      1  0.4186406051810  0.3058799153185  0.4428929917682 1.0
C      1  0.5790292530754  0.3057131614500  0.5546414704389 1.0
C      1  0.4186134486327  0.6939932412020  0.5546227801843 1.0
C      1  0.7184794035094  0.1482352126038  0.5498983560943 1.0
C      1  0.1472807723276  0.5508490086968  0.7184532437221 1.0
C      1  0.5499555962209  0.7196471650061  0.1469906152660 1.0
C      1  0.2793153691635  0.8515389470343  0.5497717853031 1.0
C      1  0.7184709286621  0.8514498067445  0.4479696168996 1.0
C      1  0.2793959755500  0.1483231564592  0.4478744408758 1.0
C      1  0.8503866987448  0.4489442334115  0.7181777229845 1.0
C      1  0.1471557981178  0.4489621792757  0.2791967650352 1.0
C      1  0.8503251918845  0.5508406699561  0.2793699902943 1.0
C      1  0.4480409552883  0.2803177482007  0.1472368977032 1.0
C      1  0.5499580019307  0.2805202075571  0.8502399032382 1.0
C      1  0.4480393273330  0.7193084397581  0.8502978694558 1.0
C      1  0.7185045294435  0.1483213480722  0.4479653855121 1.0
C      1  0.1471344162079  0.5508570023644  0.2791846460151 1.0
C      1  0.5499590452698  0.7192403075051  0.8502329582428 1.0
C      1  0.2794046827928  0.8514054374850  0.4478833346625 1.0
C      1  0.7184588673574  0.8515209571016  0.5499004449839 1.0
C      1  0.2793009561882  0.1481956426105  0.5497690736424 1.0
C      1  0.8503262480000  0.4489762241243  0.2793648480993 1.0
C      1  0.1473134950355  0.4489390186521  0.7184333521775 1.0
C      1  0.8503881320391  0.5508555254753  0.7181830195360 1.0
C      1  0.4480475492211  0.2804655686023  0.8503010785539 1.0
C      1  0.5499422984099  0.2801384668720  0.1469860139653 1.0
C      1  0.4480426057849  0.7194687991375  0.1472408985948 1.0
C      1  0.7713544251623  0.5509360047982  0.2269516462806 1.0
C      1  0.5499660834184  0.2281534041699  0.7712341628086 1.0
C      1  0.2270602693556  0.7724124166390  0.5497792299647 1.0
C      1  0.2263020194946  0.4488977800664  0.2269886016531 1.0
C      1  0.7712312587707  0.4489714688229  0.7703147857485 1.0
C      1  0.2266026625477  0.5508254541957  0.7703510276526 1.0
C      1  0.4479971751524  0.7715858093471  0.7712331353696 1.0
C      1  0.5498700325910  0.7715729900245  0.2263202184561 1.0
C      1  0.4479134354703  0.2281220206095  0.2263593679963 1.0
C      1  0.7704915212757  0.2274820010318  0.5498628703505 1.0
C      1  0.2270802021819  0.2273795335347  0.4477810284814 1.0
C      1  0.7705358764554  0.7722408843174  0.4479260272174 1.0
C      1  0.7712328101338  0.5508105635150  0.7703139532056 1.0
C      1  0.5498676753760  0.2281880753350  0.2263015795161 1.0
C      1  0.2270686269850  0.7723693509896  0.4477801783701 1.0
C      1  0.2266059469406  0.4489347299297  0.7703595004341 1.0
C      1  0.7713587423183  0.4488537561645  0.2269427928237 1.0
C      1  0.2262969878753  0.5508987956132  0.2270005232449 1.0
C      1  0.4479243167267  0.7716536313164  0.2263774079535 1.0
C      1  0.5499710565469  0.7715835683461  0.7712231973053 1.0
C      1  0.4479876691107  0.2281560391038  0.7712534953794 1.0
C      1  0.7705524255020  0.2275413355502  0.4479204101253 1.0
C      1  0.2270626265884  0.2273333580188  0.5497790068696 1.0
C      1  0.7704935668011  0.7722892176288  0.5498525211539 1.0
C      1  0.1417373252250  0.5493682593091  0.6231968855235 1.0
C      1  0.5484182826693  0.6243578342987  0.1415572435590 1.0
C      1  0.6232057975646  0.1427618850548  0.5483234014063 1.0
C      1  0.8557575998165  0.4504300863462  0.6229223915301 1.0
C      1  0.1416788283920  0.4504249118485  0.3744627236525 1.0
C      1  0.8556975310809  0.5493462081400  0.3746548324828 1.0
C      1  0.4494452060202  0.3755487976033  0.1416033905228 1.0
C      1  0.5484333546987  0.3757989813005  0.8556191776879 1.0
C      1  0.4495249654771  0.6240166103220  0.8555425360604 1.0
C      1  0.3745970058477  0.8569551577551  0.5482877218255 1.0
C      1  0.6231956799870  0.8568865288370  0.4493936154508 1.0
C      1  0.3746506096570  0.1428668010042  0.4493494108844 1.0
C      1  0.1416699306090  0.5493672798300  0.3744580383873 1.0
C      1  0.5484348931953  0.6239676071608  0.8556128958850 1.0
C      1  0.6232274851041  0.1428562647727  0.4493744292371 1.0
C      1  0.8556860427688  0.4504448738900  0.3746478307264 1.0
C      1  0.1417404465512  0.4503902712834  0.6231884090194 1.0
C      1  0.8557622108097  0.5493632963152  0.6229246342590 1.0
C      1  0.4495179998336  0.3757517860925  0.8555488164910 1.0
C      1  0.5484169184986  0.3754304603676  0.1415596324180 1.0
C      1  0.4494461517632  0.6242448922123  0.1416108307166 1.0
C      1  0.3746589271931  0.8568593776778  0.4493544109117 1.0
C      1  0.6231850419329  0.8569808011394  0.5483489754416 1.0
C      1  0.3745847944841  0.1427669533736  0.5482789525004 1.0
C      1  0.5726615026959  0.2112494676384  0.5964828822229 1.0
C      1  0.2101967296612  0.5976159410041  0.5726365302292 1.0
C      1  0.5966102463078  0.5739652414869  0.2100679094097 1.0
C      1  0.4250024602972  0.7884528911744  0.5964432140074 1.0
C      1  0.5726358898478  0.7883747401574  0.4011219734162 1.0
C      1  0.4249743991746  0.2114861922077  0.4011620545919 1.0
C      1  0.7872158188260  0.4022541830619  0.5724412771286 1.0
C      1  0.2102403318106  0.4022185414235  0.4248281099896 1.0
C      1  0.7871265876798  0.5974919378893  0.4249861588253 1.0
C      1  0.4011992295406  0.4260778818379  0.2101199619878 1.0
C      1  0.5964908930332  0.4263012220207  0.7870374461188 1.0
C      1  0.4013417064846  0.5736941798744  0.7869203952852 1.0
C      1  0.5726675507325  0.2113589196374  0.4010956147300 1.0
C      1  0.2102354794529  0.5975572645494  0.4248159855314 1.0
C      1  0.5964939013571  0.5734464182507  0.7870368326666 1.0
C      1  0.4249849996019  0.7882323454391  0.4011791280633 1.0
C      1  0.5726673345026  0.7884703319326  0.5964929485654 1.0
C      1  0.4249992336699  0.2112698802338  0.5964487340404 1.0
C      1  0.7871165005841  0.4022924740584  0.4249711645660 1.0
C      1  0.2101965228290  0.4021352506810  0.5726186619755 1.0
C      1  0.7872235144271  0.5975090965249  0.5724189865368 1.0
C      1  0.4013392471878  0.4260506974508  0.7869125138542 1.0
C      1  0.5966095397063  0.4258097902985  0.2100624133499 1.0
C      1  0.4011897296004  0.5736796508980  0.2101067575826 1.0
C      1  0.6954758917015  0.6965412633183  0.3021431919630 1.0
C      1  0.3022405138046  0.6965290711816  0.6953465150385 1.0
C      1  0.6954264889667  0.3033814064767  0.6953230287029 1.0
C      1  0.3022400018377  0.3032281217903  0.6953417573805 1.0
C      1  0.3022646173903  0.6964821415835  0.3021272632415 1.0
C      1  0.6954797847944  0.3032290764709  0.3021321932411 1.0
C      1  0.3022643864984  0.3032938081836  0.3021243064450 1.0
C      1  0.6954195777637  0.6963737774955  0.6953114469992 1.0
END
