TITL C-21629-752-9 -4.982 3375.00 -837.64917085 0 0 103 (C1) n - 1
REM
REM Run started: at 2020.12.09 11:13:29 in /rds/project/t2_vol4/rds-t2-cs072/BORA/CARBON/AIRSS/Generating-Clusters/Str-Search/Higher-Symm/C100-200
REM VASP from code version vasp.5.4.4.18Apr17-6-g9f103f2a35 (build Oct 11 2019 16:45:47) gamma-only
REM
REM
REM
REM
REM ./C.cell (533062f00bc710175b3da973d35f2034)
REM AIRSS Version 0.9.1 bugfix July 2018 build 013d7b7c2542+ Fri, 06 Jul 2018 19:26:36 +0100
REM compiler GCC version 4.8.5 20150623 (Red Hat 4.8.5-39)
REM options -cpp -mtune=generic -march=x86-64 -g -O0
REM seed 1759312326 450963 1718648299 1934534704 1478390270 631201709 1535920704 -1096877948 79390644 834008523 -1226447920 52097579
REM
REM C.POTCAR (d86ddea03c3ceb6dc662c8ad6801f873)
REM 
CELL 1.54180   15.00000   15.00000   15.00000   90.00000   90.00000   90.00000
LATT -1
SFAC C  
C      1  0.7127515424144  0.5702640841347  0.5477941400265 1.0
C      1  0.6888975649299  0.4708291749857  0.5703191109724 1.0
C      1  0.6667668383263  0.4044866152011  0.4960446700905 1.0
C      1  0.6646653343135  0.4335084452661  0.4006073317057 1.0
C      1  0.7244732866035  0.5128559435026  0.3921089262194 1.0
C      1  0.7024530188107  0.5994295988410  0.4480245533659 1.0
C      1  0.6542007516457  0.7700582760768  0.6345038614393 1.0
C      1  0.6272475392429  0.5515027464269  0.7560954425437 1.0
C      1  0.6613260342572  0.2549989455778  0.6458605441714 1.0
C      1  0.6197897584557  0.2569952512875  0.3969651308184 1.0
C      1  0.6778757322805  0.4791689947690  0.2150061470598 1.0
C      1  0.6445778749085  0.7041004694859  0.3273166991127 1.0
C      1  0.4899709138609  0.2034486928219  0.4860606087361 1.0
C      1  0.4413205952021  0.3159865965491  0.2264916513644 1.0
C      1  0.4976767965479  0.6609647302692  0.2413956629002 1.0
C      1  0.4600803644889  0.8279677219623  0.4675286464436 1.0
C      1  0.4768227105376  0.6364422242590  0.7356899552952 1.0
C      1  0.4697351930670  0.3481710890098  0.7788433146935 1.0
C      1  0.8618978470673  0.5183749621972  0.4941062292350 1.0
C      1  0.8092793688252  0.5352875418134  0.5706518854374 1.0
C      1  0.7842123255899  0.4442105057091  0.5932415675757 1.0
C      1  0.8071434067843  0.3709581381146  0.5320159647705 1.0
C      1  0.8563475259331  0.4206424000988  0.4692857552015 1.0
C      1  0.8216118801514  0.4904507856169  0.4149148124073 1.0
C      1  0.4108536067785  0.4932493992433  0.8098872335310 1.0
C      1  0.4544394423136  0.2336147259676  0.6510265353183 1.0
C      1  0.4008664401089  0.2102877736073  0.3357679860201 1.0
C      1  0.4830184717919  0.4947754469221  0.2383916503327 1.0
C      1  0.4204118369593  0.7965815982467  0.3149693741792 1.0
C      1  0.4396926482579  0.7585898195026  0.6241921014859 1.0
C      1  0.5415502799663  0.5764262055609  0.5559253712091 1.0
C      1  0.5282259512490  0.4894839651641  0.5835462916458 1.0
C      1  0.5084289552337  0.4200197422860  0.5218490583692 1.0
C      1  0.5018018632659  0.4456402387381  0.4319850741926 1.0
C      1  0.5083709001240  0.5351882921758  0.4010938452843 1.0
C      1  0.5324924450345  0.5986818698517  0.4649647079851 1.0
C      1  0.6335718600911  0.8224490712727  0.4778922559519 1.0
C      1  0.7153005373327  0.6306598249300  0.7146597740458 1.0
C      1  0.6417407775922  0.3642405784720  0.7681633086117 1.0
C      1  0.7241872633736  0.3195390722262  0.4982573365676 1.0
C      1  0.6910362375181  0.3583556272257  0.3296146934007 1.0
C      1  0.7119882729684  0.5721974253991  0.3175757336291 1.0
C      1  0.6118041143062  0.4530564836287  0.7297701992962 1.0
C      1  0.6394520638568  0.2730344103683  0.5530934377878 1.0
C      1  0.5906683294192  0.3241615412497  0.3239052246581 1.0
C      1  0.6329955914392  0.5582689805581  0.2626223722362 1.0
C      1  0.6138097943846  0.7445041018339  0.4152990126630 1.0
C      1  0.6407831344562  0.6778459291311  0.6653607733022 1.0
C      1  0.3692044779115  0.2664340616707  0.2667068619714 1.0
C      1  0.4405985371380  0.5833098483902  0.2274378460518 1.0
C      1  0.3920511358188  0.8186793712771  0.4018524225630 1.0
C      1  0.4150697670766  0.6958914898982  0.6886409376484 1.0
C      1  0.3933695562629  0.4018662111032  0.7980526322793 1.0
C      1  0.4301180187273  0.2104413907874  0.5634178661251 1.0
C      1  0.2878901253105  0.3080319264387  0.2726370589928 1.0
C      1  0.3499231210460  0.5859890517398  0.2483778028612 1.0
C      1  0.3069925625602  0.7928273970722  0.4303627312498 1.0
C      1  0.3230433379641  0.6721960540249  0.6885835125889 1.0
C      1  0.3076598974502  0.3765760329440  0.7718809962334 1.0
C      1  0.3393130756547  0.2239709071336  0.5494535398218 1.0
C      1  0.1763735296616  0.5403050519913  0.4320486509599 1.0
C      1  0.1833382978852  0.5898212559959  0.5110908116078 1.0
C      1  0.1746758593258  0.5398339521737  0.5971905275820 1.0
C      1  0.1587687417622  0.4474660584875  0.5951737761955 1.0
C      1  0.1579636809991  0.3957923104716  0.5125897909439 1.0
C      1  0.1635919371503  0.4420049528296  0.4338347988971 1.0
C      1  0.4748369685443  0.4052438852171  0.2183760479266 1.0
C      1  0.4550282339429  0.7400743045288  0.2665261671986 1.0
C      1  0.4440065681748  0.8059125043256  0.5566555332161 1.0
C      1  0.4376245468926  0.5663347589043  0.7839244123924 1.0
C      1  0.4610567979944  0.2738924619105  0.7228630965297 1.0
C      1  0.4444321563908  0.1948077933407  0.4036655640430 1.0
C      1  0.1907122941577  0.3722526732194  0.6457946927807 1.0
C      1  0.1991059968371  0.3205405562601  0.5621655603981 1.0
C      1  0.1986283872715  0.4341870371938  0.3439841510397 1.0
C      1  0.2155839136791  0.5317638382055  0.3423177142387 1.0
C      1  0.2273572634100  0.6753340958079  0.5286890002557 1.0
C      1  0.2192713262102  0.5912308691443  0.6618786039957 1.0
C      1  0.7080970087767  0.2880064082848  0.4016868247616 1.0
C      1  0.7130763340159  0.4114681099642  0.2494043947691 1.0
C      1  0.7259090686355  0.6552570932801  0.3545072115021 1.0
C      1  0.6610562679055  0.8181281281538  0.5678423904635 1.0
C      1  0.7184275843630  0.5814813023060  0.7851525260645 1.0
C      1  0.6752726081521  0.2916784229379  0.7185086448653 1.0
C      1  0.6139593233647  0.6552419689797  0.4675898828857 1.0
C      1  0.6277890466295  0.6294037750961  0.5729815628652 1.0
C      1  0.6049155743860  0.4455231200228  0.6283124069339 1.0
C      1  0.5896184524447  0.3682184982089  0.5542117470030 1.0
C      1  0.5705522913831  0.4211061034635  0.3646221073416 1.0
C      1  0.5515586989975  0.5065791529769  0.3097725430334 1.0
C      1  0.2789931031279  0.5724308242298  0.2897878473344 1.0
C      1  0.2587524870112  0.7394615078465  0.4699259340517 1.0
C      1  0.2626155371862  0.6155989426456  0.7455137988237 1.0
C      1  0.2439304135083  0.3697180090190  0.7202479452602 1.0
C      1  0.2631103444318  0.2576797023644  0.5466735359508 1.0
C      1  0.2323769600193  0.3650224264576  0.2966460341843 1.0
C      1  0.5704809496208  0.6274790975693  0.7271838055973 1.0
C      1  0.5574757467720  0.3874663766827  0.7866176021099 1.0
C      1  0.5809247137596  0.2282265545943  0.4812314673142 1.0
C      1  0.5286980202771  0.3285857113504  0.2488509422189 1.0
C      1  0.5929804992502  0.6540688490923  0.2620470822922 1.0
C      1  0.5524446323875  0.8202820234915  0.4404159393411 1.0
C      1  0.2578329983173  0.6683776309568  0.6180752511544 1.0
END
