TITL C-215682-6932-25 -1.767 3375.00 -286.99530459 0 0 36 (C1) n - 1
REM
REM Run started: at 2020.12.28 09:58:31 in /rds/project/t2_vol4/rds-t2-cs072/BORA/CARBON/AIRSS/Generating-Clusters/Str-Search/Higher-Symm/C10-100
REM VASP from code version vasp.5.4.4.18Apr17-6-g9f103f2a35 (build Oct 11 2019 16:45:47) gamma-only
REM
REM
REM
REM
REM ./C.cell (f39ce9773e2efe3fa5bbdf770a4156b8)
REM AIRSS Version 0.9.1 bugfix July 2018 build 013d7b7c2542+ Fri, 06 Jul 2018 19:26:36 +0100
REM compiler GCC version 4.8.5 20150623 (Red Hat 4.8.5-39)
REM options -cpp -mtune=generic -march=x86-64 -g -O0
REM seed 28474319 1356053218 591875087 -446977642 -273203356 -849671355 -1724846562 1773236723 -275502629 -863577799 584055518 223163319
REM
REM C.POTCAR (d86ddea03c3ceb6dc662c8ad6801f873)
REM 
CELL 1.54180   15.00000   15.00000   15.00000   90.00000   90.00000   90.00000
LATT -1
SFAC C  
C      1  0.5078536947143  0.6096875095348  0.3494886475832 1.0
C      1  0.5266592120348  0.6638805284725  0.5717942877497 1.0
C      1  0.5692410967913  0.3340032917978  0.5567238015737 1.0
C      1  0.5320286139358  0.4804129833084  0.5790456521748 1.0
C      1  0.4299787144786  0.4504185026629  0.4391087039308 1.0
C      1  0.5385912373082  0.3119851761941  0.4668755688122 1.0
C      1  0.6421837741683  0.5084487007023  0.3559520602211 1.0
C      1  0.5888824292395  0.6690146736911  0.4954768078146 1.0
C      1  0.7090416126960  0.5372010411334  0.4920313589597 1.0
C      1  0.5247584157376  0.5247609224256  0.6671526905192 1.0
C      1  0.5023122282573  0.4425890370509  0.3723020602326 1.0
C      1  0.3419369426064  0.4842550049118  0.3983384209524 1.0
C      1  0.6681385400264  0.6212864261681  0.4800273048564 1.0
C      1  0.3913043354265  0.4318419540883  0.6940107380735 1.0
C      1  0.3649298001050  0.6231908492409  0.5604049103762 1.0
C      1  0.6459635978906  0.4255750912258  0.4084231403288 1.0
C      1  0.4418732110254  0.6901065120950  0.4381864733848 1.0
C      1  0.3455725815338  0.5660426264023  0.3674670257826 1.0
C      1  0.6097680409310  0.4183827529788  0.5635796088722 1.0
C      1  0.3834754898446  0.3569087194845  0.4624837942120 1.0
C      1  0.4464075334760  0.3016235467780  0.5062977795917 1.0
C      1  0.5639415331816  0.3740138819677  0.3996025740255 1.0
C      1  0.6942134319481  0.5716622424258  0.4032015956018 1.0
C      1  0.4115347078233  0.6283020597867  0.3677541060977 1.0
C      1  0.4337251425339  0.6760769155796  0.5326317967262 1.0
C      1  0.4839789057900  0.4487857428078  0.7203813584715 1.0
C      1  0.3115403266303  0.3950629306274  0.4224616507356 1.0
C      1  0.3748556507260  0.5345911811580  0.5789997798572 1.0
C      1  0.5344772369483  0.6108359822826  0.6471187925221 1.0
C      1  0.6731983026756  0.4483604455693  0.4983650979699 1.0
C      1  0.3354610565431  0.4842792528398  0.6472738462517 1.0
C      1  0.5476170998512  0.5235206948736  0.3402154221860 1.0
C      1  0.4533586524052  0.4904046839178  0.5289957327967 1.0
C      1  0.4558314870746  0.3660538426282  0.6745676955313 1.0
C      1  0.5344554819599  0.6775515600782  0.4162212810987 1.0
C      1  0.4809095816815  0.3188826331101  0.5970383341259 1.0
END
