TITL C-21183-5849-5 -12.671 3375.00 -2073.20173374 0 0 252 (C1) n - 1
REM
REM Run started: at 2020.11.23 21:57:02 in /rds/project/t2_vol4/rds-t2-cs072/BORA/CARBON/AIRSS/Generating-Clusters/Str-Search/Higher-Symm
REM VASP from code version vasp.5.4.4.18Apr17-6-g9f103f2a35 (build Oct 11 2019 16:45:47) gamma-only
REM
REM
REM
REM
REM ./C.cell (e5ae0387ce4d49c7c0135a1433873289)
REM AIRSS Version 0.9.1 bugfix July 2018 build 013d7b7c2542+ Fri, 06 Jul 2018 19:26:36 +0100
REM compiler GCC version 4.8.5 20150623 (Red Hat 4.8.5-39)
REM options -cpp -mtune=generic -march=x86-64 -g -O0
REM seed -740013784 781866492 -463315419 -614135611 1005964386 -2042834283 -1362660474 412445283 -943666556 693418001 -1722997255 -224778073
REM
REM C.POTCAR (d86ddea03c3ceb6dc662c8ad6801f873)
REM 
CELL 1.54180   15.00000   15.00000   15.00000   90.00000   90.00000   90.00000
LATT -1
SFAC C  
C      1  0.4084665030859  0.5747468842786  0.1230156825302 1.0
C      1  0.1563397792520  0.6180692390233  0.3304581223416 1.0
C      1  0.1459703592300  0.6365765231404  0.6502462878793 1.0
C      1  0.4286794794383  0.6477441783505  0.8737448811977 1.0
C      1  0.7440460767151  0.6504634139800  0.8209065526518 1.0
C      1  0.8997721690596  0.6228658187132  0.4900730735801 1.0
C      1  0.7266711083155  0.6127134963299  0.1998716763552 1.0
C      1  0.4921706650403  0.2125578177218  0.6149408582626 1.0
C      1  0.5392734852400  0.1540285832104  0.5539220269600 1.0
C      1  0.5978161286906  0.2190918622852  0.5022069964827 1.0
C      1  0.5648108567579  0.2401699442277  0.4186893592851 1.0
C      1  0.4663544127309  0.2438527655147  0.4080059311208 1.0
C      1  0.4041920325113  0.2478690800528  0.4740849891829 1.0
C      1  0.4150728077910  0.2440311411025  0.5726755402384 1.0
C      1  0.8205157133863  0.6492464090717  0.3100032311950 1.0
C      1  0.5581273059195  0.6324765113559  0.1243183384246 1.0
C      1  0.2611033035456  0.6108604536469  0.2051881144111 1.0
C      1  0.1018659239726  0.6636959599084  0.5015613003567 1.0
C      1  0.2370947564105  0.6957612002597  0.7883336142976 1.0
C      1  0.5811452771788  0.7050089498605  0.9620082351300 1.0
C      1  0.8498058108330  0.6683469579945  0.6379761765958 1.0
C      1  0.4701562095700  0.7841795816277  0.3506686824649 1.0
C      1  0.3900260714982  0.7973457813200  0.3963946320592 1.0
C      1  0.3747721822940  0.7734998540258  0.4933559105590 1.0
C      1  0.4421924378362  0.8262401885981  0.5495415463406 1.0
C      1  0.5382136665270  0.8392061719256  0.5355587081393 1.0
C      1  0.5991525744439  0.8306119768512  0.4684004329810 1.0
C      1  0.5668922900608  0.8131491351893  0.3764268891568 1.0
C      1  0.0925120900168  0.3080043807879  0.5582167477759 1.0
C      1  0.2726254606368  0.3413685740303  0.8869460340083 1.0
C      1  0.6895208231959  0.3033065749675  0.8691323622278 1.0
C      1  0.8616862806660  0.3807706851679  0.5918088321866 1.0
C      1  0.8222148471332  0.2686264511539  0.3126018940278 1.0
C      1  0.5277451954304  0.2838096692563  0.0707810269098 1.0
C      1  0.2025178412169  0.2727631473677  0.2043341785726 1.0
C      1  0.3517993683553  0.4730257628593  0.8622595590020 1.0
C      1  0.7179924534317  0.4907945626948  0.8781247171676 1.0
C      1  0.9291290955061  0.5252564445689  0.6243240040826 1.0
C      1  0.7630406152264  0.4335248553404  0.2540639575766 1.0
C      1  0.4716323229450  0.4158151864986  0.1266156276655 1.0
C      1  0.1806938913803  0.4356283430670  0.3205982833607 1.0
C      1  0.1426299591597  0.4639214719394  0.6082949977628 1.0
C      1  0.8129414819167  0.2843401820137  0.2221428206441 1.0
C      1  0.5512186879409  0.3454502027056  0.9889535428018 1.0
C      1  0.1258656958546  0.3246773344214  0.2310982582187 1.0
C      1  0.0090268431996  0.3454344423373  0.5869998904369 1.0
C      1  0.3310178812545  0.3532787021572  0.9675059508253 1.0
C      1  0.6353226192075  0.3560630200693  0.9287244136362 1.0
C      1  0.9694336419174  0.3597980863383  0.6827472587996 1.0
C      1  0.4814846532683  0.3077712987180  0.3365409679535 1.0
C      1  0.3252071561300  0.3067446053066  0.4894329162474 1.0
C      1  0.3529419702710  0.3128904798931  0.5840424741081 1.0
C      1  0.5415486694048  0.2750185532054  0.6759730323526 1.0
C      1  0.6265523477241  0.3060839693833  0.6337212556394 1.0
C      1  0.6463302133538  0.2927667029977  0.5453505444861 1.0
C      1  0.5740756570769  0.3111068301167  0.3460941980180 1.0
C      1  0.2459539565190  0.3930801948458  0.1082610383885 1.0
C      1  0.0823189618816  0.4362098260525  0.4566373082878 1.0
C      1  0.1821677496148  0.4677982927267  0.8123614298021 1.0
C      1  0.5427692365261  0.4843416272243  0.9004227556412 1.0
C      1  0.8526854916173  0.4772144603154  0.7668901895906 1.0
C      1  0.9017626847896  0.4078615799707  0.3473931849010 1.0
C      1  0.6366561649631  0.4185850805841  0.1288031543478 1.0
C      1  0.2671068578452  0.4146537043219  0.3535404899196 1.0
C      1  0.2408823480875  0.4454995738332  0.6081938347938 1.0
C      1  0.4117997743156  0.4471957086153  0.7783005949891 1.0
C      1  0.6488124244646  0.4410913194824  0.7337747247152 1.0
C      1  0.7782416587054  0.4159223523661  0.5551509461101 1.0
C      1  0.7048170761481  0.4498804208265  0.3368049001814 1.0
C      1  0.4698216821805  0.4318478425166  0.2292666921043 1.0
C      1  0.3801898708485  0.2851002938250  0.2082557603644 1.0
C      1  0.2284325210906  0.2800179597681  0.4717186616936 1.0
C      1  0.2790547682519  0.2941637259300  0.7250284787247 1.0
C      1  0.5443850799334  0.2636299515670  0.7793236512056 1.0
C      1  0.7752115345721  0.3154446147842  0.7253000758252 1.0
C      1  0.7755966496949  0.2536162985405  0.4707639328347 1.0
C      1  0.6597103979894  0.2145199148464  0.1750930850085 1.0
C      1  0.6318355368647  0.5794507131029  0.1807536733403 1.0
C      1  0.3338252940082  0.5383927610373  0.1751261397045 1.0
C      1  0.1543059160341  0.5990478594734  0.4313088587122 1.0
C      1  0.1748242093553  0.6351965463884  0.7409625241976 1.0
C      1  0.4961738395518  0.6486010371360  0.9373299356617 1.0
C      1  0.8310099422075  0.6508765028418  0.7918342531378 1.0
C      1  0.8851532451681  0.5298312609915  0.4536940199671 1.0
C      1  0.8426939647805  0.7502222138386  0.5020185163780 1.0
C      1  0.6859557715541  0.7430333852059  0.2677810488621 1.0
C      1  0.4419754263521  0.7476438800854  0.1804379684069 1.0
C      1  0.1823645722228  0.7769270139224  0.3119296938314 1.0
C      1  0.2113845650219  0.7855499790828  0.5709287633756 1.0
C      1  0.4447816548826  0.7809659709069  0.7463704998473 1.0
C      1  0.6778486921079  0.7735695544666  0.7254820699025 1.0
C      1  0.6380357585698  0.4459982628355  0.9025632894047 1.0
C      1  0.9074430272405  0.4408168791703  0.6693779561757 1.0
C      1  0.8396879047295  0.3673661057805  0.2793599985705 1.0
C      1  0.5579450051145  0.3758191853830  0.0897610132302 1.0
C      1  0.1751899463171  0.3447097580562  0.1520726113974 1.0
C      1  0.0863334893932  0.4053728328200  0.5497881135788 1.0
C      1  0.2566794547201  0.4313008075551  0.8542658724402 1.0
C      1  0.7076211707722  0.4455706432224  0.6194972378299 1.0
C      1  0.7121124017932  0.4344788841470  0.4351234145917 1.0
C      1  0.5547825954055  0.4555144043832  0.2862752144001 1.0
C      1  0.3631318993251  0.4393914537483  0.3297980316509 1.0
C      1  0.2773443297661  0.4616692174971  0.5065783178230 1.0
C      1  0.3695436434728  0.4490636891401  0.6869555390766 1.0
C      1  0.5524576092794  0.4446327790012  0.7275401617014 1.0
C      1  0.5332179330939  0.9806244342090  0.3711109514061 1.0
C      1  0.4436372742074  0.9590394275478  0.3364589133928 1.0
C      1  0.3628983355355  0.9493955363568  0.3911168962716 1.0
C      1  0.3544031579760  0.9729168985277  0.4850473738115 1.0
C      1  0.4247210996052  0.0036698309466  0.5446670408735 1.0
C      1  0.5052302409176  0.0675765313461  0.5183605529124 1.0
C      1  0.5437174532529  0.0285603840140  0.4451758056590 1.0
C      1  0.3232894953678  0.3486390247579  0.0590223396940 1.0
C      1  0.0497151208125  0.3716186953963  0.3919463728215 1.0
C      1  0.1038841236850  0.4174923875329  0.7831336183875 1.0
C      1  0.4895209411312  0.4089264589778  0.9403158201790 1.0
C      1  0.7900105755860  0.4370834976157  0.8345476858629 1.0
C      1  0.9521848985942  0.3611643413635  0.4246079025651 1.0
C      1  0.6888821610141  0.3798051307186  0.2041212281277 1.0
C      1  0.8942096927481  0.4999764264807  0.3584591385470 1.0
C      1  0.6253231355280  0.5063826780606  0.1141015744893 1.0
C      1  0.2576476521654  0.4774128850922  0.1450701994752 1.0
C      1  0.0936626466347  0.5258405668710  0.4542407957669 1.0
C      1  0.1968246081808  0.5620942708090  0.7964667502957 1.0
C      1  0.5491675267704  0.5651908810670  0.9617367716048 1.0
C      1  0.8714801502258  0.5686690560429  0.7634473701068 1.0
C      1  0.6396245699667  0.2391831431148  0.8125023530087 1.0
C      1  0.8619484805338  0.3078590069827  0.6631591077858 1.0
C      1  0.7760767622621  0.2209135418558  0.3764802691992 1.0
C      1  0.5765534521996  0.2121823800634  0.1288523908503 1.0
C      1  0.2852460013882  0.2509863673996  0.2377252274045 1.0
C      1  0.1636771219912  0.2555727826488  0.5451652912489 1.0
C      1  0.3022377805625  0.2832360463972  0.8210003671526 1.0
C      1  0.9352761930324  0.3574496292182  0.5188823535049 1.0
C      1  0.7247743666355  0.2883968080090  0.1858055793881 1.0
C      1  0.4078464213493  0.3329484269830  0.1126830334549 1.0
C      1  0.1046207972182  0.3682143774664  0.3181329792725 1.0
C      1  0.0396720594397  0.3769369148327  0.7501871293988 1.0
C      1  0.4007998429873  0.4100190428905  0.9308694877953 1.0
C      1  0.7638080937680  0.3453407079458  0.8221594916686 1.0
C      1  0.4964918538263  0.5025600997093  0.7906374602926 1.0
C      1  0.7020931418712  0.5085102305893  0.7006044228260 1.0
C      1  0.7888870861613  0.4944158908117  0.4897994605752 1.0
C      1  0.6000278733380  0.5484783817511  0.2741111379802 1.0
C      1  0.3963346399616  0.5011135111717  0.2510811399387 1.0
C      1  0.2533311625098  0.5689811344120  0.4613668189530 1.0
C      1  0.2917102880771  0.5094233587818  0.6620805267972 1.0
C      1  0.4792509737994  0.5992448825240  0.7374302881824 1.0
C      1  0.6628291369916  0.5993917145923  0.6848179336298 1.0
C      1  0.7446804635992  0.5857436208063  0.5139959588168 1.0
C      1  0.6806103024064  0.5578204407185  0.3376900470216 1.0
C      1  0.4402429357044  0.5873720509254  0.2827764476212 1.0
C      1  0.2990130447639  0.5950988906268  0.3753969955059 1.0
C      1  0.3189870976070  0.5886238291541  0.6300875298654 1.0
C      1  0.4368690873815  0.4958675282963  0.6122856833851 1.0
C      1  0.5409601174050  0.4962791912728  0.6325218469314 1.0
C      1  0.6236581190878  0.4932552544415  0.5687830639439 1.0
C      1  0.6242320209901  0.4889151686936  0.4647903271603 1.0
C      1  0.5237085363249  0.4911993327375  0.3839078880071 1.0
C      1  0.4197512553780  0.4921145302633  0.4105497949058 1.0
C      1  0.3775675072371  0.5008249846185  0.5125455269626 1.0
C      1  0.6807228871539  0.1589307613738  0.2516424654451 1.0
C      1  0.4374005672405  0.2064484292282  0.2055546706839 1.0
C      1  0.2334779040206  0.2188463199965  0.3979465538445 1.0
C      1  0.2383449011579  0.2243438914375  0.6804119445303 1.0
C      1  0.4620050911807  0.2265164471865  0.8154611644730 1.0
C      1  0.7584641860535  0.2163001128329  0.7084318763172 1.0
C      1  0.8035777210985  0.2109160481494  0.5442999056127 1.0
C      1  0.3120699604228  0.3649829517701  0.6565326081753 1.0
C      1  0.5082766724434  0.3532776058116  0.7376556749766 1.0
C      1  0.6884586142128  0.3666987674603  0.6806187292024 1.0
C      1  0.7245006882861  0.3438794901383  0.4957741487331 1.0
C      1  0.6263913495243  0.3860591785061  0.2984460438123 1.0
C      1  0.4205565011500  0.3580213766401  0.2807998760089 1.0
C      1  0.2678815671954  0.3766956825858  0.4467352630246 1.0
C      1  0.7963113789352  0.5276826452884  0.2231856989015 1.0
C      1  0.4628273765428  0.5091515617691  0.0906857353782 1.0
C      1  0.1558775224623  0.5207601133469  0.2756633986966 1.0
C      1  0.1111002050173  0.5509045651799  0.6128961712885 1.0
C      1  0.3524953197076  0.5795308134967  0.8655590677459 1.0
C      1  0.7009773217586  0.5893473460844  0.8824204988059 1.0
C      1  0.9543487028669  0.5519438477046  0.5329716273599 1.0
C      1  0.6334773070609  0.8097708000053  0.3040321423571 1.0
C      1  0.4588742821948  0.8029960069401  0.2525826966075 1.0
C      1  0.2441014619402  0.8325745277738  0.3292438276198 1.0
C      1  0.2882872092927  0.8098711609443  0.5250673819849 1.0
C      1  0.4535462666216  0.8361743789454  0.6550355195351 1.0
C      1  0.6227745306268  0.8192176529106  0.6724981024133 1.0
C      1  0.7729789654504  0.8073835843103  0.4853354893122 1.0
C      1  0.5993811692145  0.7936053720407  0.9229255869283 1.0
C      1  0.8419982232841  0.7210273040311  0.7173431408384 1.0
C      1  0.8768206722265  0.7164955258813  0.3085526246503 1.0
C      1  0.5994364483063  0.7047203371920  0.0646123514359 1.0
C      1  0.2517263528593  0.6898794401987  0.1489988047776 1.0
C      1  0.0360320867154  0.7236762738962  0.4583225869888 1.0
C      1  0.2449076969199  0.7827930256773  0.7668007572541 1.0
C      1  0.6878000024843  0.6800076669622  0.7434220445901 1.0
C      1  0.8207940338717  0.6590729395631  0.5406087220547 1.0
C      1  0.7234383866174  0.6447202592299  0.2945923128919 1.0
C      1  0.4612305700931  0.6468269654201  0.1729450471683 1.0
C      1  0.2507137833829  0.6238147507827  0.3057955541089 1.0
C      1  0.1553174594347  0.7016188178649  0.5812820498163 1.0
C      1  0.4478325447534  0.6881835643627  0.7821270143361 1.0
C      1  0.6708961151761  0.5931226819076  0.5814684077663 1.0
C      1  0.6680180321889  0.5795247709123  0.4344618848076 1.0
C      1  0.5278387791291  0.5833003601663  0.3288916978158 1.0
C      1  0.3935102363092  0.5910894092056  0.3724044698263 1.0
C      1  0.3250129675027  0.5992778366689  0.5296930295891 1.0
C      1  0.4152359171918  0.5922067898179  0.6521246094911 1.0
C      1  0.5587823556583  0.5953243541044  0.6752113210281 1.0
C      1  0.7183655181003  0.1647935520101  0.3264006739340 1.0
C      1  0.5048092388198  0.1701133175555  0.1759168769543 1.0
C      1  0.2729326683185  0.2211936583076  0.3250302561202 1.0
C      1  0.1969563933072  0.1978299200529  0.6128088746582 1.0
C      1  0.3805936351642  0.2291616848356  0.8290826381919 1.0
C      1  0.6885373031335  0.1873168793007  0.7557782310955 1.0
C      1  0.8207853676045  0.2180923119989  0.6322756482701 1.0
C      1  0.6067297878378  0.6514888239689  0.4546565205379 1.0
C      1  0.5293493403745  0.6476797590894  0.4033700352043 1.0
C      1  0.4438674235327  0.6465947254063  0.4329144199318 1.0
C      1  0.3952206980326  0.6737335782944  0.5119212303676 1.0
C      1  0.4511925939983  0.6593194398121  0.5910844209969 1.0
C      1  0.5393404538912  0.6604369159367  0.6037361819014 1.0
C      1  0.6102974680149  0.6600723811068  0.5448914768976 1.0
C      1  0.5515258978760  0.8458964186392  0.6307734861918 1.0
C      1  0.6921371094155  0.8302479248755  0.4875327205880 1.0
C      1  0.5710962045188  0.8977041452109  0.3139887235963 1.0
C      1  0.4779221471436  0.8969201211784  0.2701907921076 1.0
C      1  0.3214642695412  0.8623527311784  0.3626915985715 1.0
C      1  0.3085749122327  0.9032596366464  0.5596930778401 1.0
C      1  0.4056274314537  0.9104979724413  0.5951814223129 1.0
C      1  0.2326771761772  0.8696967994449  0.6265539746766 1.0
C      1  0.4829044097224  0.8232445344404  0.8164454088798 1.0
C      1  0.7644008643735  0.8092414014522  0.7439596827574 1.0
C      1  0.9310772505292  0.7163334230153  0.4596594884909 1.0
C      1  0.7166891355405  0.7182019903190  0.1757271905112 1.0
C      1  0.3820074088897  0.7959758563151  0.1234689786327 1.0
C      1  0.1178049215748  0.7142644490279  0.3159767313727 1.0
C      1  0.8942676800603  0.5914976534878  0.6726876965516 1.0
C      1  0.8513480785236  0.5567716954083  0.2914562903422 1.0
C      1  0.5491960727990  0.5475494856343  0.0631269838942 1.0
C      1  0.1960249139129  0.5325477307311  0.1943596376063 1.0
C      1  0.0553078795834  0.5721793553889  0.5321714933302 1.0
C      1  0.2722895859554  0.6142610137827  0.8344550931682 1.0
C      1  0.6292308119295  0.6196690673976  0.9323709312730 1.0
C      1  0.3124095584846  0.7396026820861  0.1185611690250 1.0
C      1  0.0388114329312  0.7397939012648  0.3675550561909 1.0
C      1  0.2357736465477  0.8496357483155  0.7150749039891 1.0
C      1  0.5313232801615  0.8333119245842  0.8866607434268 1.0
C      1  0.8492356487652  0.8178721836656  0.7374162558273 1.0
C      1  0.9439589947299  0.7373581756212  0.3599419459909 1.0
C      1  0.6718537745647  0.7390799475360  0.1021514107977 1.0
END
