TITL C-215682-6932-4 -3.881 3375.00 -681.97257407 0 0 82 (C1) n - 1
REM
REM Run started: at 2020.12.28 01:51:18 in /rds/project/t2_vol4/rds-t2-cs072/BORA/CARBON/AIRSS/Generating-Clusters/Str-Search/Higher-Symm/C10-100
REM VASP from code version vasp.5.4.4.18Apr17-6-g9f103f2a35 (build Oct 11 2019 16:45:47) gamma-only
REM
REM
REM
REM
REM ./C.cell (f39ce9773e2efe3fa5bbdf770a4156b8)
REM AIRSS Version 0.9.1 bugfix July 2018 build 013d7b7c2542+ Fri, 06 Jul 2018 19:26:36 +0100
REM compiler GCC version 4.8.5 20150623 (Red Hat 4.8.5-39)
REM options -cpp -mtune=generic -march=x86-64 -g -O0
REM seed -1516128187 1362547442 -1643054791 -170659380 -1123337562 -1910889266 1388090036 1968477648 -155136737 895401925 985906988 611487748
REM
REM C.POTCAR (d86ddea03c3ceb6dc662c8ad6801f873)
REM 
CELL 1.54180   15.00000   15.00000   15.00000   90.00000   90.00000   90.00000
LATT -1
SFAC C  
C      1  0.6619503667254  0.4827081688521  0.7300535103261 1.0
C      1  0.5210905469174  0.6568623927125  0.7307567148398 1.0
C      1  0.3291647200011  0.5644006667306  0.7311528240373 1.0
C      1  0.4621069031063  0.3661129615496  0.6887985897981 1.0
C      1  0.6733001164112  0.4874822875473  0.2605673779038 1.0
C      1  0.5226536893927  0.6523959120898  0.2637496780780 1.0
C      1  0.3315956412190  0.5608686143882  0.2658859869135 1.0
C      1  0.4593400930009  0.3575682617255  0.3070223535195 1.0
C      1  0.5183274108996  0.3124953504228  0.4450034638814 1.0
C      1  0.6162383765311  0.5121196740565  0.4530713926215 1.0
C      1  0.4785485593161  0.6307080766798  0.4498301612601 1.0
C      1  0.2959084905291  0.4832788067652  0.4480173316654 1.0
C      1  0.5189231074032  0.3130746932172  0.5500377251112 1.0
C      1  0.6171179722783  0.5116306274929  0.5431335576746 1.0
C      1  0.4783278091274  0.6308302628968  0.5468043425943 1.0
C      1  0.2977044847692  0.4842292650594  0.5516482103547 1.0
C      1  0.4410302876768  0.6863339041013  0.6851793685748 1.0
C      1  0.3028102202872  0.3995072474809  0.6904511277098 1.0
C      1  0.6189163803901  0.3438497452044  0.6827531183747 1.0
C      1  0.6675824540681  0.5667782481556  0.6854852755041 1.0
C      1  0.4421501011334  0.6832077280330  0.3107022353806 1.0
C      1  0.3004363729191  0.3979817949463  0.3117854036078 1.0
C      1  0.6182302327232  0.3423052855143  0.3119803986803 1.0
C      1  0.6708675197274  0.5672861986307  0.3134894918547 1.0
C      1  0.5796584520359  0.4545624885236  0.7806737807405 1.0
C      1  0.5161208394225  0.6041551485160  0.8076632750189 1.0
C      1  0.3130600237748  0.4832892075066  0.7314928671537 1.0
C      1  0.5465760139303  0.3753940185925  0.7381685536899 1.0
C      1  0.6312885168946  0.4844602640736  0.1743431948536 1.0
C      1  0.5158633168026  0.6111889438670  0.1793702279993 1.0
C      1  0.3124436553847  0.4805190499073  0.2688183069559 1.0
C      1  0.5377087223296  0.3449881022240  0.2683676690552 1.0
C      1  0.2845960651845  0.3233900945433  0.4530117959555 1.0
C      1  0.6859170533822  0.3319820240310  0.4507505510569 1.0
C      1  0.6875548946128  0.6474742788186  0.4514686503900 1.0
C      1  0.3609826078286  0.7210747397125  0.4499652514118 1.0
C      1  0.2872484052278  0.3254765777071  0.5484578915199 1.0
C      1  0.6869143964550  0.3322726922679  0.5456016683801 1.0
C      1  0.6882989517535  0.6477681694767  0.5468649889541 1.0
C      1  0.3608914966085  0.7218066925626  0.5451774442568 1.0
C      1  0.3568991242629  0.6393882835062  0.3109532540537 1.0
C      1  0.3661304454481  0.3280529098780  0.3169497068051 1.0
C      1  0.6902466997908  0.4075829816022  0.3125527641591 1.0
C      1  0.6090441102579  0.6425699056723  0.3135100419512 1.0
C      1  0.3550065195789  0.6421412573199  0.6854735905363 1.0
C      1  0.3728459811647  0.3306174482521  0.6822298021500 1.0
C      1  0.6924749412467  0.4063973387927  0.6817521293677 1.0
C      1  0.6075491515855  0.6447464330595  0.6837511776003 1.0
C      1  0.4682636351188  0.5427747006940  0.4127302823672 1.0
C      1  0.4061967464613  0.4709747375818  0.4458404359074 1.0
C      1  0.4807166938263  0.4013160829999  0.4017729718355 1.0
C      1  0.5372739904416  0.4843317996245  0.4045981167178 1.0
C      1  0.4686716024733  0.5424086443704  0.5840850656293 1.0
C      1  0.4056999385174  0.4714784255816  0.5511124655445 1.0
C      1  0.4826112514875  0.4000037752746  0.5932752794367 1.0
C      1  0.5379340476327  0.4843345022772  0.5904208866349 1.0
C      1  0.2772233588401  0.5835026468215  0.4510222077073 1.0
C      1  0.4320598124086  0.2557548092174  0.4513239645032 1.0
C      1  0.7582346385532  0.4815407518401  0.4487407761873 1.0
C      1  0.5401150682879  0.7158094176229  0.4456527782942 1.0
C      1  0.2774079993856  0.5841833142063  0.5462896361101 1.0
C      1  0.4332482750969  0.2561117316754  0.5459037515559 1.0
C      1  0.7582677289661  0.4811613007718  0.5473345229962 1.0
C      1  0.5399828788562  0.7162671162043  0.5502322492720 1.0
C      1  0.2644881207386  0.4038277763652  0.6018190708370 1.0
C      1  0.6101862895935  0.3063939101042  0.5957747251519 1.0
C      1  0.7027558500579  0.5580938547995  0.5889694388765 1.0
C      1  0.4492288528499  0.7198079317010  0.5918546568911 1.0
C      1  0.2624914651101  0.4021996697334  0.4011083144573 1.0
C      1  0.6108102835600  0.3038985144175  0.4017362304333 1.0
C      1  0.7028004306366  0.5580023526733  0.4094017184514 1.0
C      1  0.4495955581280  0.7189402063091  0.4034333308537 1.0
C      1  0.3117176360577  0.6564530794133  0.5976833012373 1.0
C      1  0.3589425990343  0.2831833459994  0.5981219460772 1.0
C      1  0.7349827697894  0.4014614727605  0.5946283369295 1.0
C      1  0.6203428279282  0.6878323858904  0.5982736422538 1.0
C      1  0.3121792687277  0.6548277884266  0.3983798164212 1.0
C      1  0.3552459974114  0.2799812746105  0.4008292743133 1.0
C      1  0.7315946468171  0.4030135087773  0.4001845062762 1.0
C      1  0.6213044621839  0.6880227272069  0.3984783955227 1.0
C      1  0.5760833398640  0.5504197924911  0.1640486467777 1.0
C      1  0.5338734936415  0.5240296268909  0.8190664332577 1.0
END
