TITL C-215682-6932-13 -1.986 3375.00 -331.79049871 0 0 41 (C1) n - 1
REM
REM Run started: at 2020.12.28 04:48:33 in /rds/project/t2_vol4/rds-t2-cs072/BORA/CARBON/AIRSS/Generating-Clusters/Str-Search/Higher-Symm/C10-100
REM VASP from code version vasp.5.4.4.18Apr17-6-g9f103f2a35 (build Oct 11 2019 16:45:47) gamma-only
REM
REM
REM
REM
REM ./C.cell (f39ce9773e2efe3fa5bbdf770a4156b8)
REM AIRSS Version 0.9.1 bugfix July 2018 build 013d7b7c2542+ Fri, 06 Jul 2018 19:26:36 +0100
REM compiler GCC version 4.8.5 20150623 (Red Hat 4.8.5-39)
REM options -cpp -mtune=generic -march=x86-64 -g -O0
REM seed -97496375 -2128935254 -1083931253 417084129 978788160 -1511438109 1992368578 1343143664 2059174216 -1273770382 -35523275 1024053355
REM
REM C.POTCAR (d86ddea03c3ceb6dc662c8ad6801f873)
REM 
CELL 1.54180   15.00000   15.00000   15.00000   90.00000   90.00000   90.00000
LATT -1
SFAC C  
C      1  0.4017653057591  0.4012921679965  0.3249422258663 1.0
C      1  0.4449429878199  0.5756236139812  0.5479256087992 1.0
C      1  0.6665297450634  0.6050740863473  0.5336122860261 1.0
C      1  0.5065742662551  0.2467647004098  0.4068294963645 1.0
C      1  0.5627041896288  0.3091542222309  0.5518493185043 1.0
C      1  0.4388683200473  0.5518456383284  0.3584872984773 1.0
C      1  0.5487868017206  0.4315898654364  0.6672109848418 1.0
C      1  0.5298535123443  0.3422112974290  0.6339574866808 1.0
C      1  0.5298397611135  0.6746365306486  0.4388534312828 1.0
C      1  0.6816693425642  0.6015149412515  0.3691860492511 1.0
C      1  0.6156522088470  0.4603033094696  0.3759618428802 1.0
C      1  0.6157627997237  0.7020673579130  0.4758663608520 1.0
C      1  0.3972269340602  0.4260153337517  0.6418664827835 1.0
C      1  0.3565114623554  0.5379750054884  0.5200824317567 1.0
C      1  0.4653041357682  0.4812921001618  0.6807379554638 1.0
C      1  0.5290848930946  0.6679564363045  0.6108709409783 1.0
C      1  0.3136236591684  0.6722065233794  0.6154175887122 1.0
C      1  0.4838221767414  0.6529465525855  0.5186943919395 1.0
C      1  0.3554404264702  0.3780580445700  0.4968176735865 1.0
C      1  0.3802058822933  0.7184308527503  0.6550256271392 1.0
C      1  0.6425152997509  0.5119639311345  0.5400892353676 1.0
C      1  0.4433877885421  0.4820165378056  0.2935335812223 1.0
C      1  0.6039344477038  0.5549343969377  0.3521926141268 1.0
C      1  0.4919808856894  0.4026909899274  0.2944278397476 1.0
C      1  0.5751242964300  0.3823500918138  0.3359006392445 1.0
C      1  0.3729458748589  0.5162277657888  0.4214796808630 1.0
C      1  0.6883080004868  0.6486538016809  0.4444283965228 1.0
C      1  0.5013993554845  0.5607800128400  0.6277804550499 1.0
C      1  0.4846961820281  0.2646123040720  0.4962867749263 1.0
C      1  0.5206824204980  0.6037224045566  0.3732495410918 1.0
C      1  0.3008833411729  0.6114903579426  0.5593331118114 1.0
C      1  0.3476216419283  0.4468361158244  0.5623024255805 1.0
C      1  0.4352929140689  0.3392432111587  0.6248051254629 1.0
C      1  0.5750155470761  0.3125148884747  0.3995245700752 1.0
C      1  0.4635269682144  0.7240955681993  0.6596303081356 1.0
C      1  0.6391371383824  0.4440075773637  0.4691742540138 1.0
C      1  0.4090488007264  0.3057985006518  0.5357624688851 1.0
C      1  0.6110682754205  0.3514821807054  0.4846401891613 1.0
C      1  0.6216789419954  0.6794162933558  0.5755241771859 1.0
C      1  0.5858977262421  0.4999915692844  0.6167148739928 1.0
C      1  0.3616852424619  0.4202129200485  0.4090242553468 1.0
END
