TITL C-21800-7154-6 -5.398 3375.00 -944.89432916 0 0 117 (C1) n - 1
REM
REM Run started: at 2021.01.02 13:11:44 in /gpfs/home/chem/mssmkc/CARBON/AIRSS/Generating-Clusters/Str-Search/Higher-Symm/C100-200
REM VASP from code version vasp.5.4.4.18Apr17-6-g9f103f2a35 (build Oct 11 2019 16:45:47) gamma-only
REM
REM
REM
REM
REM ./C.cell (533062f00bc710175b3da973d35f2034)
REM AIRSS Version 0.9.1 bugfix July 2018 build 013d7b7c2542+ Fri, 06 Jul 2018 19:26:36 +0100
REM compiler GCC version 6.3.0
REM options -cpp -iprefix /gpfs/warwick/csc/orac/software/Core/GCCcore/6.3.0/bin/../lib/gcc/x86_64-pc-linux-gnu/6.3.0/ -mtune=generic -march=x86-64 -g -O0
REM seed 1064841299 -2091541935 -656873755 -281786001 -313894252 -2100462027 1185210441 2045582406 635831874 -1284392232 904700591 1489026464
REM
REM C.POTCAR (d86ddea03c3ceb6dc662c8ad6801f873)
REM 
CELL 1.54180   15.00000   15.00000   15.00000   90.00000   90.00000   90.00000
LATT -1
SFAC C  
C      1  0.4527496668782  0.1946975686660  0.6168256519777 1.0
C      1  0.2146447549462  0.4884575355154  0.6207026705762 1.0
C      1  0.3973208596461  0.7760853828997  0.6075952740780 1.0
C      1  0.7318413971487  0.7037596683333  0.6162623597686 1.0
C      1  0.7618418215618  0.3733818231953  0.6115023868667 1.0
C      1  0.3530377766621  0.7245303637850  0.4018118847943 1.0
C      1  0.6112092997837  0.6390903429933  0.4179874033295 1.0
C      1  0.7641274751622  0.4118500804992  0.3701409906510 1.0
C      1  0.5040355615123  0.2671047259561  0.4237538239256 1.0
C      1  0.3029915758753  0.4388384864496  0.4190419603229 1.0
C      1  0.3056798725925  0.3268186667514  0.2895714383335 1.0
C      1  0.2926700009022  0.5977285786057  0.3233020207530 1.0
C      1  0.5588481753595  0.7563217197423  0.2967887509529 1.0
C      1  0.7184095192113  0.5560403547796  0.3116335014308 1.0
C      1  0.6280275102384  0.3089461518752  0.3211225436802 1.0
C      1  0.3699757722993  0.3607746507206  0.4355112133603 1.0
C      1  0.3637076560608  0.5156473453086  0.4417298956858 1.0
C      1  0.5104126169363  0.6666330112143  0.4321438451714 1.0
C      1  0.6032201142566  0.5466550386800  0.4560012097980 1.0
C      1  0.5183602731860  0.4187486453106  0.4183052480196 1.0
C      1  0.6768249506919  0.6836245176956  0.4742903416958 1.0
C      1  0.7881839900913  0.3502875967272  0.4376841922025 1.0
C      1  0.4470476129156  0.1873535468636  0.4437082912337 1.0
C      1  0.2142337772703  0.4644255496052  0.4547848028013 1.0
C      1  0.3673008464797  0.8071008417901  0.4473919055989 1.0
C      1  0.4157568417985  0.7289242678072  0.7057131895333 1.0
C      1  0.7683575726131  0.6287711987648  0.6662385698069 1.0
C      1  0.6876450153520  0.3364299788732  0.6647493092040 1.0
C      1  0.3898246423495  0.2401297761694  0.6741970078727 1.0
C      1  0.2340465515870  0.4985808230316  0.7223240095044 1.0
C      1  0.4064592363694  0.6225941873216  0.5520912718897 1.0
C      1  0.5671302953249  0.6310412323940  0.5887598900632 1.0
C      1  0.6735322650900  0.5067483830349  0.6162393594309 1.0
C      1  0.4990534638178  0.3090000439338  0.5252104544183 1.0
C      1  0.3813831143302  0.4411151756666  0.5855344733986 1.0
C      1  0.6451742862402  0.3918603397128  0.7298970231666 1.0
C      1  0.4119217080493  0.3039019386543  0.7464589993923 1.0
C      1  0.3200883781059  0.4706667399297  0.7617820558444 1.0
C      1  0.4198481827124  0.6295688293758  0.7221162012429 1.0
C      1  0.5712631141533  0.5499852336980  0.7431951756230 1.0
C      1  0.5049044397759  0.7860203931045  0.6125922635895 1.0
C      1  0.8354432450847  0.6144657839351  0.5955508568658 1.0
C      1  0.6347036377466  0.2639778399215  0.6299703918073 1.0
C      1  0.3055293816971  0.2705306512897  0.6333795476591 1.0
C      1  0.2346635307401  0.5981002391932  0.6256774919097 1.0
C      1  0.2842896887806  0.3476926929328  0.6826829736866 1.0
C      1  0.2596017853483  0.5907063742279  0.7154039909578 1.0
C      1  0.5085235726186  0.7356897488091  0.6933433895079 1.0
C      1  0.7376767100743  0.5391175984527  0.6881813091095 1.0
C      1  0.5725805651188  0.3524598844004  0.7725358341463 1.0
C      1  0.5195391705033  0.4029032717661  0.5093287761647 1.0
C      1  0.4189090857694  0.3700284036576  0.5235402155163 1.0
C      1  0.3814789428025  0.5300949431230  0.5279575605281 1.0
C      1  0.4940153894275  0.6486663193958  0.5226599216408 1.0
C      1  0.6006446638615  0.5387412273271  0.5578006593594 1.0
C      1  0.4357064533424  0.6842089013637  0.3697370655133 1.0
C      1  0.6550019245806  0.6219733119727  0.3298829586375 1.0
C      1  0.7019489859272  0.3754365848826  0.3075876148750 1.0
C      1  0.4605550778288  0.3506691458998  0.3751824274748 1.0
C      1  0.3289735852566  0.5087100829906  0.3515115267426 1.0
C      1  0.7845343053634  0.3332798161941  0.5321893614147 1.0
C      1  0.4190167122376  0.1648724767020  0.5347409516019 1.0
C      1  0.1668278151826  0.4860199974270  0.5339153143962 1.0
C      1  0.3804393492548  0.8422655574331  0.5347039894857 1.0
C      1  0.8053021122851  0.6929001299733  0.5490067350525 1.0
C      1  0.5291826773627  0.6783474210871  0.2474760359960 1.0
C      1  0.6613768362085  0.5178156220973  0.2399628132091 1.0
C      1  0.5726433832794  0.3525308529516  0.2561769565817 1.0
C      1  0.3650187467639  0.3813704942228  0.2452530703592 1.0
C      1  0.3614481935233  0.5967532213770  0.2570094003990 1.0
C      1  0.6017287678037  0.2582192130280  0.3970261630683 1.0
C      1  0.2680914627919  0.2809715268134  0.3519450739393 1.0
C      1  0.2783707477337  0.6646692935477  0.3907901145236 1.0
C      1  0.5645108623747  0.8035846363242  0.3672466003065 1.0
C      1  0.7717395218196  0.5099097969253  0.3780848240852 1.0
C      1  0.7945254451720  0.5609417313501  0.4545418198058 1.0
C      1  0.6612189240449  0.2341856413498  0.4661914417316 1.0
C      1  0.3050802593424  0.2795865638963  0.4510244091530 1.0
C      1  0.2260212378912  0.6378204664854  0.4675939961668 1.0
C      1  0.5408289038327  0.8266499343792  0.4574419684121 1.0
C      1  0.3504048017731  0.5717264274447  0.7505408019097 1.0
C      1  0.5305531312370  0.6338174640639  0.6927483942763 1.0
C      1  0.6527540130015  0.4941848056239  0.7147054260814 1.0
C      1  0.4993645578760  0.3129671175742  0.7772742393071 1.0
C      1  0.3422036140850  0.3759006494522  0.7516204398631 1.0
C      1  0.2769740700870  0.3082876286628  0.5478825505063 1.0
C      1  0.2548589849599  0.6583272020084  0.5571309754803 1.0
C      1  0.5712537996513  0.7929163415110  0.5465270196251 1.0
C      1  0.8201851077745  0.5350386694177  0.5469549286636 1.0
C      1  0.6268006087297  0.2156415901933  0.5537402454672 1.0
C      1  0.2831161243112  0.4061875028493  0.6037814901464 1.0
C      1  0.3489421373143  0.6902155945710  0.5695992691947 1.0
C      1  0.6414176431108  0.7125822864080  0.5643374310998 1.0
C      1  0.7672198643659  0.4735830723123  0.6101090387993 1.0
C      1  0.5397843613319  0.2450936456403  0.5933484125491 1.0
C      1  0.4380694190823  0.6540866789485  0.2776561715600 1.0
C      1  0.5909782234787  0.5959892252796  0.2596870299074 1.0
C      1  0.6469298137882  0.4229574990954  0.2445023975040 1.0
C      1  0.4724272565650  0.3720239039915  0.2736887395664 1.0
C      1  0.3751468411994  0.4877142756854  0.2641313478130 1.0
C      1  0.3595626595332  0.1970972199962  0.4665071000091 1.0
C      1  0.1816386946348  0.5523822319565  0.4659381852800 1.0
C      1  0.4481467883346  0.8532644306422  0.4667531399868 1.0
C      1  0.7670772641536  0.6594652018565  0.4687100300225 1.0
C      1  0.7486131357666  0.2725085399449  0.4691556224019 1.0
C      1  0.4902492131457  0.4905404239651  0.7266765644367 1.0
C      1  0.5571280523718  0.4966194433267  0.3916006587183 1.0
C      1  0.5314064227289  0.4688700618671  0.5761867794042 1.0
C      1  0.4745817341640  0.4945090819389  0.8959697030357 1.0
C      1  0.4741042790661  0.4740161467912  0.2524194554615 1.0
C      1  0.5371718511532  0.5268654303527  0.3046331835429 1.0
C      1  0.4867361183549  0.4829822051999  0.1566892248825 1.0
C      1  0.3996224692642  0.4459818539342  0.9314730513167 1.0
C      1  0.4663872813644  0.4858393136858  0.9862496803657 1.0
C      1  0.5088643244512  0.5129592990409  0.8118156184708 1.0
C      1  0.4652815428209  0.4631956368550  0.6421708466604 1.0
C      1  0.4857713488543  0.4907943633712  0.0756653939044 1.0
END
