TITL C-21800-7154-1 -7.285 3375.00 -1325.39288303 0 0 162 (C1) n - 1
REM
REM Run started: at 2021.01.02 08:59:00 in /gpfs/home/chem/mssmkc/CARBON/AIRSS/Generating-Clusters/Str-Search/Higher-Symm/C100-200
REM VASP from code version vasp.5.4.4.18Apr17-6-g9f103f2a35 (build Oct 11 2019 16:45:47) gamma-only
REM
REM
REM
REM
REM ./C.cell (533062f00bc710175b3da973d35f2034)
REM AIRSS Version 0.9.1 bugfix July 2018 build 013d7b7c2542+ Fri, 06 Jul 2018 19:26:36 +0100
REM compiler GCC version 6.3.0
REM options -cpp -iprefix /gpfs/warwick/csc/orac/software/Core/GCCcore/6.3.0/bin/../lib/gcc/x86_64-pc-linux-gnu/6.3.0/ -mtune=generic -march=x86-64 -g -O0
REM seed -494865924 -353757131 -878673544 -994483775 546810955 -484113571 -2044510970 448965764 1338250650 -1302850865 -1486047304 -749883804
REM
REM C.POTCAR (d86ddea03c3ceb6dc662c8ad6801f873)
REM 
CELL 1.54180   15.00000   15.00000   15.00000   90.00000   90.00000   90.00000
LATT -1
SFAC C  
C      1  0.5744365225997  0.2506629119631  0.8172312976392 1.0
C      1  0.5169522778231  0.1192474070333  0.5246499313168 1.0
C      1  0.5594261809006  0.2662449960719  0.1968398979300 1.0
C      1  0.5347913584900  0.5705674485606  0.1218585703602 1.0
C      1  0.5108518939909  0.8252184976417  0.3288452565700 1.0
C      1  0.5764373399013  0.8657052241255  0.6753831046277 1.0
C      1  0.5360891070088  0.6147688753912  0.8733952981752 1.0
C      1  0.3544746087664  0.8154148311089  0.6221616826798 1.0
C      1  0.3486784277098  0.7245158749839  0.7843805204738 1.0
C      1  0.3221234557574  0.4290311274594  0.7898498585381 1.0
C      1  0.3098590597935  0.1976816536333  0.6082729529105 1.0
C      1  0.3463522649997  0.2138787045487  0.3007953645089 1.0
C      1  0.3399103221167  0.4662526004524  0.1453471658125 1.0
C      1  0.3212405179019  0.7419235663617  0.2549457317132 1.0
C      1  0.6910723346048  0.7665019175822  0.4997215414558 1.0
C      1  0.7038957394801  0.6768858202173  0.7177695670525 1.0
C      1  0.6893448392641  0.4459488800555  0.7652876106887 1.0
C      1  0.6647723372392  0.2753070729250  0.6304065350393 1.0
C      1  0.6871810559104  0.2610849976566  0.3899310200346 1.0
C      1  0.7113263019327  0.4372773975995  0.2310023946987 1.0
C      1  0.6926042084223  0.6710729820691  0.2892747233743 1.0
C      1  0.5935679846901  0.4042012504563  0.4734798856240 1.0
C      1  0.6440960998441  0.4699646579437  0.4050894217645 1.0
C      1  0.5728859486911  0.5401249513983  0.4075895717529 1.0
C      1  0.5578756207615  0.6025780508904  0.4886095537499 1.0
C      1  0.5991331238642  0.5858145324553  0.5824234924449 1.0
C      1  0.5998058011853  0.5016166026125  0.6189122937703 1.0
C      1  0.5682643025941  0.4190661242664  0.5728095312115 1.0
C      1  0.3332917101882  0.2866999667238  0.6283800035593 1.0
C      1  0.3673393063235  0.2631757209447  0.3869533698581 1.0
C      1  0.3661845984655  0.4447481309379  0.2411458264521 1.0
C      1  0.3438944551518  0.6523449143430  0.2977288509941 1.0
C      1  0.3518877469778  0.7438388947848  0.5428956433777 1.0
C      1  0.3804667960732  0.6665733683162  0.7038437356753 1.0
C      1  0.3727268379971  0.4771054685156  0.7201487315878 1.0
C      1  0.5460239507782  0.8408041409461  0.5238635719232 1.0
C      1  0.5615105590178  0.7473008091409  0.7896702735061 1.0
C      1  0.5513141970443  0.3972626651494  0.8388562172344 1.0
C      1  0.5288644207023  0.1849584504902  0.6629695836799 1.0
C      1  0.5535931609640  0.2016279032409  0.3215576912566 1.0
C      1  0.5504367432855  0.4300385891675  0.1732992903313 1.0
C      1  0.5483450314611  0.7203702212992  0.2297363271622 1.0
C      1  0.5812060938241  0.4240215873974  0.3369822103801 1.0
C      1  0.5750943071208  0.5692994921177  0.3009265757116 1.0
C      1  0.5690195486132  0.6950536563186  0.4554672992724 1.0
C      1  0.6131178663167  0.6618626590049  0.6473807899829 1.0
C      1  0.6043578735306  0.4868906373015  0.7156862922537 1.0
C      1  0.5768193643674  0.3315168696452  0.6212568772044 1.0
C      1  0.5960568409808  0.3086621057090  0.4360228236626 1.0
C      1  0.5168040222496  0.2102414931781  0.7580235339432 1.0
C      1  0.4455021434537  0.1315219233616  0.4617195009079 1.0
C      1  0.5079965907586  0.3430977817897  0.1932624938360 1.0
C      1  0.4466199843266  0.6079425820891  0.1442851095065 1.0
C      1  0.4242917456300  0.8332217491406  0.3729252094609 1.0
C      1  0.5275416946393  0.8361212087902  0.7514347690750 1.0
C      1  0.4513877537648  0.5633965323905  0.8654100009478 1.0
C      1  0.6073122187990  0.7953377608384  0.3448692303811 1.0
C      1  0.6542561872416  0.8280013566680  0.6377176515880 1.0
C      1  0.6260866224813  0.6087779736290  0.8333471303148 1.0
C      1  0.6606576468981  0.2966632141221  0.7949647595116 1.0
C      1  0.6076699686078  0.1632299160577  0.5305484628025 1.0
C      1  0.6549021740275  0.2750775320284  0.2377749332502 1.0
C      1  0.6303202434231  0.5580972474931  0.1574003021272 1.0
C      1  0.4190633121647  0.3042539503235  0.8459393308667 1.0
C      1  0.3764802155151  0.1224192318068  0.6033012914252 1.0
C      1  0.4140891498634  0.1853885554346  0.2331680960083 1.0
C      1  0.4128156015156  0.4705752184075  0.0794179921435 1.0
C      1  0.3943416455291  0.7972345878435  0.2236481449834 1.0
C      1  0.4269891364533  0.8744074642852  0.6356957488892 1.0
C      1  0.4144427020574  0.7139402777035  0.8617944998880 1.0
C      1  0.7539055928439  0.3811498296495  0.5264805667278 1.0
C      1  0.7659923297328  0.4041265581414  0.4266826234744 1.0
C      1  0.7429594204359  0.5002217808337  0.3897534424340 1.0
C      1  0.7485750818578  0.5931992046924  0.4374514287855 1.0
C      1  0.7543863612291  0.6110274135653  0.5346979110175 1.0
C      1  0.7610582214981  0.5449322999756  0.6150268905663 1.0
C      1  0.7600100500261  0.4434049234426  0.6098093100335 1.0
C      1  0.6700662373238  0.5838761580524  0.2509880155161 1.0
C      1  0.6531796271209  0.7372719411300  0.4172328738205 1.0
C      1  0.6924288346400  0.7347447723355  0.6429988681455 1.0
C      1  0.6723823474761  0.5418154795955  0.7700775043464 1.0
C      1  0.7089447679818  0.3085341160202  0.7114818504930 1.0
C      1  0.6591408839032  0.2397346499401  0.4812492569732 1.0
C      1  0.7105388404888  0.3499152183425  0.2682086008379 1.0
C      1  0.5178229917647  0.4515425476671  0.7570075821586 1.0
C      1  0.4950274853756  0.2754228770843  0.6177019181280 1.0
C      1  0.5165284512971  0.2688598098607  0.3851068584871 1.0
C      1  0.5348376075221  0.4806874708232  0.2668738590688 1.0
C      1  0.5178782644980  0.6426354038812  0.2684146347871 1.0
C      1  0.5008329567136  0.7550885106935  0.4917084046384 1.0
C      1  0.5363343476943  0.6830821958929  0.7064977776197 1.0
C      1  0.6189845780717  0.1868746175656  0.6190724657203 1.0
C      1  0.6471008847283  0.2203588224132  0.3129277213946 1.0
C      1  0.6458268599605  0.4647233734792  0.1639213183969 1.0
C      1  0.6331487576854  0.7432787642420  0.2710291393449 1.0
C      1  0.6390010295365  0.8301576508675  0.5435760322610 1.0
C      1  0.6515728512273  0.6934518963419  0.7994492887903 1.0
C      1  0.6464532773142  0.3836089623191  0.8242984627562 1.0
C      1  0.2331711721693  0.5568491189515  0.4111475915060 1.0
C      1  0.2289858868298  0.5990596970336  0.5031616299055 1.0
C      1  0.1701966646291  0.5481338802494  0.5556683428723 1.0
C      1  0.1505022212239  0.4653217813709  0.5416622272176 1.0
C      1  0.1644739446728  0.3827882651866  0.5187363381115 1.0
C      1  0.2294032787311  0.3733195126797  0.4483537827740 1.0
C      1  0.2459164209334  0.4543242731916  0.3993562323397 1.0
C      1  0.4647760941160  0.4363686965992  0.5862897436441 1.0
C      1  0.4206001523335  0.3833625615354  0.5128657051763 1.0
C      1  0.4348010391280  0.4180177630362  0.4165989379918 1.0
C      1  0.3970100809026  0.5029312191352  0.3742407634036 1.0
C      1  0.4072004827830  0.5903465749404  0.4271781147891 1.0
C      1  0.4532505707950  0.5984208280663  0.5141034706265 1.0
C      1  0.4227201712292  0.5269716586541  0.5802280949463 1.0
C      1  0.3527365912902  0.8354533660988  0.3052204678246 1.0
C      1  0.4343582469939  0.8555404459725  0.7336868365386 1.0
C      1  0.3771185565461  0.6247818993244  0.8757063415954 1.0
C      1  0.4302401394428  0.2549388652958  0.7670802291133 1.0
C      1  0.3587347303020  0.1245666318865  0.5065815520529 1.0
C      1  0.3739756732727  0.2184331212567  0.1483149559269 1.0
C      1  0.3725114427539  0.5593741994280  0.0967318416160 1.0
C      1  0.2886602048200  0.1912883969012  0.5106836635419 1.0
C      1  0.3568042026396  0.2740180890096  0.2257242421890 1.0
C      1  0.2834260325929  0.5447959625249  0.1290324345494 1.0
C      1  0.2621213251040  0.8036812669304  0.3057772417343 1.0
C      1  0.3528294751128  0.8043889695515  0.7269134869273 1.0
C      1  0.2958685080537  0.6437176662740  0.8289460809445 1.0
C      1  0.3556024695818  0.3731188194109  0.8414170590147 1.0
C      1  0.4333094504377  0.3365781865241  0.3518730677601 1.0
C      1  0.4374626552844  0.5083848354550  0.2779089189642 1.0
C      1  0.3867243188709  0.6703325742147  0.3896966418793 1.0
C      1  0.4447709284249  0.6950927748703  0.5553023522374 1.0
C      1  0.4656234473823  0.6121778411613  0.7181509404107 1.0
C      1  0.4422198993484  0.4079252106199  0.6855828408730 1.0
C      1  0.4461976577845  0.2847004023250  0.5258500274934 1.0
C      1  0.7130520669734  0.6653067561435  0.3806929299329 1.0
C      1  0.7330373603378  0.7045070215013  0.5566853863525 1.0
C      1  0.7314777117661  0.5858983727700  0.7004692834050 1.0
C      1  0.7403891086766  0.3988031263411  0.6951207621360 1.0
C      1  0.7098231942338  0.2980403722186  0.5451575103879 1.0
C      1  0.7414402684459  0.3375695892357  0.3624851410947 1.0
C      1  0.7290498118125  0.5094368907118  0.2870818498319 1.0
C      1  0.2870372674930  0.6626784729744  0.5588120975699 1.0
C      1  0.3131184768061  0.6229658626662  0.6409337985103 1.0
C      1  0.3496258851409  0.5324910078732  0.6381344560283 1.0
C      1  0.3493552801354  0.3222373934149  0.5375838236420 1.0
C      1  0.2950996492096  0.2851836337984  0.4591868363357 1.0
C      1  0.3087957653246  0.4822544202129  0.3249937823240 1.0
C      1  0.2731186957550  0.5781164970785  0.3254015187960 1.0
C      1  0.4284451386235  0.6079935042776  0.2446841995008 1.0
C      1  0.4072687530192  0.7609887417602  0.4402605660792 1.0
C      1  0.4584319006389  0.6883310808816  0.6492329287957 1.0
C      1  0.4516853073234  0.5267119348208  0.7706105692008 1.0
C      1  0.4151691276406  0.3065556245052  0.6821018633031 1.0
C      1  0.4461140347623  0.2276755198122  0.4415084359078 1.0
C      1  0.4144495002502  0.3533863682324  0.2493485379165 1.0
C      1  0.5120959292561  0.8829183339532  0.6005260936873 1.0
C      1  0.5063151279136  0.7073907688130  0.8605297889841 1.0
C      1  0.5130334246121  0.3169696010429  0.8665965139343 1.0
C      1  0.4710547209764  0.1219218001070  0.6117959894394 1.0
C      1  0.5103498947075  0.1915261120194  0.2394177429050 1.0
C      1  0.5012091325696  0.4803527231118  0.1039990389206 1.0
C      1  0.4850942042597  0.7928689157326  0.2378413551674 1.0
C      1  0.5271402800451  0.4469211831364  0.4153436418560 1.0
END
