TITL C-21978-996-8 -3.197 3375.00 -520.52403035 0 0 63 (C1) n - 1
REM
REM Run started: at 2020.11.22 11:52:12 in /rds/project/t2_vol4/rds-t2-cs072/BORA/CARBON/AIRSS/Generating-Clusters/Str-Search/Higher-Symm
REM VASP from code version vasp.5.4.4.18Apr17-6-g9f103f2a35 (build Oct 11 2019 16:45:47) gamma-only
REM
REM
REM
REM
REM ./C.cell (e5ae0387ce4d49c7c0135a1433873289)
REM AIRSS Version 0.9.1 bugfix July 2018 build 013d7b7c2542+ Fri, 06 Jul 2018 19:26:36 +0100
REM compiler GCC version 4.8.5 20150623 (Red Hat 4.8.5-39)
REM options -cpp -mtune=generic -march=x86-64 -g -O0
REM seed -495831962 -522559217 2080615695 1215505293 489781788 243234499 1599857631 642572663 220961498 -2132632741 -1936883943 721416915
REM
REM C.POTCAR (d86ddea03c3ceb6dc662c8ad6801f873)
REM 
CELL 1.54180   15.00000   15.00000   15.00000   90.00000   90.00000   90.00000
LATT -1
SFAC C  
C      1  0.5899998824154  0.4947326911551  0.2530282546386 1.0
C      1  0.5945296117718  0.6623576594287  0.3065158571095 1.0
C      1  0.5957661909787  0.7517782046711  0.4558729568965 1.0
C      1  0.5924697218212  0.7207104862755  0.6270413104077 1.0
C      1  0.5892198449828  0.5871240834725  0.7385236762485 1.0
C      1  0.5892270513772  0.4130057952595  0.7390853086797 1.0
C      1  0.5938324960388  0.2789098321327  0.6278747921116 1.0
C      1  0.6008967706130  0.2472074903952  0.4558391770020 1.0
C      1  0.6048155794497  0.3313810450829  0.3050204714850 1.0
C      1  0.6828260549463  0.6383867399352  0.5261834893955 1.0
C      1  0.6812008461598  0.5900379710237  0.6092176429935 1.0
C      1  0.6805961622240  0.4998439024831  0.6422052294107 1.0
C      1  0.6821945959166  0.4094452700964  0.6102948917280 1.0
C      1  0.6853996286082  0.3607938603346  0.5277058601033 1.0
C      1  0.6882166624896  0.3778810761017  0.4330793405104 1.0
C      1  0.6864558168661  0.4511193805753  0.3714759680333 1.0
C      1  0.6827688951016  0.5472936758173  0.3708473187255 1.0
C      1  0.6830852038205  0.6213101938409  0.4318784337503 1.0
C      1  0.5000202579884  0.4027144208735  0.7661367467452 1.0
C      1  0.5043498394563  0.2530299502535  0.6402219231647 1.0
C      1  0.5124004966950  0.2158712957246  0.4450584512404 1.0
C      1  0.5166705285826  0.3176527486290  0.2937159984507 1.0
C      1  0.4984494717598  0.4907630933607  0.2307646411389 1.0
C      1  0.5075304765488  0.6857463558472  0.2809312491776 1.0
C      1  0.5086192917637  0.7857267073175  0.4498884700094 1.0
C      1  0.5038440783268  0.7488791619442  0.6415333874897 1.0
C      1  0.5000173508463  0.5981209735248  0.7657548024467 1.0
C      1  0.4326152425331  0.2287040922124  0.4952574771567 1.0
C      1  0.4328456039403  0.3105079800316  0.3286832824373 1.0
C      1  0.4151353161332  0.4565188562471  0.2601827637635 1.0
C      1  0.4277800498237  0.6397747706364  0.2629641741203 1.0
C      1  0.4300590501822  0.7623484037507  0.4032649497510 1.0
C      1  0.4265195833093  0.7614114703308  0.5898662570517 1.0
C      1  0.4221306236222  0.6393443723433  0.7321819136651 1.0
C      1  0.4212655820195  0.4544380840912  0.7650171276760 1.0
C      1  0.4243078394867  0.2928555769537  0.6709469239793 1.0
C      1  0.4353455115388  0.2456014163478  0.4001125726615 1.0
C      1  0.3772339025897  0.3904814447303  0.3168180594166 1.0
C      1  0.4246524336018  0.5496821251046  0.2452363115319 1.0
C      1  0.4291701723379  0.7171841224291  0.3235054244948 1.0
C      1  0.4287046531653  0.7796963514176  0.4995929343995 1.0
C      1  0.4241512325659  0.7102255894325  0.6736744673753 1.0
C      1  0.4215437577045  0.5465799974690  0.7646553612258 1.0
C      1  0.4223683166096  0.3628117879422  0.7302866096358 1.0
C      1  0.4285055705467  0.2440646687421  0.5858837777611 1.0
C      1  0.6273725808145  0.6427650123685  0.6708277326742 1.0
C      1  0.6257404634798  0.4999239932185  0.7229191024390 1.0
C      1  0.6279772964452  0.3565272642308  0.6717973010978 1.0
C      1  0.6330601302512  0.2796134006455  0.5400954151079 1.0
C      1  0.6412845164214  0.3039431890203  0.3904864678445 1.0
C      1  0.6363038200882  0.4213615084012  0.2931974974822 1.0
C      1  0.6274718149727  0.5732030039934  0.2948967482764 1.0
C      1  0.6313366092313  0.6927123755075  0.3896851634572 1.0
C      1  0.6304167752977  0.7196037392840  0.5395930731269 1.0
C      1  0.3098572977493  0.4177033553015  0.3778979465438 1.0
C      1  0.2766738713069  0.5059764346817  0.3800968294780 1.0
C      1  0.2401242268737  0.5772472479142  0.4058868090486 1.0
C      1  0.2046294135759  0.6044378286867  0.4828549010609 1.0
C      1  0.1736469459253  0.6033734919459  0.5628595722970 1.0
C      1  0.1893275516055  0.5198598067283  0.5943128021355 1.0
C      1  0.2118360516699  0.4380862978182  0.6015178085941 1.0
C      1  0.2489842742982  0.3974052191240  0.5298165600490 1.0
C      1  0.2842191107339  0.3722015553608  0.4574320320913 1.0
END
