TITL C-21800-7154-42 -4.879 3375.00 -841.25432092 0 0 102 (C1) n - 1
REM
REM Run started: at 2021.01.03 14:00:24 in /gpfs/home/chem/mssmkc/CARBON/AIRSS/Generating-Clusters/Str-Search/Higher-Symm/C100-200
REM VASP from code version vasp.5.4.4.18Apr17-6-g9f103f2a35 (build Oct 11 2019 16:45:47) gamma-only
REM
REM
REM
REM
REM ./C.cell (533062f00bc710175b3da973d35f2034)
REM AIRSS Version 0.9.1 bugfix July 2018 build 013d7b7c2542+ Fri, 06 Jul 2018 19:26:36 +0100
REM compiler GCC version 6.3.0
REM options -cpp -iprefix /gpfs/warwick/csc/orac/software/Core/GCCcore/6.3.0/bin/../lib/gcc/x86_64-pc-linux-gnu/6.3.0/ -mtune=generic -march=x86-64 -g -O0
REM seed 3414428 -1718437515 1794544485 -1288690086 457116461 -891375280 -580797107 876915622 349738254 1281842347 460427659 -1467547433
REM
REM C.POTCAR (d86ddea03c3ceb6dc662c8ad6801f873)
REM 
CELL 1.54180   15.00000   15.00000   15.00000   90.00000   90.00000   90.00000
LATT -1
SFAC C  
C      1  0.4168532280008  0.3596479760490  0.2631946758266 1.0
C      1  0.5540082673825  0.4229450840668  0.1892286096021 1.0
C      1  0.6692101746295  0.5305740060314  0.2467012141087 1.0
C      1  0.5250565227730  0.5879882969867  0.1988440225976 1.0
C      1  0.4083838647583  0.5094130661386  0.2046361187247 1.0
C      1  0.6095132578221  0.3680636701025  0.8033898991943 1.0
C      1  0.4557690814527  0.4265141871371  0.8166257830419 1.0
C      1  0.3346948097642  0.5283370743185  0.7534544763093 1.0
C      1  0.4687340582751  0.5946133469614  0.8126669107547 1.0
C      1  0.5898328726053  0.5261531818958  0.8257913490917 1.0
C      1  0.3906998611254  0.6093461486663  0.7620810873796 1.0
C      1  0.3705028166483  0.4422274193110  0.7804269811914 1.0
C      1  0.5173668036285  0.3548416055785  0.7902798184554 1.0
C      1  0.6418254294901  0.4570916315129  0.7892492848492 1.0
C      1  0.5624289071193  0.6133529283551  0.7906385785540 1.0
C      1  0.6069062386021  0.6074312783499  0.2432832728960 1.0
C      1  0.6431139703280  0.4446612627825  0.2127448290178 1.0
C      1  0.5063558248686  0.3514036730249  0.2283203711791 1.0
C      1  0.3613163956117  0.4406759301954  0.2506580236202 1.0
C      1  0.4304288611366  0.6050342022018  0.2237022708693 1.0
C      1  0.4570388100282  0.2375488179724  0.5765132370645 1.0
C      1  0.7266573499004  0.3343063517983  0.5946290960966 1.0
C      1  0.6903983260286  0.6736871135764  0.5910782323515 1.0
C      1  0.4305450348867  0.7924437214052  0.5881357134663 1.0
C      1  0.2209497534464  0.5019583531956  0.6134980540961 1.0
C      1  0.6088216268129  0.2146160877011  0.4176980633821 1.0
C      1  0.2329149823494  0.3453431102535  0.4243283486303 1.0
C      1  0.3082588265991  0.6893167696725  0.4154177169410 1.0
C      1  0.5725116222033  0.7877854236583  0.4191990080411 1.0
C      1  0.7585181024106  0.4680460939322  0.4035540045880 1.0
C      1  0.4253903084030  0.2769076949591  0.6590197214893 1.0
C      1  0.6696501412064  0.3537406835390  0.6687607109788 1.0
C      1  0.6811935557874  0.6215948879474  0.6714907256679 1.0
C      1  0.4604192199288  0.7446057011286  0.6654938528028 1.0
C      1  0.2703957707833  0.4807804019071  0.6901722073936 1.0
C      1  0.6127586808316  0.2651876215997  0.3388073609765 1.0
C      1  0.2435525788151  0.3919490026014  0.3545412115567 1.0
C      1  0.3116437301546  0.6345839145229  0.3355682229727 1.0
C      1  0.5408584961618  0.7431893751623  0.3406716815933 1.0
C      1  0.7333289099203  0.4815527371875  0.3129525570555 1.0
C      1  0.4651846939330  0.4307582857107  0.3983434142641 1.0
C      1  0.5555184317296  0.4564610705856  0.3916040641531 1.0
C      1  0.5534595003174  0.5513942109171  0.3947203323029 1.0
C      1  0.4657574267159  0.5802127755234  0.4075671380440 1.0
C      1  0.4113849518240  0.5064003684988  0.4108298413489 1.0
C      1  0.5191850454064  0.4232882416956  0.5868949679242 1.0
C      1  0.4316159394859  0.4518805990488  0.5954353281686 1.0
C      1  0.4344004914916  0.5467214441461  0.6059416098692 1.0
C      1  0.5236453505666  0.5742838675678  0.5987930210098 1.0
C      1  0.5743680937123  0.4974280106396  0.5895138160443 1.0
C      1  0.6089207129622  0.5871909472042  0.4638499050699 1.0
C      1  0.4483202500463  0.6445801572454  0.4789818827421 1.0
C      1  0.3456247115331  0.5084830755231  0.4819838322720 1.0
C      1  0.4460361543591  0.3624889903918  0.4628675016806 1.0
C      1  0.6151678417835  0.4162459210569  0.4603851154081 1.0
C      1  0.3802451079007  0.5899132488165  0.5402308467002 1.0
C      1  0.5448376036098  0.6407381753436  0.5291027044376 1.0
C      1  0.6382700453564  0.5022250333320  0.5176648477069 1.0
C      1  0.5395030115511  0.3589412069560  0.5166639216891 1.0
C      1  0.3715475336345  0.4127296490040  0.5285358425321 1.0
C      1  0.5849982455691  0.2999182483703  0.6573824800912 1.0
C      1  0.7147950051945  0.5308002926973  0.6556674345877 1.0
C      1  0.5541456788137  0.7252078302728  0.6654739911408 1.0
C      1  0.3118406578661  0.6891980553210  0.6469519360963 1.0
C      1  0.3391854850785  0.3239477142333  0.6582740168398 1.0
C      1  0.4399409640836  0.2793094644785  0.3264422489633 1.0
C      1  0.2663530576383  0.5506463422959  0.3497766569950 1.0
C      1  0.4463507422875  0.7287408499278  0.3396099674364 1.0
C      1  0.6880971932209  0.6815805370540  0.3592037926441 1.0
C      1  0.6864807310303  0.3305498396923  0.3384895232603 1.0
C      1  0.2460001038275  0.5509448137636  0.4551535698615 1.0
C      1  0.4244115938242  0.2701134708144  0.4226567958566 1.0
C      1  0.7101486216328  0.3754832917452  0.4288894094649 1.0
C      1  0.6934355712329  0.6407644611312  0.4362206231731 1.0
C      1  0.3986842151866  0.7329118641032  0.4324481354817 1.0
C      1  0.7329348044512  0.5282443722711  0.5524079821226 1.0
C      1  0.5565351927606  0.2644625285169  0.5651489914403 1.0
C      1  0.3062982794061  0.3422387971256  0.5649082425835 1.0
C      1  0.3000905617325  0.6521277810064  0.5691685011238 1.0
C      1  0.6022635177759  0.7247376315090  0.5736138428868 1.0
C      1  0.7367775886798  0.6304506012654  0.5221620956454 1.0
C      1  0.4099507115202  0.7947774864342  0.5083291676486 1.0
C      1  0.1979942269804  0.5103632536787  0.5327205699087 1.0
C      1  0.4175886227023  0.2190813156821  0.4957158304810 1.0
C      1  0.7410613603750  0.3346791753135  0.5133584283056 1.0
C      1  0.2590641872014  0.6489212807599  0.4819623378177 1.0
C      1  0.5948630311701  0.7876336597366  0.4984411732889 1.0
C      1  0.7968529468638  0.5036970462196  0.4817635080092 1.0
C      1  0.6059859243352  0.2117086039979  0.5002148292372 1.0
C      1  0.2448396289234  0.3152700977903  0.5061521122922 1.0
C      1  0.6148488236319  0.6849618141617  0.3033299634903 1.0
C      1  0.3944071269288  0.6609470382950  0.2882973790475 1.0
C      1  0.2828520663918  0.4617975945245  0.3092625146894 1.0
C      1  0.5310836373724  0.2801066557934  0.2913660164049 1.0
C      1  0.6988540924433  0.3979300312171  0.2776410849694 1.0
C      1  0.3846119982655  0.6882320531656  0.7026553823044 1.0
C      1  0.6012232644397  0.6572335914340  0.7182414222168 1.0
C      1  0.6862811171920  0.4518924314489  0.7050896938159 1.0
C      1  0.5056674717035  0.3000880150137  0.7116487408899 1.0
C      1  0.3154381094587  0.3953064203303  0.7144742181426 1.0
C      1  0.4977565486710  0.5066469658678  0.8447041545227 1.0
C      1  0.4998888215374  0.4985533689463  0.1756642970459 1.0
END
