TITL C-213397-9781-1 -6.752 3375.00 -1115.62902442 0 0 138 (C1) n - 1
REM
REM Run started: at 2020.12.20 20:14:13 in /rds/project/t2_vol4/rds-t2-cs072/BORA/CARBON/AIRSS/Generating-Clusters/Str-Search/Higher-Symm/C100-200
REM VASP from code version vasp.5.4.4.18Apr17-6-g9f103f2a35 (build Oct 11 2019 16:45:47) gamma-only
REM
REM
REM
REM
REM ./C.cell (533062f00bc710175b3da973d35f2034)
REM AIRSS Version 0.9.1 bugfix July 2018 build 013d7b7c2542+ Fri, 06 Jul 2018 19:26:36 +0100
REM compiler GCC version 4.8.5 20150623 (Red Hat 4.8.5-39)
REM options -cpp -mtune=generic -march=x86-64 -g -O0
REM seed -762758569 -1390974846 -559445569 326898932 -1717380363 1003580180 -1800540661 1008678998 1922838159 -1189361021 -1706519505 -536732746
REM
REM C.POTCAR (d86ddea03c3ceb6dc662c8ad6801f873)
REM 
CELL 1.54180   15.00000   15.00000   15.00000   90.00000   90.00000   90.00000
LATT -1
SFAC C  
C      1  0.5567017293510  0.3910815865104  0.2808324532781 1.0
C      1  0.5566961685605  0.2997961528548  0.5241006591784 1.0
C      1  0.5417232969871  0.4789087243560  0.6906081413884 1.0
C      1  0.5492205993572  0.7102387318205  0.6219352283113 1.0
C      1  0.5463928160863  0.6189361225116  0.3863075903283 1.0
C      1  0.4557751735100  0.3918230751728  0.2818297529321 1.0
C      1  0.4501309551466  0.3028799716645  0.5216951283538 1.0
C      1  0.4448050814431  0.4767195964456  0.7164236259112 1.0
C      1  0.4485515428242  0.7140124342284  0.6236398586725 1.0
C      1  0.4499709253419  0.6160989433306  0.3874467317513 1.0
C      1  0.6655292455141  0.6255424826710  0.5369433643174 1.0
C      1  0.6807119669700  0.5058868696024  0.3803362042191 1.0
C      1  0.6619703994182  0.4111689243502  0.3979715961935 1.0
C      1  0.6744684522876  0.4460818296252  0.5668588701827 1.0
C      1  0.6698254688721  0.5495821937300  0.6082910375242 1.0
C      1  0.3314344429208  0.6323488024031  0.5367359979374 1.0
C      1  0.3192189541092  0.4987702552383  0.3694827568028 1.0
C      1  0.3315853582044  0.3933418634665  0.3865452262554 1.0
C      1  0.3492973178105  0.4627475307551  0.5411819590286 1.0
C      1  0.3502944423319  0.5477982418156  0.5883622412243 1.0
C      1  0.3535035424353  0.4367636489130  0.8496823576556 1.0
C      1  0.3452321315571  0.8188136938881  0.6981706196133 1.0
C      1  0.3401939582385  0.7840561239416  0.2484004723433 1.0
C      1  0.3451099976265  0.3600623264615  0.1545311774143 1.0
C      1  0.3380565027401  0.1781037867889  0.5526203068129 1.0
C      1  0.6769103499590  0.4225119165059  0.8765939325700 1.0
C      1  0.6657309661906  0.8079762441336  0.6909920928734 1.0
C      1  0.6573150331112  0.7825298718470  0.2510925116480 1.0
C      1  0.6629105199126  0.3629925240057  0.1528257346509 1.0
C      1  0.6548782005483  0.1678317229854  0.5630429053146 1.0
C      1  0.4570935868010  0.8473435616446  0.4170423751620 1.0
C      1  0.4579000918763  0.5622258056985  0.1379107150671 1.0
C      1  0.4619928314648  0.1502459623349  0.3476266734772 1.0
C      1  0.4619368880232  0.2661793404737  0.7690597082645 1.0
C      1  0.4586676511752  0.6817892964557  0.8432134941052 1.0
C      1  0.5423036003126  0.8471007958183  0.4194272920498 1.0
C      1  0.5440357188015  0.5635013289371  0.1371114977630 1.0
C      1  0.5478628602858  0.1460669169052  0.3512996278706 1.0
C      1  0.5459469435280  0.2722210305150  0.7709720885891 1.0
C      1  0.5449006832207  0.6774366315397  0.8401090616133 1.0
C      1  0.6905523813471  0.7640775754454  0.3287958817103 1.0
C      1  0.7003977916907  0.4378267552228  0.1686535135806 1.0
C      1  0.6992175270024  0.1668175821266  0.4924146337054 1.0
C      1  0.7026810610697  0.3894488817279  0.8012478947416 1.0
C      1  0.7012182716535  0.7358561752865  0.7213077629928 1.0
C      1  0.3058183426328  0.7649425277879  0.3251462533161 1.0
C      1  0.3072557523545  0.4350735108572  0.1717372880100 1.0
C      1  0.3009420237082  0.1848500197640  0.4774097171395 1.0
C      1  0.3093946284721  0.3778906365079  0.8091432849556 1.0
C      1  0.3012711527542  0.7549724909350  0.7316108088598 1.0
C      1  0.2484763814025  0.5187650276071  0.2995289501927 1.0
C      1  0.2619194964898  0.3165345288170  0.3958461410566 1.0
C      1  0.2321797014386  0.3345480785789  0.6767910836754 1.0
C      1  0.2276786978470  0.6117686012588  0.7185167994087 1.0
C      1  0.2701750217094  0.6727612616918  0.4692027723434 1.0
C      1  0.7492734588074  0.5186231240788  0.3008028489105 1.0
C      1  0.7789716657306  0.2676787225631  0.4014977664759 1.0
C      1  0.7349486031201  0.3861799386108  0.6340914360463 1.0
C      1  0.7442840930197  0.5819919402990  0.6754259681502 1.0
C      1  0.7286003491807  0.6685775406984  0.4700448681207 1.0
C      1  0.6063912124504  0.6510903534933  0.7762151416365 1.0
C      1  0.6029051946363  0.7791166623587  0.4307297709278 1.0
C      1  0.6068857810389  0.5404501464086  0.1994040616038 1.0
C      1  0.6124731349084  0.2041644385738  0.3799253729522 1.0
C      1  0.6026763075227  0.3236795148036  0.7198667605919 1.0
C      1  0.3917713595278  0.6577093671791  0.7836170924132 1.0
C      1  0.3962721177366  0.7795765267246  0.4286158701632 1.0
C      1  0.3948890245097  0.5370810272059  0.1993703970973 1.0
C      1  0.4005831772901  0.2121368067109  0.3742324965956 1.0
C      1  0.3963690883704  0.3044822936614  0.7159926521829 1.0
C      1  0.4417347460734  0.6379120578685  0.6965501018519 1.0
C      1  0.4484000123932  0.6950223052216  0.4533711982181 1.0
C      1  0.4513416463662  0.4979417666885  0.2775741599297 1.0
C      1  0.4558357197248  0.2887788066290  0.4170964306591 1.0
C      1  0.4430010993691  0.3815387153419  0.6654086758467 1.0
C      1  0.5483342053462  0.6353497174801  0.6938045627952 1.0
C      1  0.5492960183633  0.6949163533846  0.4529260796880 1.0
C      1  0.5547985554733  0.4997815757465  0.2789388578076 1.0
C      1  0.5596353223075  0.2853366834122  0.4182131036996 1.0
C      1  0.5477658187375  0.3847304386657  0.6622483495999 1.0
C      1  0.8369006826304  0.3250810452748  0.4217620924201 1.0
C      1  0.8189435902083  0.3790344248581  0.6099442230458 1.0
C      1  0.8248792343877  0.5619210083130  0.6427174648932 1.0
C      1  0.8106446136991  0.6343352958936  0.4609171259244 1.0
C      1  0.8318092240763  0.5051515403470  0.3288204570761 1.0
C      1  0.1841744078975  0.3401194086295  0.4353075020098 1.0
C      1  0.1770875025086  0.3731779585406  0.6283271671639 1.0
C      1  0.1776525111617  0.5729899227955  0.6627912462629 1.0
C      1  0.1849547580175  0.6442999052118  0.4698270828767 1.0
C      1  0.1692874084903  0.5172200583477  0.3399460431219 1.0
C      1  0.3004619713176  0.3210131918774  0.7358856561316 1.0
C      1  0.2910119725855  0.6673453357601  0.7606492966929 1.0
C      1  0.3043717779238  0.7508133827104  0.4152921566689 1.0
C      1  0.2958667198358  0.5167175901030  0.2105910794896 1.0
C      1  0.3046620960699  0.2280066513102  0.3952986558964 1.0
C      1  0.6944564483619  0.3528007864981  0.7182603077211 1.0
C      1  0.7035941270802  0.6474867693650  0.7443820570915 1.0
C      1  0.6947285837787  0.7490668206047  0.4185661764205 1.0
C      1  0.7030645686415  0.5180364552953  0.2126007759253 1.0
C      1  0.7101619613795  0.2053421549648  0.4079805822696 1.0
C      1  0.4191799107544  0.3625516016125  0.3646625556231 1.0
C      1  0.4238069369342  0.3968108515800  0.5644805061694 1.0
C      1  0.4023024258074  0.5526685237530  0.6652312946997 1.0
C      1  0.4087187168777  0.6836265547854  0.5423433829308 1.0
C      1  0.4057980067889  0.5436295685160  0.3534218645252 1.0
C      1  0.5965570501720  0.3588473065444  0.3637269308070 1.0
C      1  0.5806409809677  0.3928068955230  0.5661868754222 1.0
C      1  0.5845380987732  0.5504494090644  0.6595785542960 1.0
C      1  0.5876146983096  0.6738590658097  0.5406323459814 1.0
C      1  0.5952110121467  0.5489837376446  0.3562876042310 1.0
C      1  0.8692295563583  0.4049978490172  0.4568135042780 1.0
C      1  0.8703727102821  0.4253900611763  0.5530358128705 1.0
C      1  0.8661811220235  0.5246950859286  0.5708253551101 1.0
C      1  0.8616068307367  0.5634573035798  0.4798265380934 1.0
C      1  0.8679835998431  0.4915814062751  0.4108457141775 1.0
C      1  0.1478010972044  0.4157210618463  0.4711935292948 1.0
C      1  0.1445093138140  0.4343915349505  0.5682780216726 1.0
C      1  0.1431504405475  0.5299145041572  0.5862539388445 1.0
C      1  0.1413567001515  0.5704758236992  0.4958224911177 1.0
C      1  0.1376634110735  0.5015713504778  0.4239596248544 1.0
C      1  0.4209040158125  0.2160917928462  0.5759978550597 1.0
C      1  0.4353486206109  0.4721167748944  0.8204942921388 1.0
C      1  0.4277882836225  0.8131996534797  0.6563712974250 1.0
C      1  0.4160416597395  0.7839561544779  0.2059337486708 1.0
C      1  0.4272580870568  0.3378269249255  0.1903137700090 1.0
C      1  0.5737682186246  0.2111604065239  0.5796852819678 1.0
C      1  0.5939849377484  0.4577391540669  0.8789921775985 1.0
C      1  0.5805936963360  0.8071185628214  0.6532410082797 1.0
C      1  0.5821456781465  0.7836595119176  0.2080132710555 1.0
C      1  0.5809208052113  0.3396044192338  0.1892794347090 1.0
C      1  0.4957815141743  0.1714370263756  0.6083794418140 1.0
C      1  0.5060391039072  0.8620591818294  0.6595781443191 1.0
C      1  0.4992642399415  0.7929735968581  0.1856077629298 1.0
C      1  0.5041949732723  0.3025052034398  0.1538736623013 1.0
C      1  0.5117059685232  0.4733733194206  0.8717610273280 1.0
C      1  0.3172714780918  0.4587800472234  0.4578420977225 1.0
C      1  0.6955045346309  0.4547900508102  0.4689516715946 1.0
C      1  0.5049444664997  0.4384295764450  0.5197106826751 1.0
END
