TITL C-21373-5286-10 -9.723 3375.00 -1513.05309473 0 0 180 (C1) n - 1
REM
REM Run started: at 2020.12.09 15:01:37 in /rds/project/t2_vol4/rds-t2-cs072/BORA/CARBON/AIRSS/Generating-Clusters/Str-Search/Higher-Symm/C100-200
REM VASP from code version vasp.5.4.4.18Apr17-6-g9f103f2a35 (build Oct 11 2019 16:45:47) gamma-only
REM
REM
REM
REM
REM ./C.cell (533062f00bc710175b3da973d35f2034)
REM AIRSS Version 0.9.1 bugfix July 2018 build 013d7b7c2542+ Fri, 06 Jul 2018 19:26:36 +0100
REM compiler GCC version 4.8.5 20150623 (Red Hat 4.8.5-39)
REM options -cpp -mtune=generic -march=x86-64 -g -O0
REM seed -1609142147 943563699 -465795763 1723531001 1249690593 371922119 -616745331 1376000812 1851401240 200571810 15189995 1632923204
REM
REM C.POTCAR (d86ddea03c3ceb6dc662c8ad6801f873)
REM 
CELL 1.54180   15.00000   15.00000   15.00000   90.00000   90.00000   90.00000
LATT -1
SFAC C  
C      1  0.4176471682381  0.2229741808046  0.4932823579598 1.0
C      1  0.7389037661502  0.3365468654495  0.5053879067325 1.0
C      1  0.7301928636073  0.6749868052029  0.5361969990974 1.0
C      1  0.4009423753160  0.7716758642738  0.5448511847706 1.0
C      1  0.2075387935181  0.4898674271896  0.5212274864324 1.0
C      1  0.6065050896980  0.7569565998592  0.7753308266060 1.0
C      1  0.2645927876679  0.6647949145041  0.7637219117138 1.0
C      1  0.2459448114663  0.3109474256929  0.7236738326054 1.0
C      1  0.5806325964859  0.1863004926791  0.7109952585121 1.0
C      1  0.8004052912198  0.4646681328770  0.7408958451384 1.0
C      1  0.6883732074779  0.5816245308478  0.7987186004631 1.0
C      1  0.4530407862854  0.6846484633335  0.8103732018168 1.0
C      1  0.2809795986476  0.4937837053711  0.7866014642344 1.0
C      1  0.4104431187928  0.2711696142043  0.7628857833599 1.0
C      1  0.6641015598880  0.3263681812112  0.7688665907421 1.0
C      1  0.7517032576604  0.8326706766799  0.5261507722066 1.0
C      1  0.2608241695238  0.8428995652326  0.5253125688044 1.0
C      1  0.0964843579226  0.3812611860130  0.4843200713776 1.0
C      1  0.4928970954393  0.0852061476292  0.4534490947600 1.0
C      1  0.8978518985312  0.3719629453224  0.4839126241845 1.0
C      1  0.9475033979996  0.3617979603802  0.5717154131655 1.0
C      1  0.7688256823479  0.8471121629456  0.6208192260354 1.0
C      1  0.2445788580647  0.8580025657975  0.6201874501231 1.0
C      1  0.0484108442363  0.3655085838053  0.5718026460193 1.0
C      1  0.4947060280275  0.0282725411784  0.5364131009987 1.0
C      1  0.3305624961926  0.8151359830560  0.3752251763277 1.0
C      1  0.1613543920549  0.4450758404990  0.3419770617607 1.0
C      1  0.4625918224042  0.1726717224865  0.3129197758914 1.0
C      1  0.8169690665747  0.3731695184332  0.3347402882814 1.0
C      1  0.7350376711814  0.7692255909150  0.3712384784478 1.0
C      1  0.3411239673740  0.4198603990820  0.8059932652089 1.0
C      1  0.4970015844391  0.3036550971147  0.7935834955561 1.0
C      1  0.6560312732356  0.4154507401445  0.8063721396881 1.0
C      1  0.5982294072547  0.6002787785140  0.8285118768216 1.0
C      1  0.4039819455145  0.6030124475169  0.8281113540199 1.0
C      1  0.6155909342344  0.6333511572805  0.3844156699514 1.0
C      1  0.4209728066147  0.6579145356954  0.3866902305159 1.0
C      1  0.3366884007799  0.4813221419279  0.3710816181615 1.0
C      1  0.4802132624576  0.3469729603866  0.3571209458536 1.0
C      1  0.6527205018097  0.4412716104114  0.3666148821593 1.0
C      1  0.5265866359239  0.3607806602278  0.1023600296505 1.0
C      1  0.6724152550473  0.5038189911555  0.1162153506442 1.0
C      1  0.5813349921297  0.6865453796921  0.1339447012302 1.0
C      1  0.3781297647461  0.6570870212291  0.1314056573679 1.0
C      1  0.3437998369565  0.4556632004372  0.1116916939277 1.0
C      1  0.7496309589279  0.4988038763169  0.1473847630971 1.0
C      1  0.6100385100390  0.7552553381750  0.1714895042350 1.0
C      1  0.3188125798128  0.7040396734357  0.1667778102160 1.0
C      1  0.2782692576630  0.4118478297409  0.1394694457055 1.0
C      1  0.5483910849090  0.2837711956394  0.1261778831138 1.0
C      1  0.4026506698168  0.6229403010785  0.6062797492191 1.0
C      1  0.3440815933418  0.4419240606254  0.5917416919467 1.0
C      1  0.4991527865525  0.3306944396963  0.5812334422819 1.0
C      1  0.6536234997693  0.4425067431673  0.5925959606203 1.0
C      1  0.5941744567389  0.6236860080340  0.6074328288901 1.0
C      1  0.5005029662767  0.1773090995200  0.4874928747836 1.0
C      1  0.8080468217562  0.4008824768453  0.5113959053430 1.0
C      1  0.6868907860113  0.7592749874946  0.5377643610871 1.0
C      1  0.3084172454804  0.7571887459657  0.5370184585067 1.0
C      1  0.1898733224321  0.3972761090361  0.5111790868508 1.0
C      1  0.6690197450206  0.1694846862529  0.6858860577442 1.0
C      1  0.8467043777256  0.5448267266822  0.7261444436173 1.0
C      1  0.5465034720184  0.8277263091277  0.7575710628651 1.0
C      1  0.1811969879937  0.6327660536397  0.7351119690429 1.0
C      1  0.2543122199537  0.2237885339605  0.6911305090994 1.0
C      1  0.3213572728349  0.1736544971437  0.6860433337621 1.0
C      1  0.7374492222451  0.2176906729511  0.6904193447907 1.0
C      1  0.8223154267292  0.6240224436590  0.7358865266335 1.0
C      1  0.4633656519771  0.8287524129459  0.7569234965393 1.0
C      1  0.1543078128995  0.5543221047835  0.7251081230487 1.0
C      1  0.4252873528847  0.4982354299202  0.0992540098771 1.0
C      1  0.5114445339680  0.4522559916411  0.0945083913982 1.0
C      1  0.5817121820618  0.5194080085123  0.1010776039597 1.0
C      1  0.5393136256384  0.6068912597108  0.1100973084486 1.0
C      1  0.4426357043012  0.5939530899369  0.1090371593873 1.0
C      1  0.5462158492789  0.7021127155356  0.5835733041372 1.0
C      1  0.3147753822905  0.6039880041797  0.5754445669272 1.0
C      1  0.3381446264986  0.3557074057957  0.5526026141045 1.0
C      1  0.5825611299668  0.3003638625958  0.5476487456058 1.0
C      1  0.7117316721323  0.5139779472099  0.5693448644423 1.0
C      1  0.1028043146704  0.4041427650265  0.3977755085999 1.0
C      1  0.4800787271930  0.1017897061079  0.3663975302033 1.0
C      1  0.8841989749020  0.3671928886028  0.3953122983520 1.0
C      1  0.7595066490287  0.8269871812263  0.4371070055600 1.0
C      1  0.2773096190053  0.8541483768235  0.4378899286867 1.0
C      1  0.6826181703485  0.6052690574615  0.5765270426166 1.0
C      1  0.4504390751713  0.7023304715972  0.5834250318589 1.0
C      1  0.2847908126150  0.5130192932618  0.5680789819240 1.0
C      1  0.4157286808757  0.2992468112262  0.5472041158878 1.0
C      1  0.6607509725790  0.3558749958712  0.5532074261083 1.0
C      1  0.5839466830366  0.2188539233858  0.5009938803297 1.0
C      1  0.7936012666024  0.4921505762930  0.5294285361538 1.0
C      1  0.5961391617564  0.7757903003283  0.5518104093470 1.0
C      1  0.2623385287492  0.6754860412552  0.5428516030674 1.0
C      1  0.2569957357551  0.3310243223897  0.5120622242369 1.0
C      1  0.2509744083341  0.1606124925929  0.4484045188312 1.0
C      1  0.7497541983234  0.1621309759356  0.4530631154151 1.0
C      1  0.9085089940780  0.6294423198129  0.4947582436703 1.0
C      1  0.4976299766339  0.9290824444622  0.5290678311331 1.0
C      1  0.0911462964365  0.6252057302301  0.5012495061718 1.0
C      1  0.3729529659085  0.2225851082100  0.3318575500683 1.0
C      1  0.7407399690832  0.3022331144919  0.3413850644838 1.0
C      1  0.7774812677735  0.6735976056824  0.3777355341717 1.0
C      1  0.4339705101175  0.8240583520188  0.3922805730158 1.0
C      1  0.1829895771605  0.5450485309415  0.3665391947627 1.0
C      1  0.7484342844847  0.3043438610998  0.7233879915838 1.0
C      1  0.7397333642913  0.6576743485510  0.7647493328206 1.0
C      1  0.4010106211568  0.7600507387830  0.7748962503777 1.0
C      1  0.1978903129108  0.4725963197605  0.7402003881486 1.0
C      1  0.4101055595157  0.1880726765928  0.7113293508040 1.0
C      1  0.8116584918653  0.5121445837980  0.2160305773909 1.0
C      1  0.6116639114387  0.8145203238043  0.2437297219097 1.0
C      1  0.2584333665471  0.7204934188129  0.2358553497868 1.0
C      1  0.2387779302968  0.3557133500767  0.2022180733888 1.0
C      1  0.5854310679275  0.2261390443452  0.1894096771442 1.0
C      1  0.1821127051416  0.6671093447858  0.2475869054582 1.0
C      1  0.2635341529349  0.2655539265895  0.2095368105707 1.0
C      1  0.6777613587191  0.2211802899628  0.2053603000085 1.0
C      1  0.8422060866574  0.5975854537707  0.2397006220220 1.0
C      1  0.5373113357388  0.8677487926056  0.2644219634656 1.0
C      1  0.4230422208698  0.4941053324306  0.3998959439105 1.0
C      1  0.4916581494451  0.4305694827415  0.3934947420281 1.0
C      1  0.5736542161515  0.4758774917832  0.3978597343334 1.0
C      1  0.5554554426215  0.5675491379988  0.4063725381073 1.0
C      1  0.4625692875463  0.5786411152990  0.4074601342905 1.0
C      1  0.4515382310160  0.5530469465574  0.6422419861472 1.0
C      1  0.4222423973036  0.4636262248958  0.6356884281434 1.0
C      1  0.4987722582822  0.4083421993632  0.6310915224538 1.0
C      1  0.5750445126532  0.4637534133926  0.6361928305066 1.0
C      1  0.5455047706159  0.5532756269078  0.6427582916005 1.0
C      1  0.8192714926942  0.3736346832748  0.7039216316264 1.0
C      1  0.6992689705450  0.7456698136519  0.7501335409048 1.0
C      1  0.3080319725155  0.7516767596159  0.7490950696583 1.0
C      1  0.1765527667145  0.3815551062504  0.7040626850794 1.0
C      1  0.4949403915140  0.1434289517717  0.6799113809866 1.0
C      1  0.8503899225067  0.5642263558517  0.5026132873044 1.0
C      1  0.5439099611841  0.8537438262201  0.5292004444765 1.0
C      1  0.1736407658229  0.6545617497990  0.5120980547043 1.0
C      1  0.2548351073997  0.2461527465049  0.4689640464948 1.0
C      1  0.6679217677893  0.1910298481199  0.4660491151557 1.0
C      1  0.5766592637946  0.7224836098952  0.3709415002336 1.0
C      1  0.3257737886068  0.6505431078645  0.3643688647617 1.0
C      1  0.3165527455950  0.3906448633862  0.3392054004770 1.0
C      1  0.5631641767287  0.3016056389380  0.3302707090046 1.0
C      1  0.7236960634485  0.5074628952119  0.3509530425255 1.0
C      1  0.5758892972738  0.4377667200935  0.8481155585826 1.0
C      1  0.5474486013452  0.5280450205721  0.8588423064428 1.0
C      1  0.4526629210210  0.5293721860316  0.8586206417166 1.0
C      1  0.4217705607792  0.4399710739278  0.8478452808568 1.0
C      1  0.4980881446068  0.3832157129437  0.8417143097221 1.0
C      1  0.6488630092825  0.3487094256792  0.3404564058417 1.0
C      1  0.7043504146129  0.6022357772812  0.3653154809776 1.0
C      1  0.4799117918714  0.7330788910147  0.3774190275627 1.0
C      1  0.2846145508140  0.5615487973904  0.3623623923414 1.0
C      1  0.3889304346388  0.3238579481897  0.3371259190434 1.0
C      1  0.6444840708780  0.7788183722849  0.3295497557791 1.0
C      1  0.2967802082255  0.7349133685082  0.3257476310297 1.0
C      1  0.2307491897598  0.3911294085677  0.2945249478175 1.0
C      1  0.5404416505006  0.2239708228908  0.2771930490291 1.0
C      1  0.7946496116751  0.4645550736549  0.3007049422208 1.0
C      1  0.2685316847870  0.8156714858279  0.6890564415632 1.0
C      1  0.1082600087089  0.3700596953979  0.6419979138591 1.0
C      1  0.4952378401288  0.0813638416418  0.6112641610499 1.0
C      1  0.8878538909010  0.3633493172182  0.6420823446974 1.0
C      1  0.7416645244218  0.8074833238920  0.6899550989300 1.0
C      1  0.7403442982444  0.2625953454865  0.4386640527569 1.0
C      1  0.8095221022537  0.6565336930083  0.4770227158855 1.0
C      1  0.4494706688233  0.8451576857831  0.4947733741794 1.0
C      1  0.1582772255258  0.5590504823883  0.4679683708369 1.0
C      1  0.3425130781619  0.2031716180841  0.4311261826119 1.0
C      1  0.7181557289387  0.4877444581180  0.7873709054795 1.0
C      1  0.5517232804891  0.6832489802662  0.8106735396644 1.0
C      1  0.3134273947684  0.5870020261161  0.7980634584803 1.0
C      1  0.3306460746293  0.3306929454828  0.7690421725896 1.0
C      1  0.5826459849225  0.2690152896548  0.7628632893030 1.0
C      1  0.8360561764816  0.6493587872713  0.3038979080341 1.0
C      1  0.4811384305015  0.8760489499102  0.3244856989443 1.0
C      1  0.1540336080955  0.6104858142253  0.3006233158207 1.0
C      1  0.3050354295746  0.2177185527619  0.2624743462296 1.0
C      1  0.7300011741444  0.2420213664895  0.2658335550154 1.0
END
