TITL C-21117-6405-16 -6.358 3375.00 -1106.00210501 0 0 134 (C1) n - 1
REM
REM Run started: at 2020.12.27 13:44:33 in /gpfs/home/chem/mssmkc/CARBON/AIRSS/Generating-Clusters/Str-Search/Higher-Symm/C100-200
REM VASP from code version vasp.5.4.4.18Apr17-6-g9f103f2a35 (build Oct 11 2019 16:45:47) gamma-only
REM
REM
REM
REM
REM ./C.cell (533062f00bc710175b3da973d35f2034)
REM AIRSS Version 0.9.1 bugfix July 2018 build 013d7b7c2542+ Fri, 06 Jul 2018 19:26:36 +0100
REM compiler GCC version 6.3.0
REM options -cpp -iprefix /gpfs/warwick/csc/orac/software/Core/GCCcore/6.3.0/bin/../lib/gcc/x86_64-pc-linux-gnu/6.3.0/ -mtune=generic -march=x86-64 -g -O0
REM seed 316419328 2120658527 1798018922 -1295675289 -1898648898 -864020095 1830170125 1171501825 -1389466200 -1381526486 -503183146 819729545
REM
REM C.POTCAR (d86ddea03c3ceb6dc662c8ad6801f873)
REM 
CELL 1.54180   15.00000   15.00000   15.00000   90.00000   90.00000   90.00000
LATT -1
SFAC C  
C      1  0.3221646557194  0.5995824674414  0.1931990285923 1.0
C      1  0.3141892937554  0.2066553213923  0.5388998569214 1.0
C      1  0.3176128409795  0.7342479574686  0.7467894792958 1.0
C      1  0.5344763723712  0.6653723779742  0.5135771510575 1.0
C      1  0.5184270659609  0.4483395834462  0.3747541751079 1.0
C      1  0.5345169543363  0.4131035748388  0.6293222683397 1.0
C      1  0.7272551306693  0.3940776885905  0.2781308365413 1.0
C      1  0.7527296906560  0.3295086303824  0.6604701731172 1.0
C      1  0.7679538604786  0.7340616509282  0.5636650280226 1.0
C      1  0.6341353272499  0.6054637389405  0.2143997764721 1.0
C      1  0.6424066288855  0.1677901334842  0.5161395599892 1.0
C      1  0.6370946373043  0.6845680929712  0.7633800548061 1.0
C      1  0.3788818925425  0.3085286325668  0.7389473266218 1.0
C      1  0.3868509580614  0.8208944724605  0.5405239887569 1.0
C      1  0.3895729383333  0.3233318153642  0.2399030123463 1.0
C      1  0.7288976786242  0.2857432695736  0.3835188140093 1.0
C      1  0.7055441791091  0.4622402158281  0.7361546881835 1.0
C      1  0.7057680264581  0.7292926965218  0.4090421347771 1.0
C      1  0.4373697648694  0.9234408196895  0.3894073375556 1.0
C      1  0.5448805227516  0.2827957866168  0.2411748112248 1.0
C      1  0.4172647428386  0.3865084658182  0.9089835083066 1.0
C      1  0.8106111508424  0.5421727128560  0.4002189603783 1.0
C      1  0.7952647720340  0.3653299394559  0.4972934711945 1.0
C      1  0.7993602062113  0.6435852993201  0.5766816915440 1.0
C      1  0.4547815160902  0.2622932219052  0.2623522934315 1.0
C      1  0.3961784986177  0.3675917432871  0.8185801880266 1.0
C      1  0.4072010210465  0.8559040198992  0.4481564020276 1.0
C      1  0.7089832546721  0.4584504715126  0.5859787844107 1.0
C      1  0.6846825895264  0.5927442426288  0.4863164539509 1.0
C      1  0.6833909581125  0.4307794459926  0.3683203601326 1.0
C      1  0.2623809162009  0.4535084297049  0.2139079865050 1.0
C      1  0.2897646857325  0.2173359020068  0.6335739723324 1.0
C      1  0.2978468921450  0.7993875570323  0.6794399111586 1.0
C      1  0.1683388894736  0.3163633589855  0.5941887534033 1.0
C      1  0.2042583584040  0.6773061791109  0.6356086390776 1.0
C      1  0.2071949624371  0.4754727479486  0.2846195864772 1.0
C      1  0.2667141021216  0.6486330668563  0.7290283325235 1.0
C      1  0.2734088682151  0.6236619223130  0.2742453495776 1.0
C      1  0.2705202940599  0.2635430483061  0.4748097583428 1.0
C      1  0.6011953142205  0.4518674818799  0.1887238904076 1.0
C      1  0.6078027024516  0.2487193076428  0.6431588276729 1.0
C      1  0.6155356297325  0.7657414055759  0.6345844616983 1.0
C      1  0.3339214365921  0.6770686382407  0.3258999291037 1.0
C      1  0.3369721994380  0.2886195245974  0.4020860208373 1.0
C      1  0.3312918268700  0.5793917331515  0.7250690252633 1.0
C      1  0.3520356934179  0.5306676516188  0.6371168135921 1.0
C      1  0.3514463997438  0.6247771111700  0.4130321127065 1.0
C      1  0.3544420978479  0.3901215610021  0.4482638195492 1.0
C      1  0.5524805659502  0.7607180254817  0.5581152544160 1.0
C      1  0.5410828689084  0.3736824217252  0.1998680007706 1.0
C      1  0.5476349219217  0.3179964227430  0.6802319499138 1.0
C      1  0.2888478698978  0.4180602095842  0.5230367100070 1.0
C      1  0.3047750793084  0.5721052799064  0.5580867964541 1.0
C      1  0.2868122709882  0.5428268728924  0.4066119947205 1.0
C      1  0.6322779385121  0.1357751381847  0.4323711290190 1.0
C      1  0.6052100641658  0.6256719666884  0.8281236592917 1.0
C      1  0.6069177833748  0.6929185489413  0.2292236962418 1.0
C      1  0.4805843975748  0.7645849433221  0.7362271266516 1.0
C      1  0.4720503890448  0.5606032436857  0.1731140096742 1.0
C      1  0.4734334682126  0.1738917176521  0.5797038739718 1.0
C      1  0.5220910126091  0.6282678638118  0.4171283646587 1.0
C      1  0.5175772040041  0.3808124709241  0.4417275358456 1.0
C      1  0.5263104908980  0.5166980755415  0.6481465063756 1.0
C      1  0.4537332170449  0.8323715108188  0.6710560893093 1.0
C      1  0.4156899327608  0.4801561888245  0.1655856338360 1.0
C      1  0.4415494306152  0.1926359991487  0.6699904439042 1.0
C      1  0.7526998739978  0.5817209487076  0.3343046840420 1.0
C      1  0.7682376425682  0.2738261576425  0.4736906247533 1.0
C      1  0.7564966990523  0.6115783899275  0.6608299900665 1.0
C      1  0.6020545726809  0.4932541513019  0.3660897725092 1.0
C      1  0.6163974413561  0.4094251606936  0.5651510612189 1.0
C      1  0.6132803165161  0.6117381770237  0.5491091166246 1.0
C      1  0.4052679153456  0.6081882249963  0.7805005193564 1.0
C      1  0.4087937927162  0.7019985340183  0.2701026382613 1.0
C      1  0.4143102170563  0.2216944252532  0.4167205465806 1.0
C      1  0.4415920711176  0.5857266369525  0.3939532106452 1.0
C      1  0.4402417809326  0.3829449383443  0.4933276476373 1.0
C      1  0.4472296438040  0.5606249041519  0.6147277186977 1.0
C      1  0.7962229320283  0.5820190412724  0.5001837157313 1.0
C      1  0.7655341150132  0.4515652227749  0.4317488131969 1.0
C      1  0.7808685361060  0.3879734645078  0.5871469124717 1.0
C      1  0.4726967078161  0.7657297247134  0.2994687605334 1.0
C      1  0.5659260647372  0.2101607762948  0.3102624932825 1.0
C      1  0.4584801874948  0.5443335834166  0.8247638649223 1.0
C      1  0.4274504615730  0.4521251977794  0.8400585156509 1.0
C      1  0.4448098463469  0.8307598248554  0.3670326789709 1.0
C      1  0.4706451157677  0.2141625705025  0.3417628926800 1.0
C      1  0.1685056938854  0.6433905339229  0.7071515726658 1.0
C      1  0.2279974538277  0.5583762895292  0.3256058490416 1.0
C      1  0.2250712084995  0.3349008782993  0.5218761004056 1.0
C      1  0.3471746993769  0.4277694594041  0.6145770945551 1.0
C      1  0.3547449167357  0.6500407455460  0.5141879517983 1.0
C      1  0.3457872762382  0.4616334981831  0.3738629229915 1.0
C      1  0.4481511112743  0.6307622972885  0.5547507624379 1.0
C      1  0.4377116331751  0.4985392536705  0.3625956700150 1.0
C      1  0.4427963530112  0.4009607789756  0.5820132047384 1.0
C      1  0.4710738241146  0.2757423573377  0.7068104678177 1.0
C      1  0.4804420351081  0.8107265377453  0.5809233916116 1.0
C      1  0.4444881409575  0.3937997308552  0.1898485391185 1.0
C      1  0.5559508119015  0.7517183549141  0.2588694964050 1.0
C      1  0.6255311863645  0.1548361926929  0.3500335880290 1.0
C      1  0.5435381996905  0.5760642194595  0.8518345966305 1.0
C      1  0.5981885524115  0.5878410987934  0.3768654970058 1.0
C      1  0.6031630793163  0.3669684171713  0.4856255828350 1.0
C      1  0.6077715641783  0.5618368749828  0.6285701819678 1.0
C      1  0.7284811450135  0.3827793278532  0.7370616740984 1.0
C      1  0.7462338846204  0.7573015999456  0.4759447897019 1.0
C      1  0.7621340574708  0.3145308699393  0.2991691913101 1.0
C      1  0.6849678112593  0.6333849943540  0.3919415642629 1.0
C      1  0.6614727005049  0.3464542893560  0.4110847459314 1.0
C      1  0.6971940330756  0.5262725937591  0.6618622356640 1.0
C      1  0.4073251055917  0.1876782210900  0.5100003004863 1.0
C      1  0.4086100897121  0.7101122706473  0.7694088032865 1.0
C      1  0.4113279350958  0.6360582479735  0.1954350196562 1.0
C      1  0.3657684106947  0.8524262093909  0.6430735350804 1.0
C      1  0.3234648422394  0.5074336994423  0.1701684332890 1.0
C      1  0.3532669211019  0.2072350472983  0.7010222230138 1.0
C      1  0.7105567579835  0.5550399211759  0.2483171753687 1.0
C      1  0.7207178192570  0.2233980904815  0.5385688436080 1.0
C      1  0.7177115739429  0.6836520117007  0.7070302191355 1.0
C      1  0.2573575376378  0.7484587558034  0.6031300292977 1.0
C      1  0.2832689807153  0.4131376494754  0.3038469070356 1.0
C      1  0.2449754681665  0.3062186600915  0.6502616028709 1.0
C      1  0.5654827751050  0.5425726542602  0.1820496687137 1.0
C      1  0.5708208634456  0.1864068699768  0.5799755990064 1.0
C      1  0.5746359486643  0.7423428369763  0.7214159968155 1.0
C      1  0.3251432626523  0.7407247878403  0.5411020418141 1.0
C      1  0.3214924380385  0.3244758745136  0.3057299254915 1.0
C      1  0.3158622209084  0.3588624934827  0.6783917507810 1.0
C      1  0.6931554216763  0.4624131295520  0.2207542359262 1.0
C      1  0.7024666293786  0.2590984825834  0.6260831377835 1.0
C      1  0.7084205508876  0.7517190540297  0.6369774845997 1.0
C      1  0.7320991112424  0.5086022311806  0.5059818354718 1.0
C      1  0.2679003258214  0.5135632357490  0.5000623021647 1.0
END
