TITL C-21117-6405-36 -6.7 3375.00 -1130.55957843 0 0 137 (C1) n - 1
REM
REM Run started: at 2020.12.28 08:43:50 in /gpfs/home/chem/mssmkc/CARBON/AIRSS/Generating-Clusters/Str-Search/Higher-Symm/C100-200
REM VASP from code version vasp.5.4.4.18Apr17-6-g9f103f2a35 (build Oct 11 2019 16:45:47) gamma-only
REM
REM
REM
REM
REM ./C.cell (533062f00bc710175b3da973d35f2034)
REM AIRSS Version 0.9.1 bugfix July 2018 build 013d7b7c2542+ Fri, 06 Jul 2018 19:26:36 +0100
REM compiler GCC version 6.3.0
REM options -cpp -iprefix /gpfs/warwick/csc/orac/software/Core/GCCcore/6.3.0/bin/../lib/gcc/x86_64-pc-linux-gnu/6.3.0/ -mtune=generic -march=x86-64 -g -O0
REM seed -322486391 1352485409 1984223896 1725662589 -1343555498 948385382 1543749338 -1087611331 1087493578 150738887 -1293299507 -2107694905
REM
REM C.POTCAR (d86ddea03c3ceb6dc662c8ad6801f873)
REM 
CELL 1.54180   15.00000   15.00000   15.00000   90.00000   90.00000   90.00000
LATT -1
SFAC C  
C      1  0.5642431009953  0.6457423344924  0.8027068625517 1.0
C      1  0.7969439680577  0.6453437559963  0.5986929682616 1.0
C      1  0.8167381727954  0.6444151125267  0.4965968140422 1.0
C      1  0.7212538524961  0.6535085325582  0.2376371992263 1.0
C      1  0.4372828993036  0.6613248334318  0.2083490255178 1.0
C      1  0.3467046635523  0.6715932663470  0.2492571825080 1.0
C      1  0.1864136097650  0.6466300689298  0.4326956249284 1.0
C      1  0.2160413340960  0.6373979008242  0.6699880957546 1.0
C      1  0.4601788063365  0.6428207339815  0.8072374107759 1.0
C      1  0.8139805395337  0.5666778177655  0.6458264237565 1.0
C      1  0.8492324043313  0.5642762340023  0.4610474026084 1.0
C      1  0.7612202608787  0.5829734387188  0.2151009575570 1.0
C      1  0.4635773208367  0.5796483800728  0.1746518374612 1.0
C      1  0.2962054593555  0.5940685950071  0.2517847556173 1.0
C      1  0.1529727605295  0.5694710839418  0.4512048944920 1.0
C      1  0.1811937227937  0.5596455028483  0.6852781468756 1.0
C      1  0.4179425632318  0.5647724310139  0.8361189110683 1.0
C      1  0.6076464727625  0.5676957491581  0.8297294589077 1.0
C      1  0.6613635919518  0.2338713923253  0.3413789260512 1.0
C      1  0.4757896143460  0.1994455073189  0.2630586545746 1.0
C      1  0.3168226770945  0.2161226200421  0.3508777127587 1.0
C      1  0.2709006358621  0.2130166191311  0.4372394048275 1.0
C      1  0.3159238528620  0.2074074623549  0.6458882315751 1.0
C      1  0.3936686509732  0.2095177308088  0.7058164990945 1.0
C      1  0.6061220509488  0.2140731291983  0.7008790669339 1.0
C      1  0.6803714247384  0.2148946372096  0.6366779582463 1.0
C      1  0.7090227471874  0.2219345725552  0.4243146690567 1.0
C      1  0.6184109367918  0.1860941014871  0.5647519238102 1.0
C      1  0.6294941272948  0.1958125488387  0.4741485334441 1.0
C      1  0.5690029706967  0.2197403724021  0.3927495954561 1.0
C      1  0.4836048747525  0.1766029844264  0.3540307944133 1.0
C      1  0.3981117724638  0.1740241972545  0.3927288975572 1.0
C      1  0.3518596502651  0.1735332074489  0.4809960836312 1.0
C      1  0.3720269919685  0.1723968544543  0.5717694295533 1.0
C      1  0.4517127409803  0.1755330431874  0.6332438797334 1.0
C      1  0.5438857001142  0.1814223928675  0.6307348607377 1.0
C      1  0.4038659739403  0.8034507513347  0.6134583605868 1.0
C      1  0.4975915224573  0.8118096557651  0.6331590884588 1.0
C      1  0.5930952038721  0.8150357538744  0.5965160657533 1.0
C      1  0.6444961517757  0.8213307261176  0.5144358637153 1.0
C      1  0.6412924406549  0.8190065434358  0.4131440461461 1.0
C      1  0.5782376604804  0.8289554416172  0.3403399092735 1.0
C      1  0.4866902043012  0.8514830681515  0.3423094876974 1.0
C      1  0.3559350781481  0.8253271995865  0.4492474220400 1.0
C      1  0.3443486320066  0.8025865087335  0.5376176602532 1.0
C      1  0.1691685651731  0.4756865217148  0.6846477411507 1.0
C      1  0.3943462853314  0.4858478181180  0.8439559437403 1.0
C      1  0.6184751737798  0.4863630856647  0.8409616652879 1.0
C      1  0.8190670344740  0.4865100964803  0.6662307021666 1.0
C      1  0.8611125283201  0.4831254345292  0.4476090711799 1.0
C      1  0.7843413723536  0.4984578320171  0.2163528998722 1.0
C      1  0.4732278363873  0.4986517521214  0.1595935177158 1.0
C      1  0.2802120156439  0.5120443898836  0.2494548140382 1.0
C      1  0.1347365313271  0.4875676507279  0.4687475713833 1.0
C      1  0.2444721224845  0.2629909561668  0.6626492514004 1.0
C      1  0.3958612013772  0.2685168302256  0.7765273919454 1.0
C      1  0.6094568510693  0.2690769931991  0.7744600569960 1.0
C      1  0.7527682297757  0.2698064912025  0.6504027634636 1.0
C      1  0.7885053722488  0.2688087644823  0.4390774792526 1.0
C      1  0.6911348295526  0.2918185621272  0.2730302874971 1.0
C      1  0.4564041745914  0.2528584389834  0.2039975947322 1.0
C      1  0.2974337647525  0.2855993693645  0.2914594440152 1.0
C      1  0.2001859401214  0.2706923259643  0.4538632087198 1.0
C      1  0.3012879860980  0.7718985006566  0.3865510791686 1.0
C      1  0.2911155081942  0.7165042653865  0.5366562065516 1.0
C      1  0.3648559588744  0.7213796210025  0.6703304231614 1.0
C      1  0.5059191812496  0.7419719923637  0.7040725009528 1.0
C      1  0.6448011917162  0.7314689476739  0.6584812238857 1.0
C      1  0.7130591333546  0.7492600616995  0.5295417462219 1.0
C      1  0.6997418333851  0.7363241248868  0.3830090322883 1.0
C      1  0.5787636063405  0.7421129074558  0.2864452536514 1.0
C      1  0.4332155841146  0.7979479341594  0.2802084637091 1.0
C      1  0.5442546603555  0.3875995352341  0.6340227391480 1.0
C      1  0.6240243962516  0.3954978594243  0.5809291698548 1.0
C      1  0.6550207380875  0.3947701636759  0.4917646249033 1.0
C      1  0.6060454859236  0.3853000922879  0.4072229971137 1.0
C      1  0.5387076089843  0.3181660375617  0.4006061840394 1.0
C      1  0.4543384294917  0.3555454309848  0.4091327488603 1.0
C      1  0.3761318623268  0.3495459484463  0.4685565920678 1.0
C      1  0.3790645086112  0.3561752286552  0.5631869284378 1.0
C      1  0.4491979438169  0.3730048436832  0.6245414539257 1.0
C      1  0.1828173342015  0.3446225191514  0.3919709458776 1.0
C      1  0.1768555128041  0.3184115721516  0.6158831882744 1.0
C      1  0.3238106180367  0.3345375283193  0.7889054703608 1.0
C      1  0.5490912002301  0.3284941323236  0.8261355280630 1.0
C      1  0.7518197648993  0.3360194245915  0.7234050196634 1.0
C      1  0.8301416689650  0.3262875620758  0.5100634376885 1.0
C      1  0.7752595699306  0.3424038218142  0.2883875109291 1.0
C      1  0.5767810829485  0.3734694780397  0.1705007319969 1.0
C      1  0.3394869044572  0.3504203734867  0.2275812163779 1.0
C      1  0.3449724462226  0.7548203108408  0.3009296825718 1.0
C      1  0.2440666501561  0.7151024910922  0.4438429364847 1.0
C      1  0.2701996164617  0.6984265471066  0.6373645198013 1.0
C      1  0.4261775410137  0.7087387452036  0.7501355377168 1.0
C      1  0.5908611303070  0.7140619665312  0.7432017418470 1.0
C      1  0.7366929376313  0.7156636326682  0.6179523651411 1.0
C      1  0.7689738428158  0.7152266604128  0.4559905387402 1.0
C      1  0.6767308624975  0.7138410504703  0.2859183622519 1.0
C      1  0.4906067535586  0.7376099344308  0.2340708354981 1.0
C      1  0.5429736269795  0.6860532422179  0.3763476355894 1.0
C      1  0.4834766307587  0.6059681263884  0.3952867883660 1.0
C      1  0.4290897013218  0.6553287085991  0.4515978399578 1.0
C      1  0.3706823838345  0.6505748824866  0.5276638194672 1.0
C      1  0.4153813620880  0.6559063291528  0.6071577248601 1.0
C      1  0.5059010045093  0.6653184106092  0.6284517355408 1.0
C      1  0.5913226933564  0.6695857455691  0.5943143736711 1.0
C      1  0.6380426154999  0.6741123765234  0.5138712878360 1.0
C      1  0.6271894914256  0.6768300886325  0.4243435815574 1.0
C      1  0.1417034711721  0.3977152158009  0.4635763758304 1.0
C      1  0.1830215647106  0.3855601346920  0.6867440997397 1.0
C      1  0.3855537334247  0.3943725406186  0.8341440844445 1.0
C      1  0.6212579203013  0.3945567572528  0.8323862930951 1.0
C      1  0.8092636090565  0.3948549555346  0.6719431124749 1.0
C      1  0.8546859272947  0.3912282461220  0.4408525207438 1.0
C      1  0.7911342484021  0.4186070084401  0.2398346415937 1.0
C      1  0.4888317305643  0.4072105681910  0.1612585625589 1.0
C      1  0.2775727244185  0.4204035984810  0.2556089006636 1.0
C      1  0.6101779035611  0.4958689839632  0.5760116035204 1.0
C      1  0.6372445225582  0.4930425763024  0.4853255108241 1.0
C      1  0.5917217601190  0.4798435835588  0.3992739865500 1.0
C      1  0.5027139644233  0.5144668875096  0.3861541702126 1.0
C      1  0.4378912533625  0.4503718098202  0.4020923258398 1.0
C      1  0.3581889420678  0.4472381972216  0.4582920088596 1.0
C      1  0.3652658935847  0.4568920442488  0.5545513688992 1.0
C      1  0.4332434038266  0.4712945503934  0.6189249561397 1.0
C      1  0.5297670439754  0.4861210507149  0.6288496397127 1.0
C      1  0.4574014521025  0.3278616606660  0.8260378371246 1.0
C      1  0.6813323247874  0.3348272456612  0.7843785043276 1.0
C      1  0.8145150107431  0.3270155615968  0.5998996434454 1.0
C      1  0.8174392038863  0.3309956121153  0.3726813569050 1.0
C      1  0.6343269398653  0.3277790768119  0.2073718614427 1.0
C      1  0.4232132208824  0.3401231978190  0.1857533283725 1.0
C      1  0.2329571454624  0.3545051576595  0.3154087370679 1.0
C      1  0.1589463230733  0.3228012482611  0.5262797103138 1.0
C      1  0.2486318191198  0.3300419175697  0.7340642008295 1.0
C      1  0.4760731037201  0.7381607997404  0.4310582491643 1.0
C      1  0.4498027561038  0.8273363505887  0.4278785833845 1.0
END
