TITL C-21373-5286-11 -5.354 3375.00 -934.57072333 0 0 113 (Cs) n - 1
REM
REM Run started: at 2020.12.09 15:29:24 in /rds/project/t2_vol4/rds-t2-cs072/BORA/CARBON/AIRSS/Generating-Clusters/Str-Search/Higher-Symm/C100-200
REM VASP from code version vasp.5.4.4.18Apr17-6-g9f103f2a35 (build Oct 11 2019 16:45:47) gamma-only
REM
REM
REM
REM
REM ./C.cell (533062f00bc710175b3da973d35f2034)
REM AIRSS Version 0.9.1 bugfix July 2018 build 013d7b7c2542+ Fri, 06 Jul 2018 19:26:36 +0100
REM compiler GCC version 4.8.5 20150623 (Red Hat 4.8.5-39)
REM options -cpp -mtune=generic -march=x86-64 -g -O0
REM seed -1986015208 -1935449584 -1586053735 996767636 -908112943 -811691720 -540202901 -260165239 361119446 -1399651977 108772375 -2026317564
REM
REM C.POTCAR (d86ddea03c3ceb6dc662c8ad6801f873)
REM 
CELL 1.54180   15.00000   15.00000   15.00000   90.00000   90.00000   90.00000
LATT -1
SFAC C  
C      1  0.3952105521655  0.4390164039003  0.7228876193311 1.0
C      1  0.5976127250626  0.4348579486705  0.2655542812917 1.0
C      1  0.3952058807410  0.4390340325001  0.2780271909020 1.0
C      1  0.5975644311958  0.4348416374996  0.7352573914093 1.0
C      1  0.5863887213604  0.5918324845239  0.5450339099560 1.0
C      1  0.4085771751720  0.6088047903195  0.4557789648785 1.0
C      1  0.5863684508634  0.5918992160168  0.4557773436604 1.0
C      1  0.4085778981682  0.6087604616384  0.5451111376632 1.0
C      1  0.6988525027298  0.4192501534756  0.4051876949791 1.0
C      1  0.2894314367640  0.4360185754144  0.5881166762334 1.0
C      1  0.6987126670773  0.4193533247984  0.5956074520285 1.0
C      1  0.2894618365449  0.4360532982589  0.4127767404453 1.0
C      1  0.6791061034212  0.6163502302509  0.7292113974291 1.0
C      1  0.3153102934031  0.6214355813922  0.2734541242528 1.0
C      1  0.6790554703811  0.6163690738526  0.2717054016898 1.0
C      1  0.3153588575495  0.6213675719463  0.7274537258153 1.0
C      1  0.3775119170473  0.7689372838549  0.4528463831865 1.0
C      1  0.6206131511605  0.7620270282450  0.5477835258246 1.0
C      1  0.3775583730952  0.7689079721139  0.5481159600976 1.0
C      1  0.6206096216861  0.7619889092488  0.4531040857622 1.0
C      1  0.3874023242097  0.4259283575929  0.4461498021697 1.0
C      1  0.5954186268018  0.4036536266284  0.5802383433727 1.0
C      1  0.3873997970052  0.4258627879226  0.5548932308696 1.0
C      1  0.5954632500984  0.4035951254398  0.4205414327112 1.0
C      1  0.6964801321663  0.7142148782407  0.5929774708851 1.0
C      1  0.3000742654214  0.7239264242756  0.4075057461717 1.0
C      1  0.6964603812587  0.7141848976125  0.4078571968570 1.0
C      1  0.3000965896590  0.7238407020423  0.5934282265301 1.0
C      1  0.7431257947116  0.3761682390640  0.6720032036823 1.0
C      1  0.2582421224226  0.3752446782730  0.3454308403823 1.0
C      1  0.7432282620464  0.3762025010831  0.3286452424982 1.0
C      1  0.2582777225433  0.3751387840527  0.6553900895102 1.0
C      1  0.7480022860932  0.4877257928072  0.4552104342576 1.0
C      1  0.2324670456951  0.5026667242040  0.5454452793510 1.0
C      1  0.7479490039182  0.4877676709956  0.5456072551466 1.0
C      1  0.2324876387643  0.5026708090648  0.4554178401767 1.0
C      1  0.6240900968269  0.2031603007608  0.4475739407696 1.0
C      1  0.3984660375957  0.1814609551142  0.5495264477558 1.0
C      1  0.6241458247042  0.2030979990055  0.5530514958080 1.0
C      1  0.3985635519842  0.1815921696640  0.4512174372122 1.0
C      1  0.4222845309504  0.3325638794490  0.5498353337853 1.0
C      1  0.5283000577154  0.3336462519430  0.4524784364739 1.0
C      1  0.4223064383637  0.3325903405465  0.4510905472439 1.0
C      1  0.5283220388933  0.3337802036441  0.5483518021590 1.0
C      1  0.5874496675640  0.7372517626133  0.7000406002390 1.0
C      1  0.4099559936915  0.7407122791789  0.3005522225467 1.0
C      1  0.5873753657044  0.7372157745308  0.3009221124130 1.0
C      1  0.4099958487303  0.7406623111121  0.7004301323065 1.0
C      1  0.4520230494677  0.6821265102896  0.7637657498532 1.0
C      1  0.5440619371243  0.6808980740676  0.2365679031044 1.0
C      1  0.4519539509784  0.6821506965842  0.2372186062076 1.0
C      1  0.5441402022057  0.6809216753514  0.7643994123910 1.0
C      1  0.5928514061542  0.5987676043548  0.7788125990560 1.0
C      1  0.4014209316285  0.6005551645834  0.2260122786306 1.0
C      1  0.5927797376385  0.5987726978973  0.2220996149356 1.0
C      1  0.4014549234606  0.6005301371745  0.7749487853576 1.0
C      1  0.6096401261672  0.3202228359384  0.2749309718324 1.0
C      1  0.3903623747649  0.3189296550000  0.7167870867853 1.0
C      1  0.6096743716425  0.3200403567274  0.7259046648158 1.0
C      1  0.3902939453331  0.3191833822928  0.2840071225622 1.0
C      1  0.4506807549090  0.7732997231701  0.3816355926861 1.0
C      1  0.5479155797022  0.7708447817541  0.6192070134743 1.0
C      1  0.4507277145849  0.7732923916628  0.6193793781416 1.0
C      1  0.5478672114701  0.7707336599989  0.3818119806969 1.0
C      1  0.2416371510400  0.6615880503945  0.4514834535657 1.0
C      1  0.7509624839076  0.6483776242080  0.5491728702797 1.0
C      1  0.2416275053969  0.6615390184989  0.5494127647806 1.0
C      1  0.7509796692843  0.6483720603168  0.4516422259398 1.0
C      1  0.3472981940756  0.2655591198972  0.5679093075124 1.0
C      1  0.6969151147507  0.2419050069792  0.4035706422960 1.0
C      1  0.3473503833393  0.2656731757808  0.4329032786198 1.0
C      1  0.6969481610069  0.2418380569248  0.5970852323976 1.0
C      1  0.5805331967216  0.5503581030177  0.3850798782647 1.0
C      1  0.4186708458673  0.5603913197960  0.6107212374417 1.0
C      1  0.5804900396799  0.5503566020427  0.6157323345588 1.0
C      1  0.4186527414805  0.5604375411746  0.3901510080768 1.0
C      1  0.5460432980391  0.5141364353723  0.7863834575024 1.0
C      1  0.4456733323106  0.5147802034657  0.2194696592287 1.0
C      1  0.5459848757225  0.5141281191017  0.2144953813667 1.0
C      1  0.4456868738894  0.5147790609019  0.7814581121555 1.0
C      1  0.5480218195467  0.2554833369795  0.7011311257792 1.0
C      1  0.4527668087434  0.2519286498893  0.2996722177162 1.0
C      1  0.5479282077438  0.2556918622271  0.2995988800771 1.0
C      1  0.4528441088400  0.2516864618060  0.7010441800570 1.0
C      1  0.3136289649029  0.3025645930142  0.3421375215069 1.0
C      1  0.6916363095325  0.2973537263435  0.6777679571196 1.0
C      1  0.3136491485066  0.3024167866213  0.6586971702637 1.0
C      1  0.6916538096686  0.2974090712882  0.3229219148872 1.0
C      1  0.2253922454125  0.5798530439398  0.5992013922075 1.0
C      1  0.7633903218407  0.5659968001242  0.4026211566253 1.0
C      1  0.2254268043002  0.5798815938003  0.4017101325276 1.0
C      1  0.7633054919260  0.5660174551872  0.5982158820096 1.0
C      1  0.5499252315913  0.4630077446311  0.3543774452038 1.0
C      1  0.4420559323982  0.4700095238447  0.6343585007616 1.0
C      1  0.5498603440003  0.4630019521322  0.6465086517855 1.0
C      1  0.4420631317097  0.4700374118980  0.3666251337601 1.0
C      1  0.3223663303640  0.7071143712321  0.3169004554019 1.0
C      1  0.6739217744681  0.7005154298169  0.6838167568468 1.0
C      1  0.3223976628660  0.7070406660057  0.6840399359565 1.0
C      1  0.6738892428283  0.7005521530970  0.3170353013672 1.0
C      1  0.2645929384326  0.5556596908081  0.6854172798845 1.0
C      1  0.7263481514852  0.5486986148482  0.3147458580523 1.0
C      1  0.2645918841681  0.5557099440487  0.3154641657410 1.0
C      1  0.7262716413707  0.5486616518962  0.6860898419719 1.0
C      1  0.6956195874702  0.4557428589352  0.2986427075803 1.0
C      1  0.2960026590483  0.4600119076242  0.6928609413745 1.0
C      1  0.6955421292467  0.4556994415087  0.7021211977526 1.0
C      1  0.2959975794927  0.4600454206823  0.3080154823430 1.0
C      1  0.5535937110050  0.1955337893979  0.6213778430330 1.0
C      1  0.4582719768167  0.1803308178245  0.3777608133451 1.0
C      1  0.5535306259001  0.1955740998485  0.3792372395874 1.0
C      1  0.4583219408823  0.1802740401980  0.6228647332838 1.0
C      1  0.5518696386196  0.4316279389989  0.5003667295513 1.0
END
