TITL C-21800-7154-36 -6.007 3375.00 -1067.76223958 0 0 130 (C1) n - 1
REM
REM Run started: at 2021.01.03 10:04:29 in /gpfs/home/chem/mssmkc/CARBON/AIRSS/Generating-Clusters/Str-Search/Higher-Symm/C100-200
REM VASP from code version vasp.5.4.4.18Apr17-6-g9f103f2a35 (build Oct 11 2019 16:45:47) gamma-only
REM
REM
REM
REM
REM ./C.cell (533062f00bc710175b3da973d35f2034)
REM AIRSS Version 0.9.1 bugfix July 2018 build 013d7b7c2542+ Fri, 06 Jul 2018 19:26:36 +0100
REM compiler GCC version 6.3.0
REM options -cpp -iprefix /gpfs/warwick/csc/orac/software/Core/GCCcore/6.3.0/bin/../lib/gcc/x86_64-pc-linux-gnu/6.3.0/ -mtune=generic -march=x86-64 -g -O0
REM seed -1554471712 748119998 -1757734916 -1997368796 -11247026 2126661033 -1068332830 2002060931 -1310257046 944668927 1840137925 -128698079
REM
REM C.POTCAR (d86ddea03c3ceb6dc662c8ad6801f873)
REM 
CELL 1.54180   15.00000   15.00000   15.00000   90.00000   90.00000   90.00000
LATT -1
SFAC C  
C      1  0.7205830365696  0.4238608508226  0.7630380986954 1.0
C      1  0.7311918841031  0.2322629665986  0.6141114834996 1.0
C      1  0.7145111064695  0.2457559319460  0.3707919986167 1.0
C      1  0.7138637513540  0.4315951096662  0.2347276667052 1.0
C      1  0.7132336394324  0.6655415375541  0.2884985410146 1.0
C      1  0.7049693524391  0.7683159240370  0.5046770909632 1.0
C      1  0.6925572188201  0.6538789707392  0.7116248750638 1.0
C      1  0.5320099026246  0.8598515011603  0.4548201812521 1.0
C      1  0.5206261876639  0.7314140861446  0.7345152335186 1.0
C      1  0.5478706614020  0.4398512363595  0.8526933226744 1.0
C      1  0.5642380251974  0.2412326192655  0.6601125583580 1.0
C      1  0.5371072921420  0.1781250874036  0.3902081797571 1.0
C      1  0.5300897070173  0.3666502991517  0.1726219703014 1.0
C      1  0.5485680284136  0.6839177341219  0.1811061395742 1.0
C      1  0.7088309486596  0.7284967019997  0.3566045090994 1.0
C      1  0.6900774184123  0.7454344175029  0.5933025235348 1.0
C      1  0.7006047642323  0.5756521539871  0.7592297112986 1.0
C      1  0.7216897756053  0.3360838681509  0.7319797921375 1.0
C      1  0.7262065768137  0.2141511361820  0.5211942819352 1.0
C      1  0.7150608748967  0.3002476438581  0.2986989502840 1.0
C      1  0.7070367570021  0.5237650472698  0.2327063637563 1.0
C      1  0.6095292691389  0.2923190480116  0.2836617002617 1.0
C      1  0.6227519960444  0.5216894097446  0.1898996344681 1.0
C      1  0.6313483990666  0.7753231582067  0.3213008658465 1.0
C      1  0.6099231080704  0.7981917860902  0.6072333698772 1.0
C      1  0.6188020940480  0.5935756023634  0.8111301371454 1.0
C      1  0.6405988680630  0.3130371571852  0.7803880238266 1.0
C      1  0.6384458698426  0.1662339937760  0.5349733065645 1.0
C      1  0.6524522586245  0.3867473983105  0.5612564564270 1.0
C      1  0.6013194193430  0.4423601238088  0.4920042538675 1.0
C      1  0.6154880218161  0.4390532623957  0.3881041667979 1.0
C      1  0.5679522840925  0.5198937944227  0.3818980879733 1.0
C      1  0.5179741039011  0.6757544887005  0.4719306437931 1.0
C      1  0.5657745468480  0.6116058780368  0.5247140734166 1.0
C      1  0.5049980746764  0.4531272596380  0.6685322833189 1.0
C      1  0.5003931733050  0.4093093612303  0.5122462172659 1.0
C      1  0.4802183512823  0.3921859789624  0.3548408055986 1.0
C      1  0.4713659823670  0.4958695839147  0.3568931617565 1.0
C      1  0.4489027628346  0.6435231656387  0.4252816335118 1.0
C      1  0.5289913357806  0.5981338783819  0.6106281955999 1.0
C      1  0.4743167541386  0.5232157188973  0.6095934988406 1.0
C      1  0.5170997187038  0.3863611985236  0.6058163369635 1.0
C      1  0.7569206241414  0.3144391784065  0.6454332501874 1.0
C      1  0.7539303498414  0.2732735324406  0.4542619083499 1.0
C      1  0.7537063423055  0.3874170885186  0.3046686884465 1.0
C      1  0.7424578531715  0.5786166442590  0.3024127575511 1.0
C      1  0.7361395009532  0.7028815968403  0.4444258222164 1.0
C      1  0.7229336677331  0.6620241674311  0.6251463853291 1.0
C      1  0.7390329435164  0.5005948188295  0.7127022426093 1.0
C      1  0.1251340341379  0.5830956422865  0.6051378856251 1.0
C      1  0.1850734918811  0.5106555866435  0.6059452591972 1.0
C      1  0.1507711772715  0.4261745035034  0.5760168834094 1.0
C      1  0.1569409732931  0.4277451349080  0.4901510102568 1.0
C      1  0.1764512749860  0.4644112768284  0.4060128231712 1.0
C      1  0.1243652284501  0.5401904547371  0.4073338270586 1.0
C      1  0.0920401063577  0.6045565431567  0.5296805824996 1.0
C      1  0.6290786824170  0.4080275736373  0.8047187498154 1.0
C      1  0.6411093142271  0.1855791381291  0.6266726274359 1.0
C      1  0.6154935062230  0.2320179468598  0.3615489768631 1.0
C      1  0.6106716784959  0.4230744670266  0.2100761615373 1.0
C      1  0.6234873297034  0.7004852621211  0.2533315472252 1.0
C      1  0.6127545651800  0.8174673893919  0.5082912478746 1.0
C      1  0.6024830353263  0.6743347329908  0.7539178018201 1.0
C      1  0.5536596114426  0.7593417173258  0.4571153340622 1.0
C      1  0.5285843901831  0.6415464466367  0.6913338962735 1.0
C      1  0.5607157736124  0.4635411307592  0.7476780830089 1.0
C      1  0.5941401995384  0.3329274310277  0.6110382661580 1.0
C      1  0.5673792990684  0.2692878607587  0.4387466034765 1.0
C      1  0.5801569730956  0.3861387292278  0.3128351162728 1.0
C      1  0.5489956866020  0.6372372350348  0.2761994119450 1.0
C      1  0.7574719614149  0.5856443861318  0.5684983021289 1.0
C      1  0.7613388373676  0.4996770073537  0.6161610521731 1.0
C      1  0.7529252924830  0.3963475025239  0.5728060690944 1.0
C      1  0.7773372658755  0.3705403358505  0.4708988620356 1.0
C      1  0.7725006949827  0.4340799672914  0.3946000016823 1.0
C      1  0.7687006434312  0.5403711366479  0.3924733698438 1.0
C      1  0.7615050488944  0.6060287258145  0.4678351248380 1.0
C      1  0.4911153199686  0.3366340090793  0.4421140170979 1.0
C      1  0.4029599507237  0.3532302278397  0.3038506783689 1.0
C      1  0.4117942365160  0.5158333801956  0.2668809709431 1.0
C      1  0.3980940603099  0.7166077878021  0.3651929417290 1.0
C      1  0.3676470142308  0.7687213815802  0.5922280254830 1.0
C      1  0.3827051372555  0.5049271006188  0.7720897023889 1.0
C      1  0.4020564650223  0.3261629216999  0.7408832243696 1.0
C      1  0.5404127918834  0.5335777485632  0.8213642909488 1.0
C      1  0.5611821398926  0.2689202614439  0.7563466541632 1.0
C      1  0.5520304915081  0.1832020686745  0.4885956018836 1.0
C      1  0.5270366547434  0.2861062953399  0.2217137892448 1.0
C      1  0.5471488846321  0.5799848471676  0.1873072969061 1.0
C      1  0.5463648929367  0.8051481249121  0.3662705996902 1.0
C      1  0.5275203969686  0.7949078161363  0.6558006359195 1.0
C      1  0.3948160552527  0.4116741395813  0.7918461200203 1.0
C      1  0.3951042247785  0.2989429947487  0.6511204726475 1.0
C      1  0.4170150512090  0.2617466541897  0.4533905754135 1.0
C      1  0.3783842411661  0.4239077835870  0.2367457786198 1.0
C      1  0.3821801171544  0.6660550178009  0.2827797749271 1.0
C      1  0.3631121650078  0.7925174215177  0.4998012779756 1.0
C      1  0.3634289574136  0.6399789668384  0.6962792050183 1.0
C      1  0.4714215194322  0.3817876582010  0.8461427866579 1.0
C      1  0.4661295864371  0.2336652741668  0.6178450606215 1.0
C      1  0.4498514033409  0.2168123352271  0.3607202734200 1.0
C      1  0.4548007770085  0.4302578831700  0.1680262580570 1.0
C      1  0.4721164961857  0.7025348835280  0.2500543724519 1.0
C      1  0.4494345296409  0.8443984492763  0.5096337916917 1.0
C      1  0.4459725058155  0.6530525747250  0.7492288920415 1.0
C      1  0.3441808502215  0.3216179223522  0.4894648249782 1.0
C      1  0.3127826400004  0.3949686255365  0.3047486797469 1.0
C      1  0.3497511665047  0.5840826268754  0.2991210006223 1.0
C      1  0.3350684756297  0.7264577083181  0.4392971410488 1.0
C      1  0.3342568876092  0.6862581647554  0.6192426971381 1.0
C      1  0.3356112787777  0.5508379804930  0.6980483649829 1.0
C      1  0.3518402077565  0.3475243696080  0.5819368513183 1.0
C      1  0.2965924922661  0.6202564016017  0.5572053633520 1.0
C      1  0.2868693942990  0.5273641184331  0.6071741166210 1.0
C      1  0.3377605447525  0.4483488011700  0.5539997854259 1.0
C      1  0.3094381361738  0.4051107285670  0.4650772796770 1.0
C      1  0.2781017563584  0.4553540546276  0.3847902352352 1.0
C      1  0.3220857366474  0.5573860226874  0.3947985827829 1.0
C      1  0.2976031483852  0.6363906094527  0.4648429090655 1.0
C      1  0.4486687585022  0.5688305572953  0.8060182380563 1.0
C      1  0.4805166782011  0.3003451560309  0.7933920879338 1.0
C      1  0.4654928878539  0.2089726689887  0.5305549178628 1.0
C      1  0.4457909029154  0.2647357079565  0.2807239896299 1.0
C      1  0.4679614035525  0.5226676868242  0.1862028742723 1.0
C      1  0.4669674634480  0.7735792589633  0.3190143736584 1.0
C      1  0.4511679187222  0.8196466540667  0.6055269651770 1.0
C      1  0.5878108499062  0.5402604489926  0.4750182725910 1.0
C      1  0.0690956264801  0.5970313204037  0.4428955472524 1.0
C      1  0.4193217557700  0.5450386052832  0.4313563617714 1.0
C      1  0.4317911139689  0.4872154316143  0.5235629144661 1.0
END
