TITL C-21800-7154-20 -6.728 3375.00 -1208.89102823 0 0 150 (Cs) n - 1
REM
REM Run started: at 2021.01.02 21:48:45 in /gpfs/home/chem/mssmkc/CARBON/AIRSS/Generating-Clusters/Str-Search/Higher-Symm/C100-200
REM VASP from code version vasp.5.4.4.18Apr17-6-g9f103f2a35 (build Oct 11 2019 16:45:47) gamma-only
REM
REM
REM
REM
REM ./C.cell (533062f00bc710175b3da973d35f2034)
REM AIRSS Version 0.9.1 bugfix July 2018 build 013d7b7c2542+ Fri, 06 Jul 2018 19:26:36 +0100
REM compiler GCC version 6.3.0
REM options -cpp -iprefix /gpfs/warwick/csc/orac/software/Core/GCCcore/6.3.0/bin/../lib/gcc/x86_64-pc-linux-gnu/6.3.0/ -mtune=generic -march=x86-64 -g -O0
REM seed -538735229 1437679072 33064864 873318108 1415666397 -17973168 2066524905 1340419189 -69032313 835954564 -1266430785 1033907682
REM
REM C.POTCAR (d86ddea03c3ceb6dc662c8ad6801f873)
REM 
CELL 1.54180   15.00000   15.00000   15.00000   90.00000   90.00000   90.00000
LATT -1
SFAC C  
C      1  0.1676645038894  0.2938353247270  0.3825503139030 1.0
C      1  0.8323089405299  0.7061377644656  0.3826367985846 1.0
C      1  0.1676650795050  0.7061707100100  0.3825581943354 1.0
C      1  0.8323058900270  0.2938639717040  0.3826271040343 1.0
C      1  0.7351338190615  0.2800138315806  0.4084899162868 1.0
C      1  0.2648859978110  0.7197993456441  0.4086255200745 1.0
C      1  0.7351350699890  0.7199899572693  0.4084999610913 1.0
C      1  0.2648841722139  0.2802048015113  0.4086145966583 1.0
C      1  0.5473905013342  0.7033384243618  0.5970614613815 1.0
C      1  0.4525675432232  0.2968081460325  0.5970875325441 1.0
C      1  0.5473904825557  0.2966564251778  0.5970550270881 1.0
C      1  0.4525679783752  0.7031849435905  0.5970922476614 1.0
C      1  0.5459845024280  0.6046196481767  0.8317503911155 1.0
C      1  0.4534065285341  0.3954010089232  0.8316739523208 1.0
C      1  0.5459825628288  0.3953728009489  0.8317454564901 1.0
C      1  0.4534086311824  0.6045908532404  0.8316776632095 1.0
C      1  0.4015280550529  0.6386305127916  0.6613550246022 1.0
C      1  0.5981470456517  0.3612315934121  0.6615187590964 1.0
C      1  0.4015278270192  0.3613623840946  0.6613491280821 1.0
C      1  0.5981481494030  0.6387605908246  0.6615222812714 1.0
C      1  0.3223294779695  0.7889583592892  0.3658567171849 1.0
C      1  0.6776302383928  0.2108960771315  0.3656956121619 1.0
C      1  0.3223283094792  0.2110455148537  0.3658424191721 1.0
C      1  0.6776343620679  0.7891096059255  0.3657065646521 1.0
C      1  0.5510474611486  0.6960526423546  0.4340122208057 1.0
C      1  0.4490766327940  0.3039683537225  0.4338704478385 1.0
C      1  0.5510466696781  0.3039465459985  0.4340060412864 1.0
C      1  0.4490766852349  0.6960333494665  0.4338817642272 1.0
C      1  0.4530146676591  0.7258890582613  0.3342665654957 1.0
C      1  0.5469727648134  0.2740589350863  0.3343337035782 1.0
C      1  0.4530130599124  0.2741195738892  0.3342574356607 1.0
C      1  0.5469737365097  0.7259466201224  0.3343386903638 1.0
C      1  0.5861285567635  0.7433516440830  0.5162651219991 1.0
C      1  0.4140870113965  0.2569034259694  0.5161919749969 1.0
C      1  0.5861290155161  0.2566460975700  0.5162574070265 1.0
C      1  0.4140878556234  0.7430988974633  0.5162026454083 1.0
C      1  0.6864467628074  0.3390585056611  0.2542325530432 1.0
C      1  0.3134788505829  0.6609300247933  0.2542616146345 1.0
C      1  0.6864513723319  0.6609518010659  0.2542399403236 1.0
C      1  0.3134787742134  0.3390807365926  0.2542549533405 1.0
C      1  0.2996156823321  0.6146453398763  0.6617843088071 1.0
C      1  0.6999858986324  0.3853532904316  0.6619710541005 1.0
C      1  0.2996143933062  0.3853521771361  0.6617805848515 1.0
C      1  0.6999873808997  0.6146408357611  0.6619736090424 1.0
C      1  0.4579050939430  0.1092797106011  0.3906262452685 1.0
C      1  0.5417262848255  0.8905706580449  0.3906104806704 1.0
C      1  0.4579094907642  0.8907232749205  0.3906461945651 1.0
C      1  0.5417243038589  0.1094363259214  0.3905982460184 1.0
C      1  0.4469861528012  0.4454126613578  0.6180137634276 1.0
C      1  0.5527944104861  0.5546458347276  0.6180710556684 1.0
C      1  0.4469848314208  0.5545822088698  0.6180154126910 1.0
C      1  0.5527919133504  0.4453480153156  0.6180691090414 1.0
C      1  0.4081267734999  0.3970171984227  0.4334269793219 1.0
C      1  0.5918037033214  0.6029840125744  0.4334060376427 1.0
C      1  0.4081269547250  0.6029828726443  0.4334295271105 1.0
C      1  0.5918024325513  0.3970157939507  0.4334031317514 1.0
C      1  0.3738926847360  0.8525474686392  0.4145918482578 1.0
C      1  0.6257044002718  0.1476719567830  0.4145220828272 1.0
C      1  0.3738919258009  0.1474547081394  0.4145673958208 1.0
C      1  0.6257066857760  0.8523294348244  0.4145398137796 1.0
C      1  0.8867616504764  0.5465974927572  0.5011046743084 1.0
C      1  0.1129085829700  0.4533690819900  0.5010406179599 1.0
C      1  0.8867603733203  0.4533989859775  0.5011021100533 1.0
C      1  0.1129087596367  0.5466312190255  0.5010421250217 1.0
C      1  0.3847500284855  0.5503196042999  0.8642864371801 1.0
C      1  0.6145926240106  0.4496660252092  0.8644369725433 1.0
C      1  0.3847490808421  0.4496724587968  0.8642853835272 1.0
C      1  0.6145938605085  0.5503251515101  0.8644402266592 1.0
C      1  0.1454050091794  0.3930535031351  0.5649111562084 1.0
C      1  0.8541199409118  0.6068665290045  0.5649872222789 1.0
C      1  0.1454046044000  0.6069454028303  0.5649154061675 1.0
C      1  0.8541173830408  0.3931291055807  0.5649838445290 1.0
C      1  0.7666745713340  0.3960346648855  0.2929869516589 1.0
C      1  0.2332309075171  0.6039347836223  0.2930000330226 1.0
C      1  0.7666761387839  0.6039727370594  0.2929917901963 1.0
C      1  0.2332327214792  0.3960708561787  0.2929968418214 1.0
C      1  0.4507350635061  0.4169029339457  0.2542178425720 1.0
C      1  0.5491645830571  0.5831288998905  0.2542313142854 1.0
C      1  0.4507344232405  0.5831059466321  0.2542216776861 1.0
C      1  0.5491635123611  0.4168795672368  0.2542262276473 1.0
C      1  0.6224254476040  0.6109720611025  0.2130131478213 1.0
C      1  0.3774572790009  0.3891025983046  0.2129783081576 1.0
C      1  0.6224224994452  0.3890396353949  0.2130078440468 1.0
C      1  0.3774543146372  0.6109099245382  0.2129821224666 1.0
C      1  0.5558838384526  0.3357936597590  0.7512536771404 1.0
C      1  0.4436282591732  0.6641246408505  0.7511461402122 1.0
C      1  0.5558837935619  0.6641982992908  0.7512579491973 1.0
C      1  0.4436244933254  0.3358680476315  0.7511403436068 1.0
C      1  0.1509050969734  0.6204415432857  0.3419297384603 1.0
C      1  0.8490159215481  0.3795477523243  0.3419614438610 1.0
C      1  0.1509048879668  0.3795647426239  0.3419261553309 1.0
C      1  0.8490164023497  0.6204550900713  0.3419654056517 1.0
C      1  0.8211832393761  0.6916396889203  0.5500395267549 1.0
C      1  0.1783042414145  0.3082257172208  0.5500046062855 1.0
C      1  0.8211785791134  0.3083574701714  0.5500314246796 1.0
C      1  0.1783048263723  0.6917728832638  0.5500133930080 1.0
C      1  0.7004918919318  0.5498662723825  0.8235968553996 1.0
C      1  0.2988705805944  0.4501108189363  0.8234116737485 1.0
C      1  0.7004893250167  0.4501258060108  0.8235937662554 1.0
C      1  0.2988706660879  0.5498835360084  0.8234134270923 1.0
C      1  0.8120399281842  0.7331157773482  0.4678564184839 1.0
C      1  0.1878072241725  0.2669145114970  0.4677931347908 1.0
C      1  0.8120365666766  0.2668832863566  0.4678487401108 1.0
C      1  0.1878076544605  0.7330879416092  0.4678021449574 1.0
C      1  0.3946727945690  0.1186552021888  0.5874179908724 1.0
C      1  0.6117957946615  0.8830555761256  0.5884016736429 1.0
C      1  0.3946364831919  0.8813363658382  0.5874525212078 1.0
C      1  0.6118380311427  0.1169279055674  0.5883910697275 1.0
C      1  0.7221815784136  0.4511883690024  0.7299455319816 1.0
C      1  0.2773606816061  0.5487839034174  0.7297283033211 1.0
C      1  0.7221828689440  0.5488052034749  0.7299477830447 1.0
C      1  0.2773597500460  0.4512118739674  0.7297275194240 1.0
C      1  0.4482915310268  0.4482443265521  0.3533842838008 1.0
C      1  0.5516751703040  0.5517447939389  0.3533524029452 1.0
C      1  0.4482906110633  0.5517615867488  0.3533858004615 1.0
C      1  0.5516741700536  0.4482602614272  0.3533503296828 1.0
C      1  0.2750070475599  0.4527461256323  0.3629351354903 1.0
C      1  0.7249402260021  0.5472871557972  0.3629689354902 1.0
C      1  0.2750064689309  0.5472596765533  0.3629370983287 1.0
C      1  0.7249401772258  0.4527170409191  0.3629659178623 1.0
C      1  0.3787655770236  0.1719476864009  0.5119045740977 1.0
C      1  0.6212535827296  0.8280446551145  0.5119182402537 1.0
C      1  0.3787664701725  0.8280531988962  0.5119270260813 1.0
C      1  0.6212590149777  0.1719549612731  0.5119067406041 1.0
C      1  0.5528875931910  0.5513478177006  0.5125299973493 1.0
C      1  0.4470416456993  0.4486693702450  0.5125090284282 1.0
C      1  0.5528869691331  0.4486511127166  0.5125292414743 1.0
C      1  0.4470412277052  0.5513307389364  0.5125087261064 1.0
C      1  0.2275918322275  0.6378819658441  0.6100621228160 1.0
C      1  0.7719337687491  0.3622310575512  0.6101239013018 1.0
C      1  0.2275922739846  0.3621169432068  0.6100580199560 1.0
C      1  0.7719358281432  0.6377643741566  0.6101272747289 1.0
C      1  0.5456519449550  0.0946119489593  0.6331795484753 1.0
C      1  0.4554425318487  0.9076606315487  0.6376429021805 1.0
C      1  0.5456360034936  0.9053862984391  0.6332234896300 1.0
C      1  0.4554516093751  0.0923157688970  0.6376204504463 1.0
C      1  0.3619611553554  0.7381404584695  0.2956484964598 1.0
C      1  0.6379811414838  0.2618344896772  0.2955942553256 1.0
C      1  0.3619590064886  0.2618686067336  0.2956354372636 1.0
C      1  0.6379817511986  0.7381745538560  0.2956040651892 1.0
C      1  0.1108555441618  0.5480746507646  0.3974878251092 1.0
C      1  0.8889894554431  0.4519414636120  0.3975554073747 1.0
C      1  0.1108552700256  0.4519310000346  0.3974864248632 1.0
C      1  0.8889895418264  0.5480595851926  0.3975570192394 1.0
C      1  0.6899133643356  0.3818194748605  0.4159982965211 1.0
C      1  0.3100058582943  0.6181615520556  0.4160919070363 1.0
C      1  0.6899135520502  0.6181823769414  0.4160041467009 1.0
C      1  0.3100031493887  0.3818428416682  0.4160870788035 1.0
C      1  0.4996797040662  0.2549507340025  0.7445908577269 1.0
C      1  0.4996825284190  0.7450450738963  0.7446001546309 1.0
END
