TITL C-21370-9813-4 -10.144 3375.00 -1391.35728632 0 0 170 (C1) n - 1
REM
REM Run started: at 2020.12.09 10:53:14 in /rds/project/t2_vol4/rds-t2-cs072/BORA/CARBON/AIRSS/Generating-Clusters/Str-Search/Higher-Symm/C100-200
REM VASP from code version vasp.5.4.4.18Apr17-6-g9f103f2a35 (build Oct 11 2019 16:45:47) gamma-only
REM
REM
REM
REM
REM ./C.cell (533062f00bc710175b3da973d35f2034)
REM AIRSS Version 0.9.1 bugfix July 2018 build 013d7b7c2542+ Fri, 06 Jul 2018 19:26:36 +0100
REM compiler GCC version 4.8.5 20150623 (Red Hat 4.8.5-39)
REM options -cpp -mtune=generic -march=x86-64 -g -O0
REM seed -1039012884 -76516384 -737825287 -1988366273 -77970797 2088550937 -1918655669 -1657605693 -1651098472 1161674180 86368476 471949438
REM
REM C.POTCAR (d86ddea03c3ceb6dc662c8ad6801f873)
REM 
CELL 1.54180   15.00000   15.00000   15.00000   90.00000   90.00000   90.00000
LATT -1
SFAC C  
C      1  0.2071663953884  0.5185521389571  0.2942251139122 1.0
C      1  0.1211837037615  0.5539267255905  0.2725018292690 1.0
C      1  0.2312640653577  0.7804559071989  0.4522234048874 1.0
C      1  0.1812978796580  0.7891183676780  0.6162073412992 1.0
C      1  0.1314499711622  0.8241815818477  0.6823762002369 1.0
C      1  0.2426269120074  0.5279734584357  0.7834938456234 1.0
C      1  0.1797095424507  0.3743094943795  0.7465352302300 1.0
C      1  0.1764872867052  0.2895916935738  0.7259182664451 1.0
C      1  0.2340974114930  0.1731514473972  0.4937200426530 1.0
C      1  0.2745797649310  0.2523711463908  0.3466537344687 1.0
C      1  0.3024505135308  0.3084606907820  0.2836620058984 1.0
C      1  0.0026271385023  0.6442808450306  0.4974620601433 1.0
C      1  0.0303779472580  0.5617896627676  0.5430577238021 1.0
C      1  0.9844603607049  0.5378573168909  0.6244192762654 1.0
C      1  0.9556820269866  0.4574495052746  0.6616642835518 1.0
C      1  0.9439833378054  0.3626089250848  0.6438415868341 1.0
C      1  0.9388841471173  0.3127804962355  0.5669746369891 1.0
C      1  0.9486785291593  0.3277623020855  0.4700127647010 1.0
C      1  0.9665669683192  0.3825958252244  0.3975935060845 1.0
C      1  0.9863033143633  0.4703022175091  0.3468735500022 1.0
C      1  0.0290946394863  0.5630933008687  0.3304055455839 1.0
C      1  0.0080464070346  0.6436159909418  0.4014276637159 1.0
C      1  0.2498804577274  0.2125619147363  0.4158418876610 1.0
C      1  0.3277281260410  0.3709346963092  0.2345298623484 1.0
C      1  0.2656931471998  0.5133035352240  0.2123411641364 1.0
C      1  0.1237246392860  0.5652675213013  0.1743144697830 1.0
C      1  0.2781443975665  0.7996925655987  0.3794408184313 1.0
C      1  0.2024036122907  0.7783830529355  0.5295948713471 1.0
C      1  0.2014764960806  0.7668610806658  0.7117737877579 1.0
C      1  0.3027132428139  0.5800300231702  0.8247747081816 1.0
C      1  0.2037332829673  0.4534753267380  0.7649557797523 1.0
C      1  0.1873219459657  0.2104655100225  0.7019152479395 1.0
C      1  0.2248957943753  0.1360153383962  0.5672705274461 1.0
C      1  0.5887554003398  0.3353236407577  0.9643343025867 1.0
C      1  0.5827459998848  0.1567617931141  0.6533509656252 1.0
C      1  0.6277038407712  0.9214184583461  0.4767659546008 1.0
C      1  0.6758665752644  0.0093479992614  0.2283402778128 1.0
C      1  0.6481316146802  0.3361889364050  0.0312849087417 1.0
C      1  0.6432626678815  0.6610472267832 -0.0046497417623 1.0
C      1  0.5616885334228  0.8126343814440 -0.0157852365230 1.0
C      1  0.6403231654650  0.9184885169640  0.3817865024418 1.0
C      1  0.6274618893599  0.0815949141917  0.6072594977232 1.0
C      1  0.6100431046869  0.8714254217508  0.7934455459026 1.0
C      1  0.6127321641265  0.5649582071431  0.0077981902406 1.0
C      1  0.0481831286449 -0.0039735379109  0.5676138402636 1.0
C      1  0.0477806141542  0.8744534128516  0.6910315535432 1.0
C      1  0.0220395786573  0.5065312027383  0.0500989467599 1.0
C      1  0.9536963903951  0.3887276591692  0.9446886004483 1.0
C      1  0.9071467341386  0.2917270604956  0.8072367556186 1.0
C      1  0.0395988667346  0.9503484550947  0.6369733188837 1.0
C      1  0.0514013490236  0.0449000700084  0.4930093664436 1.0
C      1  0.9265651069399  0.3328936474047  0.8878805033863 1.0
C      1  0.9842862395146  0.4475106620551  0.0002839036310 1.0
C      1  0.0576044178034  0.5519441864873  0.1129851361857 1.0
C      1  0.0604423383688  0.0915382204361  0.4219926815928 1.0
C      1  0.2351944739517 -0.0006907529947  0.7772435203450 1.0
C      1  0.4220561472973  0.8936998429379  0.0324547529166 1.0
C      1  0.2519040582294  0.5574319790170  0.0545274630474 1.0
C      1  0.3385173601052  0.2845123157982  0.0434181987927 1.0
C      1  0.2447287870587  0.9320446356895  0.8330010494292 1.0
C      1  0.3578146956652  0.0384187709562  0.4037825013503 1.0
C      1  0.4023054867102  0.9131939042426  0.2071306060339 1.0
C      1  0.3796906590038  0.3622778785978  0.0473990742459 1.0
C      1  0.2972199491850  0.5479914372258  0.9850409971373 1.0
C      1  0.4016734804641  0.9176500181283  0.1211997086750 1.0
C      1  0.3701959451341  0.0898500619802  0.3343087010089 1.0
C      1  0.5101541271739  0.8785834783001  0.6781039263371 1.0
C      1  0.4040524226703  0.7221977286309  0.8050964152081 1.0
C      1  0.3954187494330  0.4514100362418  0.8912701834747 1.0
C      1  0.4876384811784  0.3403929090815  0.8272335633254 1.0
C      1  0.2217846018650  0.0592350513976  0.7170821045323 1.0
C      1  0.4953493527259  0.1616804097117  0.4068698079170 1.0
C      1  0.5607780913992  0.1401727485258  0.1905015721284 1.0
C      1  0.3909916344141  0.4438899888180  0.1023840941490 1.0
C      1  0.4691114382241  0.6426727142675  0.0482361796238 1.0
C      1  0.4056497729469  0.8812094380172  0.2944067318226 1.0
C      1  0.4662251810816  0.9144316567473  0.4464424466896 1.0
C      1  0.6973277397852  0.0139484898513  0.5970720721566 1.0
C      1  0.7301227016096  0.9311263973425  0.3512673278220 1.0
C      1  0.8799798495696  0.1726826163485  0.0446495616260 1.0
C      1  0.6820878867285  0.4977486931907  0.9878351310735 1.0
C      1  0.7167514158710  0.7961963770065  0.0476245905057 1.0
C      1  0.7496483214162  0.9960115498096  0.2837668136966 1.0
C      1  0.7052477202963  0.9455341030823  0.5314307671634 1.0
C      1  0.6741483558951  0.9237743876107  0.7698022163416 1.0
C      1  0.7163066409168  0.7004949925094  0.0511858594068 1.0
C      1  0.7021108686395  0.4154583485692  0.0425194296733 1.0
C      1  0.8713169082786  0.1477855061483  0.8747934549506 1.0
C      1  0.8768932734371  0.1604498244919  0.9603105247211 1.0
C      1  0.7660620854557  0.0255942518560  0.6680724177331 1.0
C      1  0.7982154406542  0.8912449815949  0.4053741222279 1.0
C      1  0.8864076513615  0.2009058021642  0.1274168958171 1.0
C      1  0.7469512926238  0.5137070887798  0.9228175544004 1.0
C      1  0.7793153955615  0.6593950073986  0.1092386448789 1.0
C      1  0.8152635256991  0.0581928879533  0.3073868252042 1.0
C      1  0.7888114033155  0.8997219275024  0.5009275873745 1.0
C      1  0.7347151243499  0.9779905884517  0.7396927345135 1.0
C      1  0.6398319668114  0.8304136485747  0.0325633036017 1.0
C      1  0.7746735662915  0.4226163423218  0.0963471135349 1.0
C      1  0.8282877936127  0.0952779422442  0.6629835381486 1.0
C      1  0.8524170402353  0.1198464154059  0.3474573170609 1.0
C      1  0.8909681546226  0.2333844187635  0.2042701563305 1.0
C      1  0.8962026416509  0.4837487093770  0.2038233836490 1.0
C      1  0.8387387394127  0.6314384572140  0.1589876720010 1.0
C      1  0.8609633629289  0.8346383233366  0.3655383500019 1.0
C      1  0.8572758024115  0.8527366143175  0.5438137548474 1.0
C      1  0.9816479401107  0.8282794832623  0.7313751374903 1.0
C      1  0.8913993204614  0.6945140270983  0.7934800976671 1.0
C      1  0.8086975500670  0.5151230192952  0.8665720145062 1.0
C      1  0.8866513193123  0.1960897773643  0.7977126960134 1.0
C      1  0.9600877975302  0.6168231762912  0.2738489544446 1.0
C      1  0.9582458084636  0.6917361104814  0.3351119151941 1.0
C      1  0.9635025270275  0.7155495084437  0.5559677083369 1.0
C      1  0.9562492790695  0.6969647913334  0.6485602734875 1.0
C      1  0.9483915320218  0.6087527591083  0.6760611605252 1.0
C      1  0.9079762248878  0.4513336486705  0.7457499842650 1.0
C      1  0.9101294709850  0.3548978070566  0.7369044249336 1.0
C      1  0.8983418417716  0.2251654915912  0.5503830791945 1.0
C      1  0.9070658362673  0.2388835293123  0.4545911369910 1.0
C      1  0.9324434162635  0.3478091986937  0.3126093510964 1.0
C      1  0.9390940900678  0.4361224695212  0.2731688064400 1.0
C      1  0.5289475825882  0.1546644666576  0.4814024674833 1.0
C      1  0.5273101154222  0.8400714384027  0.7618206469235 1.0
C      1  0.4760928839563  0.7021973843642 -0.0332615929974 1.0
C      1  0.4625367062466  0.4767263075121  0.0456587356346 1.0
C      1  0.5556938676842  0.2165604945411  0.7185835500639 1.0
C      1  0.5193402522580  0.9068726233133  0.6010409685909 1.0
C      1  0.5667018614942  0.9206930094199  0.3198725603712 1.0
C      1  0.6393603728891  0.2627493641003  0.0918596488881 1.0
C      1  0.4432541199225  0.4074047318268  0.9728886040268 1.0
C      1  0.4595807247589  0.7978955491631  0.0062602212836 1.0
C      1  0.5908042603286  0.9697769429403  0.2431987065704 1.0
C      1  0.4008000683520  0.9790289017975  0.4511626074420 1.0
C      1  0.2541943100137  0.7197204831454  0.7610677502144 1.0
C      1  0.3214779568395  0.6743174637999  0.7997348596593 1.0
C      1  0.3392146232468  0.5281951239685  0.9030162759362 1.0
C      1  0.4242598719736  0.4091869550444  0.8120296370962 1.0
C      1  0.2095540375470  0.1297180193255  0.6602226209469 1.0
C      1  0.4491586229584  0.1456966770284  0.3251786329626 1.0
C      1  0.4961268211300  0.1565835854966  0.2495849729108 1.0
C      1  0.3379064701536  0.4511076256841  0.1879836797162 1.0
C      1  0.2164007804442  0.5526737213930  0.1408834873159 1.0
C      1  0.3322987765932  0.8351381539237  0.3284260010882 1.0
C      1  0.8376460963440  0.4420127096867  0.1476514363338 1.0
C      1  0.9029672893613  0.5826498480990  0.2081596475859 1.0
C      1  0.9066840756679  0.7690876652983  0.3447513056704 1.0
C      1  0.9165753847523  0.7943138120431  0.5354919520625 1.0
C      1  0.9364965648507  0.7519007569445  0.7293117041152 1.0
C      1  0.8981227321796  0.6076545708134  0.7593737112065 1.0
C      1  0.8697491062016  0.5227456618823  0.7961358259574 1.0
C      1  0.8723458846596  0.1600729163605  0.7116293794108 1.0
C      1  0.8696920554478  0.1677799466496  0.6171144881018 1.0
C      1  0.8896578801113  0.2018491133210  0.3705833626319 1.0
C      1  0.9041917834212  0.2622038678655  0.2923660276532 1.0
C      1  0.6032117894856  0.2051913484477  0.1365209606782 1.0
C      1  0.5197018294858  0.5563681251514  0.0373516596403 1.0
C      1  0.4719855227080  0.7269980657824  0.0830626536121 1.0
C      1  0.4804360235216  0.8970583430601  0.3520007116724 1.0
C      1  0.5391027385301  0.9137894866243  0.5110910589600 1.0
C      1  0.4666090028772  0.7748843905790  0.7939729487453 1.0
C      1  0.5765219643685  0.7194133172371  0.9593070585170 1.0
C      1  0.5138408748969  0.3508712245106  0.9232165526761 1.0
C      1  0.5214266821506  0.2739839988254  0.7694982613202 1.0
C      1  0.5675742964874  0.1363738354756  0.5619150929010 1.0
C      1  0.5992683906847  0.0512007925797  0.1982318114593 1.0
C      1  0.1631197554041  0.5050807167018  0.4496682814099 1.0
C      1  0.2310429442117  0.4970513125736  0.3853038312847 1.0
C      1  0.1004833188294  0.5169881043876  0.5016269778051 1.0
C      1  0.3906429167563  0.4499058612070  0.4451354222061 1.0
C      1  0.3146593643812  0.4706885027519  0.4124785634887 1.0
END
