TITL C-21117-6405-51 -9.767 3375.00 -1635.10476046 0 0 197 (C1) n - 1
REM
REM Run started: at 2020.12.28 18:48:27 in /gpfs/home/chem/mssmkc/CARBON/AIRSS/Generating-Clusters/Str-Search/Higher-Symm/C100-200
REM VASP from code version vasp.5.4.4.18Apr17-6-g9f103f2a35 (build Oct 11 2019 16:45:47) gamma-only
REM
REM
REM
REM
REM ./C.cell (533062f00bc710175b3da973d35f2034)
REM AIRSS Version 0.9.1 bugfix July 2018 build 013d7b7c2542+ Fri, 06 Jul 2018 19:26:36 +0100
REM compiler GCC version 6.3.0
REM options -cpp -iprefix /gpfs/warwick/csc/orac/software/Core/GCCcore/6.3.0/bin/../lib/gcc/x86_64-pc-linux-gnu/6.3.0/ -mtune=generic -march=x86-64 -g -O0
REM seed -1971295572 182669655 353127037 -1254887618 2090339466 1111685576 95520846 -831766154 -933964701 1713833875 1609103774 -1528457653
REM
REM C.POTCAR (d86ddea03c3ceb6dc662c8ad6801f873)
REM 
CELL 1.54180   15.00000   15.00000   15.00000   90.00000   90.00000   90.00000
LATT -1
SFAC C  
C      1  0.1423163020487  0.6105627316825  0.5357342338716 1.0
C      1  0.3944139695632  0.8551802481688  0.6944796161108 1.0
C      1  0.2626505497494  0.6114130527626  0.4144161914541 1.0
C      1  0.7456978275223  0.6990374814550  0.7331646011226 1.0
C      1  0.2866349569882  0.2016784562747  0.5734178404660 1.0
C      1  0.1308055757758  0.4812815566755  0.5877118421097 1.0
C      1  0.2181085508683  0.7700940217805  0.3441996902756 1.0
C      1  0.6092543531016  0.8969981868099  0.6026390322055 1.0
C      1  0.3690193032960  0.3452624391695  0.6000193584343 1.0
C      1  0.4396747981101  0.1193581450814  0.3454917488434 1.0
C      1  0.4763651364367  0.8621190961506  0.7021802457048 1.0
C      1  0.8113622864408  0.2997400335785  0.6914139987489 1.0
C      1  0.2343909982394  0.4604351719805  0.2347094308595 1.0
C      1  0.5519067704985  0.6552209790386  0.5356980128609 1.0
C      1  0.5705620458196  0.8562799218681  0.6886568288805 1.0
C      1  0.3440214004172  0.5735900334265  0.6842201341063 1.0
C      1  0.7619543298419  0.3403900575161  0.3749853636641 1.0
C      1  0.2608001984725  0.8182681844508  0.5236205372751 1.0
C      1  0.4799654955325  0.0647291332239  0.4676766940864 1.0
C      1  0.7566043379795  0.3340532992855  0.7654188437340 1.0
C      1  0.3624884700932  0.5881866894546  0.1146542483529 1.0
C      1  0.5408316541645  0.2114547305431  0.2543484099423 1.0
C      1  0.4511853946531  0.1371090522760  0.5966760741721 1.0
C      1  0.1563963776170  0.5728888016506  0.6253701076675 1.0
C      1  0.3958430656263  0.4462600209482  0.2164982530825 1.0
C      1  0.6543282121783  0.1186929790907  0.4530581778762 1.0
C      1  0.4703902863951  0.8249244709037  0.3948011584000 1.0
C      1  0.5764837857885  0.5107910488719  0.4427850056254 1.0
C      1  0.5183411936707  0.0879766294694  0.5505430089686 1.0
C      1  0.1833111832231  0.2389916475771  0.4394943324974 1.0
C      1  0.6712025419155  0.1456780052105  0.6050572301621 1.0
C      1  0.3519039807774  0.6430233433073  0.6190111084817 1.0
C      1  0.3225919305897  0.4844243366173  0.5258424617729 1.0
C      1  0.1985028605883  0.3127924250702  0.5895040426486 1.0
C      1  0.4175347961047  0.6632267250553  0.1011743837540 1.0
C      1  0.3444140620124  0.7055134059982  0.2278086953559 1.0
C      1  0.3852574052345  0.4204482010657  0.8872863302638 1.0
C      1  0.8043510154844  0.7777151040966  0.6005504357484 1.0
C      1  0.6145292884725  0.2872361517986  0.6856705870227 1.0
C      1  0.6043557177470  0.1122951647148  0.3736676972993 1.0
C      1  0.4669134717341  0.5253596766282  0.3138018423864 1.0
C      1  0.5896640312965  0.7417191704486  0.8029981000699 1.0
C      1  0.2994737124022  0.7039345320945  0.3910627420885 1.0
C      1  0.4465592846246  0.4544815282430  0.7063381264854 1.0
C      1  0.7822651106469  0.6876341472711  0.6418795161484 1.0
C      1  0.5971045968864  0.8097880009567  0.5968382768737 1.0
C      1  0.4522162571834  0.5346786376808  0.1258875572445 1.0
C      1  0.5317603574462  0.2487561188939  0.8109886124058 1.0
C      1  0.3864745524911  0.3499091764379  0.1002324036080 1.0
C      1  0.3287211929845  0.3527449564613  0.4337000682864 1.0
C      1  0.2283731599428  0.2768925789140  0.2932935348641 1.0
C      1  0.2976649639303  0.6700464111734  0.5524427059273 1.0
C      1  0.6183761640390  0.1736035881804  0.3001279017489 1.0
C      1  0.1436580442139  0.3881095024772  0.5630879771434 1.0
C      1  0.7310783426794  0.6826744071744  0.2173152087592 1.0
C      1  0.3375667411557  0.8666869225104  0.4954917810283 1.0
C      1  0.6085140045555  0.3596490970041  0.9173334032021 1.0
C      1  0.2082872723479  0.5671184214869  0.3386118908846 1.0
C      1  0.7330457821293  0.5667830131330  0.4494385715210 1.0
C      1  0.7998828857525  0.7214928037695  0.2687302452729 1.0
C      1  0.7115222044956  0.4015486511963  0.4229467988484 1.0
C      1  0.3741369152166  0.4118130864603  0.3778231544324 1.0
C      1  0.5493754149708  0.5713012281108  0.3591289761338 1.0
C      1  0.7790766692618  0.2773751734527  0.5995353207872 1.0
C      1  0.3083903010005  0.8211482737878  0.6914948198945 1.0
C      1  0.4412056684261  0.2594969442171  0.8226657102559 1.0
C      1  0.6447090466054  0.9710228798782  0.5445425743295 1.0
C      1  0.2629713569316  0.5910296738044  0.7553005626085 1.0
C      1  0.4618343777643  0.2117468663237  0.6645595208207 1.0
C      1  0.7818198782157  0.6238253963870  0.2880172786987 1.0
C      1  0.6993469904187  0.2247380435500  0.3024124239980 1.0
C      1  0.5558472241456  0.6063883937731  0.8983507302852 1.0
C      1  0.3421706789832  0.2583614219890  0.3997061441059 1.0
C      1  0.5600264923723  0.2856809985120  0.1979217433834 1.0
C      1  0.0835476755177  0.4741892458686  0.4302712862003 1.0
C      1  0.6224265691516  0.6536648025350  0.8350849941326 1.0
C      1  0.4713015080609  0.6483052736120  0.8595343815888 1.0
C      1  0.6193193536937  0.4056917252397  0.1610138185596 1.0
C      1  0.6172555800166  0.7177513495917  0.5755585802202 1.0
C      1  0.5247042168059  0.3838696665784  0.1847746022537 1.0
C      1  0.8249271474329  0.5332291781020  0.5853660967227 1.0
C      1  0.2963819197892  0.4320728156959  0.8309820383269 1.0
C      1  0.6964756015625  0.6708138581165  0.5858822910953 1.0
C      1  0.8604947443217  0.6574503854001  0.5171978398899 1.0
C      1  0.5899853602938  0.5739622865102  0.5195337761279 1.0
C      1  0.3000837555052  0.7455079315408  0.3056723208603 1.0
C      1  0.3279359639540  0.6050221387227  0.2122632008120 1.0
C      1  0.7987924092306  0.4527472237200  0.2621633791874 1.0
C      1  0.2342484262987  0.7549863374984  0.4479007550586 1.0
C      1  0.7642021269516  0.3629412845948  0.5655394963695 1.0
C      1  0.7179972998963  0.8554880055773  0.4385276103225 1.0
C      1  0.3736059033638  0.6520185738261  0.8567627323611 1.0
C      1  0.2549309325642  0.5028356540045  0.7973409159727 1.0
C      1  0.1063550547291  0.5292431359330  0.5081056585315 1.0
C      1  0.4785185928380  0.4220208639760  0.2728435144873 1.0
C      1  0.8502950009534  0.6266751988401  0.6047206682379 1.0
C      1  0.3927021830359  0.2745584649222  0.3105680508748 1.0
C      1  0.3917183940676  0.6817825227287  0.5446867722373 1.0
C      1  0.4458269506149  0.4242341664726  0.1296994662486 1.0
C      1  0.8335786304062  0.5610574606748  0.4807453720186 1.0
C      1  0.4479214728151  0.3567245923663  0.3413952430295 1.0
C      1  0.7363571968136  0.2015926081878  0.5577596330558 1.0
C      1  0.2889643033640  0.2842081384726  0.6365653863519 1.0
C      1  0.4418372505499  0.4928605416754  0.8979062771050 1.0
C      1  0.4686530205530  0.6907141674907  0.4982187426832 1.0
C      1  0.2742089467825  0.7488642513934  0.7463725691667 1.0
C      1  0.9853199301591  0.4900711901260  0.4230724660156 1.0
C      1  0.7738363528887  0.3635649525843  0.2811182641144 1.0
C      1  0.7201319403691  0.2955026199514  0.2385497975318 1.0
C      1  0.4977353808952  0.3472319470851  0.4312874571352 1.0
C      1  0.4515687277272  0.1942229849709  0.2925293015593 1.0
C      1  0.5106559623637  0.7586685838749  0.1758004228491 1.0
C      1  0.5166826676424  0.5918608079757  0.7217202528441 1.0
C      1  0.3266855578028  0.4961647069723  0.6226800523854 1.0
C      1  0.2468834150111  0.7984072289685  0.6161554724937 1.0
C      1  0.7072219678801  0.6232284919442  0.3613483607182 1.0
C      1  0.5171541029576  0.0738184312467  0.3821229200474 1.0
C      1  0.8053932208037  0.4134094640868  0.7981267323523 1.0
C      1  0.4159074120095  0.5440457204515  0.2246405382229 1.0
C      1  0.5050635997764  0.6215922872627  0.0996526562060 1.0
C      1  0.4142775101484  0.7314189702566  0.1682451234630 1.0
C      1  0.5429150068029  0.8207961080473  0.2344087293265 1.0
C      1  0.4906310455323  0.7349731420462  0.4156865905688 1.0
C      1  0.6106305565827  0.8425696797563  0.2993439306526 1.0
C      1  0.6488643758010  0.3162791181340  0.1807862070677 1.0
C      1  0.6468256026481  0.7045691851372  0.3675246899961 1.0
C      1  0.8329640040309  0.7525140949822  0.5086936919585 1.0
C      1  0.5591742537428  0.6770021927020  0.3731612465353 1.0
C      1  0.8156586468523  0.5341475428524  0.2696404666205 1.0
C      1  0.5654459813487  0.6810924994717  0.1428389238630 1.0
C      1  0.7998688611912  0.7980775695086  0.4324587741874 1.0
C      1  0.3344026189110  0.3893695002020  0.5168936433506 1.0
C      1  0.3062689099608  0.3342663931359  0.8101877833238 1.0
C      1  0.4277271787741  0.5477349941782  0.7368096082157 1.0
C      1  0.3087673832463  0.4073123308247  0.2322362276370 1.0
C      1  0.2168516536754  0.6602548997248  0.4931511662714 1.0
C      1  0.8201207694760  0.3971100765616  0.7040258563551 1.0
C      1  0.1289913611117  0.3131622973685  0.4092060236562 1.0
C      1  0.4061206132806  0.2155328663017  0.4656941149773 1.0
C      1  0.1425416966758  0.4953506113290  0.3505714550394 1.0
C      1  0.5478227653858  0.2137415143161  0.7183427485964 1.0
C      1  0.6775207401153  0.5517400322016  0.7073387449955 1.0
C      1  0.6935467460111  0.6260286733044  0.7668596532779 1.0
C      1  0.6821123831565  0.8032944452051  0.3560872544770 1.0
C      1  0.6296953883867  0.1926407018012  0.6702125999698 1.0
C      1  0.1923957733077  0.6262791451846  0.6910902049385 1.0
C      1  0.5901510990037  0.4390616547126  0.9319157065064 1.0
C      1  0.5230980056337  0.8580674642675  0.3196339806351 1.0
C      1  0.5824341588073  0.5250655627483  0.7048753365696 1.0
C      1  0.7390218267018  0.2433164521871  0.3869931914515 1.0
C      1  0.7268415897097  0.5240725912402  0.6208478231555 1.0
C      1  0.1569023502146  0.3349601506231  0.3155237294800 1.0
C      1  0.6234756533948  0.0755664445822  0.5453142495058 1.0
C      1  0.2113446541682  0.7209334394265  0.6801304985336 1.0
C      1  0.6479793641331  0.4869545625216  0.1703142852210 1.0
C      1  0.3660343606997  0.1532224201238  0.5390454386307 1.0
C      1  0.6754983586764  0.4912895693925  0.4025066234343 1.0
C      1  0.5349816347512  0.4392667129644  0.6848765274310 1.0
C      1  0.1607265427944  0.4271825417701  0.2894499060266 1.0
C      1  0.6897148059875  0.9278367702123  0.4802471326530 1.0
C      1  0.3282872482802  0.5401324907430  0.4460883196988 1.0
C      1  0.6001817119290  0.3856246482749  0.5420250510377 1.0
C      1  0.3136009997584  0.2749097332715  0.7325381873839 1.0
C      1  0.3950984276257  0.2310443717412  0.7405869456521 1.0
C      1  0.4006388200784  0.8663637054470  0.4417184075154 1.0
C      1  0.6294712128680  0.8093523593396  0.7557633129572 1.0
C      1  0.3034096276902  0.6759973059511  0.8020547463640 1.0
C      1  0.1090718188791  0.3810465019589  0.4688001664588 1.0
C      1  0.4754071681032  0.2764924622009  0.4941577980085 1.0
C      1  0.3992061738196  0.1138182209352  0.4465122939508 1.0
C      1  0.7804201332166  0.7800977972093  0.3383863512317 1.0
C      1  0.5427437080684  0.4190951671499  0.4688916292660 1.0
C      1  0.4139926861155  0.5659732562042  0.8380454618170 1.0
C      1  0.3119102893465  0.3060958098079  0.2425350871283 1.0
C      1  0.7697639461485  0.8398620652392  0.6596687838636 1.0
C      1  0.2518954453272  0.5547745771220  0.2555036153237 1.0
C      1  0.3736572267414  0.4232106161167  0.6567889864875 1.0
C      1  0.5366140821110  0.5140752152136  0.9190563876779 1.0
C      1  0.6623548783778  0.3160448604050  0.7686193402534 1.0
C      1  0.6441464755439  0.5591036847549  0.2183592613601 1.0
C      1  0.6504511683802  0.6522977056828  0.1851294238643 1.0
C      1  0.7231263538153  0.7924775720628  0.7318909144007 1.0
C      1  0.7925772890045  0.4428013066316  0.6192785516258 1.0
C      1  0.3885590528792  0.5016121407920  0.3812190802563 1.0
C      1  0.5273582587847  0.6715657045833  0.7800774631882 1.0
C      1  0.9091265668498  0.5163615169517  0.4376169801211 1.0
C      1  0.6852557716014  0.5794731566426  0.5433503350320 1.0
C      1  0.6855011350600  0.3773561222139  0.5124757690591 1.0
C      1  0.2492229712723  0.2274334492466  0.3737590668295 1.0
C      1  0.2098675900169  0.2377777399957  0.5307211949006 1.0
C      1  0.5578809212679  0.3557199640086  0.6282186424258 1.0
C      1  0.6068425079234  0.3033758214797  0.8421024379410 1.0
C      1  0.3404658867353  0.2958378165090  0.1446083277270 1.0
C      1  0.3846387812074  0.3259516736012  0.8638677385426 1.0
C      1  0.4681792055192  0.2990342526541  0.5948068972884 1.0
C      1  0.6437422446752  0.5522820201381  0.3205813334258 1.0
C      1  0.7184068976363  0.1897378125646  0.4636015383756 1.0
END
