TITL C-219758-8596-10 -8.746 3375.00 -1547.94457545 0 0 191 (C1) n - 1
REM
REM Run started: at 2020.12.01 07:15:09 in /rds/project/t2_vol4/rds-t2-cs072/BORA/CARBON/AIRSS/Generating-Clusters/Str-Search/Higher-Symm/C100-200
REM VASP from code version vasp.5.4.4.18Apr17-6-g9f103f2a35 (build Oct 11 2019 16:45:47) gamma-only
REM
REM
REM
REM
REM ./C.cell (533062f00bc710175b3da973d35f2034)
REM AIRSS Version 0.9.1 bugfix July 2018 build 013d7b7c2542+ Fri, 06 Jul 2018 19:26:36 +0100
REM compiler GCC version 4.8.5 20150623 (Red Hat 4.8.5-39)
REM options -cpp -mtune=generic -march=x86-64 -g -O0
REM seed 300861396 953988495 1618493204 2107067941 -1704608591 1994602326 366091069 1901979947 671525459 93524865 739178587 -1016540603
REM
REM C.POTCAR (d86ddea03c3ceb6dc662c8ad6801f873)
REM 
CELL 1.54180   15.00000   15.00000   15.00000   90.00000   90.00000   90.00000
LATT -1
SFAC C  
C      1  0.3205953080116  0.3642653850899  0.3886347336843 1.0
C      1  0.2778427023841  0.5804621475506  0.3406285029469 1.0
C      1  0.3030419977524  0.6783032618383  0.5085540500793 1.0
C      1  0.2852787614624  0.5227282844246  0.6837472902390 1.0
C      1  0.3113867596521  0.3534326121658  0.6002998503363 1.0
C      1  0.6853077251701  0.3599877747313  0.3938305821707 1.0
C      1  0.7005610729213  0.5495309684414  0.3350097747057 1.0
C      1  0.6962136900936  0.6837617479080  0.5089580689743 1.0
C      1  0.6885299189910  0.5556116600858  0.6727449269482 1.0
C      1  0.6785294920544  0.3607781279927  0.6021385676626 1.0
C      1  0.4085953901297  0.6408851070784  0.2671795119297 1.0
C      1  0.4467665620825  0.7640519997773  0.5520155143809 1.0
C      1  0.4269208236805  0.5215884430535  0.7716698807702 1.0
C      1  0.4390501943073  0.2505054510704  0.6088296763055 1.0
C      1  0.4561981496477  0.3317245826561  0.3202469766786 1.0
C      1  0.5903898838088  0.6403317265723  0.2656339827513 1.0
C      1  0.5485403756508  0.7391186023149  0.5473349333883 1.0
C      1  0.5630738861925  0.5188991515717  0.7749992627763 1.0
C      1  0.5560688302263  0.2494261949057  0.6116020841715 1.0
C      1  0.5513625123973  0.3333485006741  0.3222588298199 1.0
C      1  0.4105566232019  0.1703242870440  0.3791406055994 1.0
C      1  0.4123094666222  0.4921676009338  0.1694307434421 1.0
C      1  0.3999307103917  0.8284392656113  0.3948477151673 1.0
C      1  0.4069539555109  0.7017797970645  0.7843525431453 1.0
C      1  0.4018698802614  0.2898329111712  0.7847744243790 1.0
C      1  0.5930733361835  0.1702691115302  0.3798306706051 1.0
C      1  0.5942429799854  0.4942441501677  0.1630297490900 1.0
C      1  0.5906812560620  0.8274059594348  0.3948812396548 1.0
C      1  0.6012364462503  0.6888432043713  0.8007899926132 1.0
C      1  0.5970880200109  0.2934207545125  0.7841330432384 1.0
C      1  0.8159588404658  0.7501590139335  0.4220649035365 1.0
C      1  0.8036009366433  0.6681172404188  0.7078566962515 1.0
C      1  0.8211691021438  0.3686674059082  0.6613924062383 1.0
C      1  0.7928766098579  0.2448561411820  0.4052962066036 1.0
C      1  0.8315538251829  0.5017187658104  0.2490841981709 1.0
C      1  0.1958657811361  0.7516038476727  0.4029312722973 1.0
C      1  0.1877636748407  0.6524205511392  0.7004206506291 1.0
C      1  0.1794879730202  0.3522445293477  0.7054529307394 1.0
C      1  0.2103635532569  0.2512975378621  0.4034260974230 1.0
C      1  0.1661499890950  0.5003240540517  0.2519557316689 1.0
C      1  0.2464092872552  0.7601390485326  0.4794546433162 1.0
C      1  0.2275093716135  0.5765453535179  0.7487641872680 1.0
C      1  0.2347188105931  0.2931310331565  0.6503154991891 1.0
C      1  0.2598281036697  0.2951120789268  0.3311818012854 1.0
C      1  0.2219827286628  0.5809484949521  0.2545279681424 1.0
C      1  0.7638651488004  0.7657620352440  0.5033127507368 1.0
C      1  0.7526851661101  0.6008501843042  0.7401430266536 1.0
C      1  0.7533180120413  0.2970486345918  0.6411050684393 1.0
C      1  0.7471043955340  0.2929215451804  0.3332101569153 1.0
C      1  0.7667325072093  0.5737828606199  0.2563679702260 1.0
C      1  0.5977797684109  0.5035635220864  0.8696333742736 1.0
C      1  0.5951150631617  0.1547931079239  0.6350162777039 1.0
C      1  0.6069741506321  0.3237285441391  0.1454707248514 1.0
C      1  0.6043301984267  0.7069892226055  0.1946244632066 1.0
C      1  0.6617749133673  0.9086048356020  0.6426767806418 1.0
C      1  0.3853011442918  0.5059152856575  0.8688751005056 1.0
C      1  0.3891592575346  0.1528826482949  0.6187541680310 1.0
C      1  0.4000921954320  0.3231616157092  0.1445495270848 1.0
C      1  0.3829311459702  0.7061229389258  0.1962711777388 1.0
C      1  0.4238868338664  0.8540305839809  0.5940315825337 1.0
C      1  0.7472812383563  0.6775579476920  0.2850538410035 1.0
C      1  0.7897776718916  0.7974211942054  0.6000015739248 1.0
C      1  0.7191926279937  0.4423251026697  0.7793258566033 1.0
C      1  0.7241042005519  0.2284522811055  0.5618780218889 1.0
C      1  0.7660132906543  0.3436392994216  0.2424600312520 1.0
C      1  0.2118729640346  0.6875992287494  0.2457755443094 1.0
C      1  0.3017592510959  0.7653971339678  0.6405133012108 1.0
C      1  0.2157230646200  0.4867847728512  0.8082887530232 1.0
C      1  0.2317215095239  0.2168145008416  0.5737625854448 1.0
C      1  0.2419756372640  0.3461111964021  0.2400396323639 1.0
C      1  0.1421281463063  0.5243453394357  0.4289872364634 1.0
C      1  0.1393405322467  0.5771917455310  0.5109209299085 1.0
C      1  0.1429445243374  0.5109663873371  0.5785107269024 1.0
C      1  0.1514660616787  0.4185488449919  0.5404753339137 1.0
C      1  0.1530244040172  0.4283169264668  0.4472797827260 1.0
C      1  0.8547079921233  0.5080822948469  0.4418685848818 1.0
C      1  0.8518757182864  0.5702599742248  0.5180374292939 1.0
C      1  0.8417682070760  0.5208108197510  0.5957009714918 1.0
C      1  0.8391279574449  0.4222153713988  0.5766855192739 1.0
C      1  0.8464912328362  0.4183461831842  0.4698665782380 1.0
C      1  0.5548773806397  0.4157897216406  0.4821594804090 1.0
C      1  0.5842500239099  0.4971317690834  0.4260116461111 1.0
C      1  0.5981230683002  0.5723660395471  0.4730112421357 1.0
C      1  0.5674195749157  0.5577789731427  0.5688356154898 1.0
C      1  0.5487700981106  0.4547732961175  0.5804430181267 1.0
C      1  0.4491114945864  0.4162480481096  0.4801890312358 1.0
C      1  0.4337949795303  0.5000227036228  0.4235764259569 1.0
C      1  0.4234772516520  0.5800114348616  0.4793300107072 1.0
C      1  0.4052896851336  0.5415370417978  0.5718137065676 1.0
C      1  0.4435596031942  0.4486842184924  0.5788531524748 1.0
C      1  0.3223015893293  0.8499756821058  0.5993422041251 1.0
C      1  0.2856883400710  0.5198311285577  0.8643985456479 1.0
C      1  0.2917281945753  0.1663998944172  0.6269548160081 1.0
C      1  0.3156067200119  0.3032935519025  0.1969856930260 1.0
C      1  0.2856330917880  0.6861652928433  0.1844453478262 1.0
C      1  0.7310288033066  0.8740867613723  0.5929627912413 1.0
C      1  0.6976891569106  0.4994284449591  0.8576224622656 1.0
C      1  0.6915687188608  0.1680806685133  0.6367121047297 1.0
C      1  0.6907545340537  0.3033731920452  0.1993648371000 1.0
C      1  0.7002349518992  0.6855520167461  0.1928453872544 1.0
C      1  0.5357907562826  0.8520670307590  0.3228536597373 1.0
C      1  0.5462342889103  0.7636398534291  0.8074206276724 1.0
C      1  0.5396825878112  0.3155892503782  0.8553114631524 1.0
C      1  0.5428908596724  0.1047412282597  0.4263944582760 1.0
C      1  0.5517294888286  0.4066881093530  0.1452634284722 1.0
C      1  0.4527746537869  0.8548339243444  0.3212773125633 1.0
C      1  0.4654179260099  0.7758338574064  0.7939649905320 1.0
C      1  0.4569339361551  0.3142876957635  0.8572443780425 1.0
C      1  0.4594478424784  0.1044397105917  0.4267979018276 1.0
C      1  0.4550168144864  0.4064057629278  0.1459622261108 1.0
C      1  0.3293925815690  0.2406541803417  0.7756114779394 1.0
C      1  0.3638727804244  0.1699582141126  0.3032667185116 1.0
C      1  0.3347495039536  0.5249239202566  0.1414982242554 1.0
C      1  0.3309614421087  0.8668608144255  0.4363611675620 1.0
C      1  0.3328669347616  0.6799825532710  0.8273244499056 1.0
C      1  0.6742962121794  0.2498494931223  0.7813151200033 1.0
C      1  0.6403446581508  0.1698802454146  0.3044233498801 1.0
C      1  0.6679609248248  0.5304919848209  0.1304119098836 1.0
C      1  0.6543755289506  0.8713952591699  0.4374851760911 1.0
C      1  0.6754571029051  0.6650763526985  0.8448129864970 1.0
C      1  0.8108517299070  0.7401030896006  0.6659230537702 1.0
C      1  0.7922028163632  0.4112002294831  0.7359403589842 1.0
C      1  0.7722135743894  0.2154115198988  0.4794545506551 1.0
C      1  0.8117398962314  0.4228948236273  0.2327767687554 1.0
C      1  0.8009560381372  0.7312002019665  0.3435283811022 1.0
C      1  0.2266266887832  0.7210480469779  0.6723767711653 1.0
C      1  0.1905848156163  0.4053858408245  0.7684856525329 1.0
C      1  0.2171759473950  0.2250601638707  0.4817536104174 1.0
C      1  0.1946307006594  0.4244694341860  0.2325076831299 1.0
C      1  0.1914905919309  0.7369442734737  0.3206916323973 1.0
C      1  0.3673436369589  0.7037879347566  0.5925371677928 1.0
C      1  0.3619795832334  0.4763899584472  0.7098221305218 1.0
C      1  0.3741232798561  0.2951063988175  0.5472794812323 1.0
C      1  0.3930019137433  0.3973487174279  0.3242686497948 1.0
C      1  0.3505388211479  0.6357868830146  0.3465771685450 1.0
C      1  0.6222120034736  0.6962367864183  0.5851860248939 1.0
C      1  0.6393502036136  0.4729735993588  0.7181933192294 1.0
C      1  0.6352661634868  0.2871627898894  0.5478270016545 1.0
C      1  0.6179452857792  0.3954858512523  0.3266920995843 1.0
C      1  0.6614487989883  0.6433337008406  0.3382701751985 1.0
C      1  0.6024012997519  0.4045418755373  0.6532187783866 1.0
C      1  0.6081128125474  0.3244998739601  0.4605229623863 1.0
C      1  0.6120469830310  0.4934627894148  0.3272504862276 1.0
C      1  0.6247709632292  0.6637252241068  0.4324752804045 1.0
C      1  0.6099278299642  0.6150199976738  0.6459631103664 1.0
C      1  0.3908603093250  0.3994698367595  0.6526840372942 1.0
C      1  0.3941660822544  0.3256401489613  0.4574495196766 1.0
C      1  0.4227676193451  0.4892904954476  0.3333405315828 1.0
C      1  0.3796870281494  0.6625817900918  0.4382390248430 1.0
C      1  0.4177930492288  0.6239256306655  0.6293710254497 1.0
C      1  0.4469093557322  0.0928150749551  0.6489023124610 1.0
C      1  0.4620059881996  0.2565691095283  0.1252499704428 1.0
C      1  0.4516548684633  0.7370750697848  0.1476454278247 1.0
C      1  0.4904309474811  0.8977278941718  0.6328531072919 1.0
C      1  0.4490366863161  0.5112223330882  0.9314395597966 1.0
C      1  0.5321857226262  0.0963510715339  0.6537613735252 1.0
C      1  0.5460489370479  0.2566076134222  0.1249620298387 1.0
C      1  0.5363933674616  0.7364977989814  0.1449873225597 1.0
C      1  0.5766002166289  0.9074114426512  0.6425327211374 1.0
C      1  0.5343770931031  0.5103149193421  0.9318908494350 1.0
C      1  0.4451200803926  0.3184280316850  0.6927906363210 1.0
C      1  0.4502056378262  0.2649394464023  0.3968997941642 1.0
C      1  0.4509936401465  0.5454891111104  0.2534984587739 1.0
C      1  0.4420943217988  0.7471037329376  0.4468637224014 1.0
C      1  0.4497984787846  0.6214031650703  0.7296141435695 1.0
C      1  0.5499761324507  0.3202407471790  0.6913141652741 1.0
C      1  0.5539559365269  0.2654755802930  0.3981699373024 1.0
C      1  0.5574754272054  0.5459680973918  0.2524412513640 1.0
C      1  0.5525297978255  0.7425517841819  0.4456327445985 1.0
C      1  0.5543376415357  0.6167642719549  0.7361873246381 1.0
C      1  0.7395709408488  0.5299478481023  0.5900564432366 1.0
C      1  0.7334833567271  0.4322157297268  0.5523723303757 1.0
C      1  0.7427490099178  0.4269458449191  0.4494444961228 1.0
C      1  0.7538852666057  0.5252271063579  0.4194665615028 1.0
C      1  0.7501386932608  0.5932082284313  0.5086358447766 1.0
C      1  0.2448155570659  0.5154634991151  0.5919379433987 1.0
C      1  0.2563498958986  0.4208496621472  0.5459564518060 1.0
C      1  0.2588079809652  0.4303805913765  0.4406647721246 1.0
C      1  0.2430268674277  0.5364825329583  0.4215772047738 1.0
C      1  0.2447406898435  0.5908608440735  0.5139051894026 1.0
C      1  0.7188176951442  0.5944727460307  0.1694760815734 1.0
C      1  0.7143846992333  0.8557703868580  0.4988592634919 1.0
C      1  0.7236693702426  0.5876791841687  0.8325862851721 1.0
C      1  0.7184911518983  0.2291672582646  0.7047314611514 1.0
C      1  0.6858806847130  0.2370170777241  0.2709848758960 1.0
C      1  0.2825684196645  0.5892059483769  0.1735375604189 1.0
C      1  0.2830461360807  0.8459028020525  0.5115913313579 1.0
C      1  0.2806736957629  0.6098651048067  0.8282913457699 1.0
C      1  0.2802670684615  0.2220494979194  0.7049902093577 1.0
C      1  0.3188131614071  0.2373993416621  0.2693276809840 1.0
C      1  0.4821167980669  0.6012116636916  0.5566296271833 1.0
END
