TITL C-219758-8596-3 -5.184 3375.00 -898.35493245 0 0 112 (C3) n - 1
REM
REM Run started: at 2020.11.30 23:20:36 in /rds/project/t2_vol4/rds-t2-cs072/BORA/CARBON/AIRSS/Generating-Clusters/Str-Search/Higher-Symm/C100-200
REM VASP from code version vasp.5.4.4.18Apr17-6-g9f103f2a35 (build Oct 11 2019 16:45:47) gamma-only
REM
REM
REM
REM
REM ./C.cell (533062f00bc710175b3da973d35f2034)
REM AIRSS Version 0.9.1 bugfix July 2018 build 013d7b7c2542+ Fri, 06 Jul 2018 19:26:36 +0100
REM compiler GCC version 4.8.5 20150623 (Red Hat 4.8.5-39)
REM options -cpp -mtune=generic -march=x86-64 -g -O0
REM seed -1756383516 848130488 -550316859 -92419799 -834353918 2064338751 -750925859 1473878420 1225706306 -27171698 603797440 -1055474483
REM
REM C.POTCAR (d86ddea03c3ceb6dc662c8ad6801f873)
REM 
CELL 1.54180   15.00000   15.00000   15.00000   90.00000   90.00000   90.00000
LATT -1
SFAC C  
C      1  0.7509074499328  0.5590715086056  0.5039101954338 1.0
C      1  0.5308985580581  0.5370992927160  0.7525483371571 1.0
C      1  0.4939805618582  0.7238838220182  0.5141811632114 1.0
C      1  0.2778422960754  0.4870366515718  0.4940955518546 1.0
C      1  0.7528170776251  0.4711110393711  0.4631293196650 1.0
C      1  0.2626449829675  0.5806483813478  0.5365492884251 1.0
C      1  0.4429434865640  0.4963730407718  0.7506665161197 1.0
C      1  0.5138759585152  0.5077807375637  0.2771586071255 1.0
C      1  0.4202040153952  0.4655681245471  0.2619239096375 1.0
C      1  0.4639826019624  0.2481174580214  0.5297614823221 1.0
C      1  0.5044926639570  0.2504965519100  0.4417170283462 1.0
C      1  0.5360335645045  0.7393112162952  0.4204789819361 1.0
C      1  0.7495535737336  0.5514119266742  0.6835287586637 1.0
C      1  0.5318614256327  0.6413697151789  0.7261195808056 1.0
C      1  0.6527227119812  0.7167978666942  0.5667054869004 1.0
C      1  0.2849205288623  0.4340901644244  0.6528392797892 1.0
C      1  0.7259646976691  0.4703163768412  0.3589395416873 1.0
C      1  0.2381426264257  0.5445897034988  0.3594961702535 1.0
C      1  0.4503282135297  0.3166488940472  0.7488489355411 1.0
C      1  0.5666358060059  0.3491054404630  0.2840969963034 1.0
C      1  0.4563356494611  0.6426214845864  0.2382308265863 1.0
C      1  0.3596343323082  0.2745785600041  0.5309832306957 1.0
C      1  0.6841232674597  0.2525035878985  0.4485567931303 1.0
C      1  0.3590285569223  0.7635628639930  0.4572294209200 1.0
C      1  0.6150893527907  0.6221313255812  0.5609310316047 1.0
C      1  0.6625403120192  0.5075727962797  0.6432634880806 1.0
C      1  0.5410962584806  0.6035699289576  0.6235055760710 1.0
C      1  0.3976362244345  0.3771111801402  0.5407285622665 1.0
C      1  0.6437696403849  0.3393267886808  0.4928800272269 1.0
C      1  0.4096889932214  0.6748171619361  0.4681062473014 1.0
C      1  0.3794442769325  0.4396521515955  0.6149505579389 1.0
C      1  0.6234174982859  0.4608527013176  0.3972083833564 1.0
C      1  0.3269166507245  0.5333240741837  0.4099235793886 1.0
C      1  0.4940510818876  0.3571236705664  0.6616856985730 1.0
C      1  0.5609905956257  0.3866957925348  0.3787779503124 1.0
C      1  0.4678946946426  0.5919332614336  0.3266699674624 1.0
C      1  0.6656616164715  0.5348006462124  0.5487250250808 1.0
C      1  0.5544940523609  0.5133011882759  0.6570074518663 1.0
C      1  0.5275512650187  0.6309569578058  0.5220877862144 1.0
C      1  0.3707182801490  0.4785045516964  0.5274512430402 1.0
C      1  0.6573678580892  0.4473563024726  0.4872617758946 1.0
C      1  0.3565004261233  0.5908523267791  0.4900602708849 1.0
C      1  0.4669451636690  0.4517149912839  0.6652273792532 1.0
C      1  0.5217534627657  0.4740671159685  0.3701181939014 1.0
C      1  0.4109023041844  0.5114461558961  0.3564451267381 1.0
C      1  0.4878742085466  0.3435680765935  0.5537654401847 1.0
C      1  0.5490993366873  0.3359046937002  0.4660476001266 1.0
C      1  0.4899671914839  0.6451301088733  0.4106946029647 1.0
C      1  0.7558091555335  0.3698932909774  0.6519935712838 1.0
C      1  0.3634247208973  0.6432930073952  0.7500974856381 1.0
C      1  0.6382117302939  0.7384869824314  0.4083346290976 1.0
C      1  0.2636974219448  0.5924852912195  0.6388033832919 1.0
C      1  0.7495396366573  0.6389643799583  0.3572162839920 1.0
C      1  0.2570267827796  0.3740444768365  0.3397583606364 1.0
C      1  0.6317504950436  0.3479129222727  0.7545250656619 1.0
C      1  0.4081986338708  0.3633534773405  0.2628467567639 1.0
C      1  0.6268808919380  0.6621683021267  0.2569904999335 1.0
C      1  0.3574603763485  0.2515539558753  0.3622944269141 1.0
C      1  0.6532454830814  0.2457915581650  0.6300521039138 1.0
C      1  0.3399772808216  0.7439328398749  0.6278420725721 1.0
C      1  0.6951016432689  0.7229817681920  0.4808095669851 1.0
C      1  0.7315050883719  0.4561389198975  0.7003451214620 1.0
C      1  0.4459038638900  0.6899894201132  0.7317690819150 1.0
C      1  0.3109059163006  0.2694254424178  0.4450101244640 1.0
C      1  0.7012860777389  0.2703541859901  0.5437337084364 1.0
C      1  0.3015256360182  0.7622179728384  0.5404189936746 1.0
C      1  0.2790629540033  0.5198627417304  0.6955517007174 1.0
C      1  0.7312756057363  0.5564859458397  0.3105797197903 1.0
C      1  0.2389425222210  0.4616753620854  0.3017236701690 1.0
C      1  0.5454389109562  0.2996957178737  0.7303097518166 1.0
C      1  0.4807794932392  0.3065695770984  0.2780692333678 1.0
C      1  0.5392824677380  0.7004011791137  0.2390025368152 1.0
C      1  0.2231901661786  0.7314436040794  0.5054726658804 1.0
C      1  0.6591483874204  0.5713099383571  0.2466116418751 1.0
C      1  0.5650637211858  0.2233959125994  0.6608092978363 1.0
C      1  0.7777791196125  0.3395807783357  0.5636108377692 1.0
C      1  0.2468727181924  0.3416165282089  0.4306240661250 1.0
C      1  0.7625198175456  0.6518053138349  0.4587444583771 1.0
C      1  0.2692989551696  0.4970976638945  0.2234525880268 1.0
C      1  0.6622556307809  0.4361556707934  0.7768272702437 1.0
C      1  0.3505121738683  0.5416899182821  0.7627968202298 1.0
C      1  0.4309401958304  0.7541953037811  0.6598349699774 1.0
C      1  0.5040951929127  0.7785011420740  0.2699901276049 1.0
C      1  0.4590098759314  0.2389064349665  0.3491815652493 1.0
C      1  0.4752263002621  0.7953912147392  0.3558060917137 1.0
C      1  0.8037003668464  0.3875113029514  0.4825897325589 1.0
C      1  0.3831154504139  0.4558145655479  0.8151800618184 1.0
C      1  0.5449480689419  0.1865085961015  0.3812621512704 1.0
C      1  0.4838753696826  0.1972300026542  0.6132410326481 1.0
C      1  0.5053977589661  0.7725545451063  0.6014346490024 1.0
C      1  0.2063491332403  0.6456884098895  0.4762236328379 1.0
C      1  0.8150809440739  0.6193329784823  0.5443740202391 1.0
C      1  0.2289696347045  0.3998565566993  0.5053990041605 1.0
C      1  0.6145440998516  0.5171918686227  0.8031848158744 1.0
C      1  0.3550515627402  0.5262229163970  0.2063338110551 1.0
C      1  0.6010457510811  0.4965721837995  0.2284190320483 1.0
C      1  0.6087846596741  0.4059946332150  0.2282397310449 1.0
C      1  0.3933283354492  0.2047853427515  0.5995816738526 1.0
C      1  0.1847609808507  0.6078940281506  0.3938260498633 1.0
C      1  0.3926181032724  0.6087458861298  0.1850794669488 1.0
C      1  0.6009207624911  0.6077331047921  0.7956519136676 1.0
C      1  0.3988803483473  0.3686465702274  0.7997843112421 1.0
C      1  0.5959583394041  0.7726525172251  0.6090115479201 1.0
C      1  0.3929721145783  0.8171351098499  0.3938989186171 1.0
C      1  0.6321638270366  0.2018885284296  0.3966299995800 1.0
C      1  0.7957338623225  0.4014228231122  0.3921454262976 1.0
C      1  0.2288751620801  0.3921883880317  0.5959306271346 1.0
C      1  0.7999651536194  0.6035201507595  0.6316060252063 1.0
C      1  0.3036628564120  0.6709763639168  0.6792288458865 1.0
C      1  0.6784616711883  0.6986117856827  0.3297276905810 1.0
C      1  0.6913338634781  0.3101244132150  0.6898524211216 1.0
C      1  0.3297936232834  0.3228099288414  0.3029765890579 1.0
END
