TITL C-227548-6712-7 -2.625 3375.00 -470.43459514 0 0 60 (Td) n - 1
REM
REM Run started: at 2020.11.27 05:59:57 in /rds/project/t2_vol4/rds-t2-cs072/BORA/CARBON/AIRSS/Generating-Clusters/Str-Search/Higher-Symm/Only-C60
REM VASP from code version vasp.5.4.4.18Apr17-6-g9f103f2a35 (build Oct 11 2019 16:45:47) gamma-only
REM
REM
REM
REM
REM ./C.cell (5f7b7a0d59291d2373303da1f58b8d66)
REM AIRSS Version 0.9.1 bugfix July 2018 build 013d7b7c2542+ Fri, 06 Jul 2018 19:26:36 +0100
REM compiler GCC version 4.8.5 20150623 (Red Hat 4.8.5-39)
REM options -cpp -mtune=generic -march=x86-64 -g -O0
REM seed 557077842 362006628 1611326844 -1742805506 -554296936 434343740 -943269681 1454556403 -1687905987 -1854074128 2138596934 -1469051992
REM
REM C.POTCAR (d86ddea03c3ceb6dc662c8ad6801f873)
REM 
CELL 1.54180   15.00000   15.00000   15.00000   90.00000   90.00000   90.00000
LATT -1
SFAC C  
C      1  0.6264435907253  0.4416556545238  0.6969415122991 1.0
C      1  0.6969415363491  0.6264435595193  0.4416556566664 1.0
C      1  0.4416556048046  0.6969414954591  0.6264435541651 1.0
C      1  0.6264435771393  0.5583443525245  0.3030585247214 1.0
C      1  0.3735564348590  0.5583443429321  0.6969414957348 1.0
C      1  0.3735564255304  0.4416556698237  0.3030584671094 1.0
C      1  0.6969415327315  0.3735564392694  0.5583443552399 1.0
C      1  0.3030584712149  0.3735564399510  0.4416556215655 1.0
C      1  0.3030584693807  0.6264435575651  0.5583443699517 1.0
C      1  0.4416556124049  0.3030585192379  0.3735564325681 1.0
C      1  0.5583443844864  0.3030585259563  0.6264435430695 1.0
C      1  0.5583443900747  0.6969415004413  0.3735564658752 1.0
C      1  0.6264435586906  0.6969415362069  0.4416556538858 1.0
C      1  0.6969414921050  0.4416556052225  0.6264435552719 1.0
C      1  0.4416556569298  0.6264435911869  0.6969415148101 1.0
C      1  0.6264435564015  0.3030584694344  0.5583443723829 1.0
C      1  0.3735564408114  0.6969415317085  0.5583443583409 1.0
C      1  0.3735564417096  0.3030584724855  0.4416556181563 1.0
C      1  0.6969414972974  0.5583443883537  0.3735564649012 1.0
C      1  0.3030585223388  0.4416556133466  0.3735564308708 1.0
C      1  0.3030585289754  0.5583443833353  0.6264435443883 1.0
C      1  0.4416556728204  0.3735564243952  0.3030584637431 1.0
C      1  0.5583443504846  0.6264435782468  0.3030585226375 1.0
C      1  0.5583443404841  0.3735564336022  0.6969414988626 1.0
C      1  0.3900097727794  0.4618613642107  0.6852365406292 1.0
C      1  0.6852365307839  0.3900097813488  0.4618613896647 1.0
C      1  0.4618613675844  0.6852364968212  0.3900098147643 1.0
C      1  0.3900097629879  0.5381386349247  0.3147634519064 1.0
C      1  0.6099902233084  0.5381386326980  0.6852365210951 1.0
C      1  0.6099902167196  0.4618613683899  0.3147634828037 1.0
C      1  0.6852365402934  0.6099902309782  0.5381386003798 1.0
C      1  0.3147634912424  0.6099901910815  0.4618614104046 1.0
C      1  0.3147634890976  0.3900098058731  0.5381385972676 1.0
C      1  0.4618613650584  0.3147634804870  0.6099902211678 1.0
C      1  0.5381386251966  0.3147634957413  0.3900098089459 1.0
C      1  0.5381386218441  0.6852364623527  0.6099901383006 1.0
C      1  0.3900097845305  0.6852365273363  0.4618613892887 1.0
C      1  0.6852364985530  0.4618613653499  0.3900098128849 1.0
C      1  0.4618613665150  0.3900097662165  0.6852365466789 1.0
C      1  0.3900098110368  0.3147634942624  0.5381385976420 1.0
C      1  0.6099902273573  0.6852365361099  0.5381386010985 1.0
C      1  0.6099901881827  0.3147634938322  0.4618614096945 1.0
C      1  0.6852364621735  0.5381386229423  0.6099901386102 1.0
C      1  0.3147634805003  0.4618613629782  0.6099902217205 1.0
C      1  0.3147634948931  0.5381386265532  0.3900098068302 1.0
C      1  0.4618613707785  0.6099902235421  0.3147634763719 1.0
C      1  0.5381386336535  0.3900097554067  0.3147634444089 1.0
C      1  0.5381386309954  0.6099902283530  0.6852365263518 1.0
C      1  0.5334275735916  0.6071820521250  0.5334277250135 1.0
C      1  0.5334275990510  0.3928179259247  0.4665723193340 1.0
C      1  0.4665724116091  0.3928179310882  0.5334276887363 1.0
C      1  0.4665724347666  0.6071820344146  0.4665722846716 1.0
C      1  0.6071820424676  0.5334275710957  0.5334277325774 1.0
C      1  0.6071820229915  0.4665724383004  0.4665722780237 1.0
C      1  0.3928179357751  0.5334275976228  0.4665723132387 1.0
C      1  0.3928179423894  0.4665724175667  0.5334276966966 1.0
C      1  0.5334276505482  0.5334276409100  0.6071819791894 1.0
C      1  0.5334276807514  0.4665723580453  0.3928180625824 1.0
C      1  0.4665723170431  0.4665723309036  0.6071819130516 1.0
C      1  0.4665723442003  0.5334276694851  0.3928180607567 1.0
END
