TITL C-22306-6888-32 -4.956 3375.00 -797.32202606 0 0 100 (C1) n - 1
REM
REM Run started: at 2020.12.28 11:36:20 in /rds/project/t2_vol4/rds-t2-cs072/BORA/CARBON/AIRSS/Generating-Clusters/Str-Search/Higher-Symm/C10-100
REM VASP from code version vasp.5.4.4.18Apr17-6-g9f103f2a35 (build Oct 11 2019 16:45:47) gamma-only
REM
REM
REM
REM
REM ./C.cell (f39ce9773e2efe3fa5bbdf770a4156b8)
REM AIRSS Version 0.9.1 bugfix July 2018 build 013d7b7c2542+ Fri, 06 Jul 2018 19:26:36 +0100
REM compiler GCC version 4.8.5 20150623 (Red Hat 4.8.5-39)
REM options -cpp -mtune=generic -march=x86-64 -g -O0
REM seed 673490704 331167850 -1965481159 1910622391 -1583363748 -486080370 848953718 -38296012 -1220958188 -950363682 -606291653 1582164096
REM
REM C.POTCAR (d86ddea03c3ceb6dc662c8ad6801f873)
REM 
CELL 1.54180   15.00000   15.00000   15.00000   90.00000   90.00000   90.00000
LATT -1
SFAC C  
C      1  0.3145633927863  0.5807477438626  0.3248995066624 1.0
C      1  0.3363681411075  0.5913642977321  0.6790428214872 1.0
C      1  0.7196075243675  0.5638825923415  0.5993103060079 1.0
C      1  0.6963510197471  0.5858247663634  0.3994310148512 1.0
C      1  0.7021122275471  0.4983855737553  0.3682154632258 1.0
C      1  0.7254829507743  0.4861704370097  0.6480602191258 1.0
C      1  0.6677351436327  0.3364714425408  0.7085737104432 1.0
C      1  0.6560982788845  0.3579938025662  0.2951048703930 1.0
C      1  0.5523066150245  0.7165045417052  0.7155167718217 1.0
C      1  0.5071307953278  0.7239706251630  0.3018592519979 1.0
C      1  0.5017697226226  0.4680575712546  0.5696043145740 1.0
C      1  0.5028862696440  0.4756356602895  0.4240198506105 1.0
C      1  0.4125349525545  0.4248775825991  0.2175504747738 1.0
C      1  0.4167885709832  0.4282873259272  0.7857275751865 1.0
C      1  0.2978478205251  0.4951237087210  0.2868559409601 1.0
C      1  0.3108141824070  0.5108043912321  0.7229699644414 1.0
C      1  0.5972033223975  0.2910128937935  0.7121551226167 1.0
C      1  0.6011283383711  0.2948774755448  0.2887502341123 1.0
C      1  0.4412723674795  0.5451041145295  0.4005824604265 1.0
C      1  0.4613708637569  0.5588584628755  0.5827839291565 1.0
C      1  0.3580409810816  0.5789245064885  0.4164431026319 1.0
C      1  0.3639509035200  0.5810241304706  0.5831269687565 1.0
C      1  0.3973649978484  0.6446106405249  0.7375743594987 1.0
C      1  0.3643804840775  0.6396063589405  0.2623666899344 1.0
C      1  0.4271145164351  0.7041477779947  0.2889948190339 1.0
C      1  0.4689702234940  0.7017009029201  0.7173019463700 1.0
C      1  0.4956123771785  0.5617988152944  0.1914788195522 1.0
C      1  0.5157187748889  0.5540056130100  0.8068147805532 1.0
C      1  0.3720757556685  0.3665415701938  0.7249790856906 1.0
C      1  0.3792346561433  0.3607577356827  0.2826644837955 1.0
C      1  0.3531149978727  0.4962621020748  0.2058656381085 1.0
C      1  0.3665110038172  0.5072761664973  0.8033170686236 1.0
C      1  0.3986975190231  0.5819791775109  0.1945625945035 1.0
C      1  0.4226789246615  0.5845856715883  0.8087691031563 1.0
C      1  0.6101084544101  0.5435697737959  0.8351556641511 1.0
C      1  0.5932270433307  0.5651802880300  0.1670005896996 1.0
C      1  0.5851835035845  0.6698057823693  0.3091751724533 1.0
C      1  0.6192246256530  0.6502212479553  0.6963779271975 1.0
C      1  0.4995261137308  0.4682610474933  0.2349588787159 1.0
C      1  0.5049747543003  0.4633144549761  0.7579921756460 1.0
C      1  0.5589392453333  0.5823715719171  0.2742561138437 1.0
C      1  0.5753063661950  0.5633565669485  0.7179187396884 1.0
C      1  0.3108093724909  0.4070967659772  0.3320875554819 1.0
C      1  0.3106922767481  0.4219263168086  0.6790703471908 1.0
C      1  0.5069528792825  0.5073614001044  0.6615752703001 1.0
C      1  0.4992545236592  0.5109230090029  0.3289410601362 1.0
C      1  0.5157963197338  0.2705696269178  0.2898147781827 1.0
C      1  0.5102288191171  0.2703826924221  0.7129294206282 1.0
C      1  0.6987039175113  0.6363057692998  0.6552025678982 1.0
C      1  0.6509458577736  0.6671982460343  0.3754444415685 1.0
C      1  0.6122282801437  0.4745237645473  0.7630027521415 1.0
C      1  0.6062331499976  0.4891067290681  0.2283714622819 1.0
C      1  0.4301649639603  0.2946017327346  0.7070818903703 1.0
C      1  0.4332052358524  0.2858599877313  0.2945614905617 1.0
C      1  0.6819108766234  0.4299033303790  0.7060990572507 1.0
C      1  0.6718607484328  0.4494747165155  0.2915975091679 1.0
C      1  0.2037696295957  0.2440754051646  0.5129817933343 1.0
C      1  0.8560110746516  0.6314155988415  0.4880030032828 1.0
C      1  0.8607882227628  0.5471066947571  0.4892764753487 1.0
C      1  0.6823768773571  0.5620891277676  0.5005399066081 1.0
C      1  0.2506982309198  0.6729240259455  0.4981920509639 1.0
C      1  0.5927868185324  0.1435474535379  0.5211063401322 1.0
C      1  0.2941609696583  0.2227506187793  0.4981825880580 1.0
C      1  0.5623826432454  0.4388222900380  0.4966837517978 1.0
C      1  0.3498554864657  0.1501447690784  0.5117595607038 1.0
C      1  0.7388627128603  0.2594585435036  0.5108507299633 1.0
C      1  0.6516503272640  0.2988455075327  0.5015310925482 1.0
C      1  0.8088400402118  0.3068225407375  0.4992802768691 1.0
C      1  0.6254301324573  0.7059545101819  0.4597224651464 1.0
C      1  0.8206117004166  0.4626893509076  0.4847565724317 1.0
C      1  0.2787178293654  0.3723576761658  0.4150704189807 1.0
C      1  0.5196550391082  0.0989250803811  0.5187531318258 1.0
C      1  0.8331765929303  0.7168965177197  0.4975068499484 1.0
C      1  0.6074780837475  0.7976649950263  0.4842818308921 1.0
C      1  0.8570816328648  0.3794091991657  0.4972499030826 1.0
C      1  0.4799223479114  0.2448916604058  0.5055697828642 1.0
C      1  0.4731647222714  0.7182267504934  0.5334161916735 1.0
C      1  0.1486672607431  0.5553734315918  0.4533168569398 1.0
C      1  0.1478734048706  0.4717073216327  0.4414907492338 1.0
C      1  0.2827875886132  0.8508428485902  0.4780417488893 1.0
C      1  0.4404768040263  0.1547978932031  0.5134818311231 1.0
C      1  0.6021169669562  0.6279440520778  0.5118898014941 1.0
C      1  0.3885267194180  0.7588888327001  0.5292467617312 1.0
C      1  0.3340245138595  0.3061507373814  0.4611753945743 1.0
C      1  0.5143917718108  0.6332335803662  0.5441244133710 1.0
C      1  0.3229108281503  0.6030216841067  0.5039358714568 1.0
C      1  0.3550132996490  0.8979672279076  0.4833145410856 1.0
C      1  0.7146960716157  0.4628561943772  0.4634847574642 1.0
C      1  0.5782932549287  0.2375401520338  0.5106630391016 1.0
C      1  0.2948808743417  0.7581618652294  0.5055716253223 1.0
C      1  0.4300730467788  0.8485032192680  0.5103237351770 1.0
C      1  0.6481309651237  0.3931520063713  0.4911470973064 1.0
C      1  0.5162855193072  0.8069727762490  0.5108553511721 1.0
C      1  0.4699222330372  0.4047035849688  0.4914041427141 1.0
C      1  0.7691761054668  0.7734544366602  0.4942061680693 1.0
C      1  0.1861590380991  0.3883619591106  0.4475286162066 1.0
C      1  0.1572766915416  0.3103807517227  0.4922117426274 1.0
C      1  0.4269250657997  0.3178466029616  0.4831737890611 1.0
C      1  0.6952860628690  0.8228997078881  0.5007500296550 1.0
C      1  0.1703890548808  0.6378935174445  0.4741576921288 1.0
END
