TITL C-22306-6888-12 -0.818 3375.00 -122.63359595 0 0 16 (C1) n - 1
REM
REM Run started: at 2020.12.28 04:11:22 in /rds/project/t2_vol4/rds-t2-cs072/BORA/CARBON/AIRSS/Generating-Clusters/Str-Search/Higher-Symm/C10-100
REM VASP from code version vasp.5.4.4.18Apr17-6-g9f103f2a35 (build Oct 11 2019 16:45:47) gamma-only
REM
REM
REM
REM
REM ./C.cell (f39ce9773e2efe3fa5bbdf770a4156b8)
REM AIRSS Version 0.9.1 bugfix July 2018 build 013d7b7c2542+ Fri, 06 Jul 2018 19:26:36 +0100
REM compiler GCC version 4.8.5 20150623 (Red Hat 4.8.5-39)
REM options -cpp -mtune=generic -march=x86-64 -g -O0
REM seed -87723646 -2139322562 1289793187 782237044 718442210 1511658442 -437254129 -1009392049 1292400998 1663502945 -1814205104 -690842608
REM
REM C.POTCAR (d86ddea03c3ceb6dc662c8ad6801f873)
REM 
CELL 1.54180   15.00000   15.00000   15.00000   90.00000   90.00000   90.00000
LATT -1
SFAC C  
C      1  0.5197461913483  0.4576591667130  0.3100987599663 1.0
C      1  0.6250082072685  0.4222128646493  0.4378401737852 1.0
C      1  0.5203275847569  0.4822219189331  0.6447141130145 1.0
C      1  0.4187227588276  0.4589937775599  0.6417898494714 1.0
C      1  0.3628815355142  0.4608256285815  0.5685291452639 1.0
C      1  0.4820394119019  0.5786519041614  0.4230789177369 1.0
C      1  0.5703197628534  0.5847480476206  0.4672070472956 1.0
C      1  0.5547448750138  0.6069256733591  0.5581233137466 1.0
C      1  0.4601961457318  0.6085008464147  0.5766338833082 1.0
C      1  0.4151967829777  0.5821866801299  0.4941828922773 1.0
C      1  0.4821385915997  0.5231619822216  0.3496083279489 1.0
C      1  0.6118157472814  0.4950999209086  0.4943266240535 1.0
C      1  0.5878166101797  0.5144116489016  0.5852795519150 1.0
C      1  0.4510862906096  0.5469287514575  0.6505012581550 1.0
C      1  0.3481321501648  0.5148059791060  0.5044648045120 1.0
C      1  0.5785064539707  0.4198681092821  0.3669866375497 1.0
END
