TITL C-22306-6888-3 -4.381 3375.00 -721.57871978 0 0 89 (C1) n - 1
REM
REM Run started: at 2020.12.28 01:58:30 in /rds/project/t2_vol4/rds-t2-cs072/BORA/CARBON/AIRSS/Generating-Clusters/Str-Search/Higher-Symm/C10-100
REM VASP from code version vasp.5.4.4.18Apr17-6-g9f103f2a35 (build Oct 11 2019 16:45:47) gamma-only
REM
REM
REM
REM
REM ./C.cell (f39ce9773e2efe3fa5bbdf770a4156b8)
REM AIRSS Version 0.9.1 bugfix July 2018 build 013d7b7c2542+ Fri, 06 Jul 2018 19:26:36 +0100
REM compiler GCC version 4.8.5 20150623 (Red Hat 4.8.5-39)
REM options -cpp -mtune=generic -march=x86-64 -g -O0
REM seed 1302198553 -201259015 -955302298 -623268525 -1346059745 -501513466 -2142565945 -800388782 -1851881048 -796658503 611127715 -590394830
REM
REM C.POTCAR (d86ddea03c3ceb6dc662c8ad6801f873)
REM 
CELL 1.54180   15.00000   15.00000   15.00000   90.00000   90.00000   90.00000
LATT -1
SFAC C  
C      1  0.4425786323150  0.4290287188693  0.4953805543998 1.0
C      1  0.4513977991927  0.7522360506599  0.5180902691558 1.0
C      1  0.3740192275713  0.2009050110964  0.4015163489668 1.0
C      1  0.6390951946297  0.2476008718497  0.6047069965866 1.0
C      1  0.4840879514853  0.7208436248772  0.6877476675752 1.0
C      1  0.6304912662062  0.6803825251238  0.6332319593892 1.0
C      1  0.6448921229672  0.2628316411512  0.3430653249034 1.0
C      1  0.8289870821155  0.4079033759309  0.5829965769823 1.0
C      1  0.5343884791677  0.4235524664876  0.6482658355719 1.0
C      1  0.4883040748149  0.2204366510190  0.5306483780454 1.0
C      1  0.6471009702781  0.4200442715864  0.4793217703013 1.0
C      1  0.7124229894276  0.4960905748648  0.8011511231334 1.0
C      1  0.2925604148315  0.4585793135260  0.6865324773269 1.0
C      1  0.4850463778593  0.4690554483384  0.7308872236759 1.0
C      1  0.6372477302769  0.5515783821873  0.8139008849386 1.0
C      1  0.2781843722721  0.4077586163627  0.4728062844299 1.0
C      1  0.4302437783908  0.2537501092271  0.5951787790816 1.0
C      1  0.3854351830718  0.6083533655808  0.5507575105177 1.0
C      1  0.2359012896817  0.5275747458661  0.7007571594219 1.0
C      1  0.5449060494534  0.5889786710352  0.3075377007332 1.0
C      1  0.4733406255379  0.4527648359884  0.4023378915012 1.0
C      1  0.5822691458774  0.3630214273817  0.7058335909028 1.0
C      1  0.4620840303351  0.6315580337289  0.2777835710499 1.0
C      1  0.4570376860667  0.1918425369956  0.4462616795175 1.0
C      1  0.8004955063357  0.4040743025944  0.5023064916208 1.0
C      1  0.5439270723262  0.5201339748386  0.4003683901138 1.0
C      1  0.7390240382062  0.5513246213760  0.6410094931016 1.0
C      1  0.6149434792251  0.2219982955154  0.4256261779168 1.0
C      1  0.4002815949249  0.6983609205660  0.7360946600408 1.0
C      1  0.1878351894414  0.4364662889876  0.4948902064178 1.0
C      1  0.6022267421791  0.3775021127278  0.2535102794282 1.0
C      1  0.3749350975109  0.3012044622652  0.6358449440028 1.0
C      1  0.3902347627477  0.5606788340049  0.6252656886253 1.0
C      1  0.5163453905070  0.7767380945334  0.4493520358727 1.0
C      1  0.2609284094281  0.6142020163263  0.7205082889671 1.0
C      1  0.6154611275752  0.5131900269436  0.4641887337663 1.0
C      1  0.1446141449538  0.4615861982643  0.4274019998869 1.0
C      1  0.7245263583594  0.4181469883991  0.3413189456891 1.0
C      1  0.6650583243186  0.7290841842633  0.4196963029381 1.0
C      1  0.6267507247242  0.2868986321909  0.6765740861219 1.0
C      1  0.6120177969902  0.4695395472366  0.2404355042883 1.0
C      1  0.5192975261088  0.3358818262768  0.2828334987746 1.0
C      1  0.5732034887833  0.6078467950309  0.7777742324058 1.0
C      1  0.2380026248051  0.6572076526268  0.3924391471565 1.0
C      1  0.2817217613501  0.4049563225490  0.3783651035878 1.0
C      1  0.2972971561888  0.6996849195446  0.7150127790176 1.0
C      1  0.5162388530656  0.4096193999489  0.5574857753432 1.0
C      1  0.7963297790533  0.4728983205858  0.6412756894702 1.0
C      1  0.6074495718024  0.7648337468263  0.4865053213935 1.0
C      1  0.6962544944749  0.5914982867533  0.3324598212928 1.0
C      1  0.7071643922498  0.6368705082348  0.4213852191449 1.0
C      1  0.5311534662913  0.1947112007808  0.3875067627132 1.0
C      1  0.3550146370855  0.4104030543940  0.5264592938344 1.0
C      1  0.6767317903276  0.3424016344023  0.3059865101390 1.0
C      1  0.6248587669280  0.4588907971946  0.8236721852871 1.0
C      1  0.5549915423821  0.4089015739175  0.7848661110501 1.0
C      1  0.5348295221977  0.5227092723297  0.2367292410722 1.0
C      1  0.3562160953663  0.3570326932420  0.3350566350428 1.0
C      1  0.4890184749421  0.5615671502664  0.7728030802421 1.0
C      1  0.5935060907158  0.7454529453570  0.5768951855166 1.0
C      1  0.4978364933702  0.7550429798270  0.6001923620981 1.0
C      1  0.5693905315689  0.6762630181262  0.7111713659557 1.0
C      1  0.6107279203747  0.7290288586671  0.3397651534708 1.0
C      1  0.5892286507198  0.3587130932953  0.5128456438232 1.0
C      1  0.6238932038954  0.6444505237840  0.3012673218241 1.0
C      1  0.3757622076116  0.6867252181881  0.5052839142042 1.0
C      1  0.5484196347987  0.2511091974341  0.3133055382030 1.0
C      1  0.5189488094680  0.7565055726811  0.3588219088644 1.0
C      1  0.2001271390824  0.4517978241559  0.3474674490162 1.0
C      1  0.3545737784994  0.2645909061625  0.3510826286396 1.0
C      1  0.6862374345802  0.6098908467282  0.5935609632030 1.0
C      1  0.3564873685670  0.5322398900261  0.1973096720208 1.0
C      1  0.4455100069965  0.3900232993379  0.3288632212913 1.0
C      1  0.4433722352147  0.5578268537817  0.2205498398881 1.0
C      1  0.5901696469407  0.2552612703564  0.5191291367204 1.0
C      1  0.2783142024474  0.5301958891888  0.2239228555065 1.0
C      1  0.4136166213751  0.6096705007898  0.7802620721188 1.0
C      1  0.3587611901889  0.7273818977782  0.3518994573060 1.0
C      1  0.7384000710408  0.4096000722218  0.4381019179305 1.0
C      1  0.7610535687838  0.5022290383822  0.7206906487744 1.0
C      1  0.6773346888750  0.5868007221730  0.4938749713068 1.0
C      1  0.3582330820844  0.6095992253971  0.7026968715658 1.0
C      1  0.3927948319970  0.4691353803970  0.6772212792507 1.0
C      1  0.3457390221548  0.3948895930027  0.6263419576919 1.0
C      1  0.4412564650324  0.7160460999510  0.3163420237845 1.0
C      1  0.3141826114459  0.7014542520542  0.4258116154468 1.0
C      1  0.1956986318495  0.6058792898816  0.3418701162755 1.0
C      1  0.2129752866527  0.5272625900690  0.2911072073392 1.0
C      1  0.6900462966863  0.4992170251332  0.3026395070887 1.0
END
