TITL C-227954-529-7 -7.419 3375.00 -1317.98052242 0 0 162 (C1) n - 1
REM
REM Run started: at 2020.12.03 17:06:17 in /rds/project/t2_vol4/rds-t2-cs072/BORA/CARBON/AIRSS/Generating-Clusters/Str-Search/Higher-Symm/C100-200
REM VASP from code version vasp.5.4.4.18Apr17-6-g9f103f2a35 (build Oct 11 2019 16:45:47) gamma-only
REM
REM
REM
REM
REM ./C.cell (533062f00bc710175b3da973d35f2034)
REM AIRSS Version 0.9.1 bugfix July 2018 build 013d7b7c2542+ Fri, 06 Jul 2018 19:26:36 +0100
REM compiler GCC version 4.8.5 20150623 (Red Hat 4.8.5-39)
REM options -cpp -mtune=generic -march=x86-64 -g -O0
REM seed -75672936 416753304 -2093912925 1861034924 613966818 -50772778 -627688487 -567254379 444839648 -269958750 -217425912 -2137295679
REM
REM C.POTCAR (d86ddea03c3ceb6dc662c8ad6801f873)
REM 
CELL 1.54180   15.00000   15.00000   15.00000   90.00000   90.00000   90.00000
LATT -1
SFAC C  
C      1  0.5178429933085  0.8951225178216  0.4204046301558 1.0
C      1  0.5797035466583  0.8954811314521  0.4956087505342 1.0
C      1  0.5262236902635  0.8915511572863  0.5807204237414 1.0
C      1  0.4328614515040  0.8871382560409  0.5585064530405 1.0
C      1  0.4265061780888  0.8891324852957  0.4570451665037 1.0
C      1  0.2356475756465  0.7149103184348  0.5629389512082 1.0
C      1  0.3433341037791  0.7188120209087  0.2623056020785 1.0
C      1  0.6716405633750  0.7256707144791  0.2765565121189 1.0
C      1  0.7548381607783  0.7135140015452  0.5941475839386 1.0
C      1  0.4852112567689  0.7184190066482  0.7804642889503 1.0
C      1  0.6500983626641  0.6400495650596  0.2295509750174 1.0
C      1  0.7945853551823  0.6320023295754  0.5577719997735 1.0
C      1  0.5328209034784  0.6387653785872  0.8012633229779 1.0
C      1  0.2475839183626  0.6229297540307  0.6064720993016 1.0
C      1  0.3080449128326  0.6106403212536  0.2648488738706 1.0
C      1  0.3925973007276  0.3909570296154  0.6497623011111 1.0
C      1  0.3426271211831  0.4052772492546  0.4601778290796 1.0
C      1  0.5084540427645  0.4157664372810  0.3397973069539 1.0
C      1  0.6583608796964  0.3842455168095  0.4436805763263 1.0
C      1  0.6143799604034  0.3775182926309  0.6603959731707 1.0
C      1  0.1855256745608  0.4605950850981  0.4664450060735 1.0
C      1  0.4454477541934  0.4827831698590  0.1209578652873 1.0
C      1  0.8326695409552  0.4836423233726  0.3196052957844 1.0
C      1  0.7763105026073  0.4655454706426  0.7686535129834 1.0
C      1  0.3348779898513  0.4520561082081  0.8301673811172 1.0
C      1  0.5610172515602  0.5736907593632  0.6406740329981 1.0
C      1  0.3912401653546  0.5789207756159  0.6109344636288 1.0
C      1  0.3792377932992  0.6012461425611  0.3834867641936 1.0
C      1  0.5684776116595  0.5849601389540  0.3524015634757 1.0
C      1  0.6571889753655  0.5706414239534  0.4907866309962 1.0
C      1  0.7289835201870  0.2659502294507  0.3024132452967 1.0
C      1  0.7675269458736  0.2551167455603  0.6615022353106 1.0
C      1  0.4599869189790  0.2641613673022  0.7927721765036 1.0
C      1  0.1758160804671  0.2653482786141  0.5287698205178 1.0
C      1  0.3907922660938  0.2745497468124  0.2306526746762 1.0
C      1  0.2931004644792  0.2993633245137  0.6333034926980 1.0
C      1  0.3162109265199  0.2654214157038  0.3838831988906 1.0
C      1  0.5756930866123  0.2965078029171  0.3207328443339 1.0
C      1  0.6840835391125  0.2839588239346  0.5313637108051 1.0
C      1  0.5324054701326  0.2918378216603  0.7315308542115 1.0
C      1  0.3916623382438  0.3396987498846  0.1792825563267 1.0
C      1  0.7621382787542  0.3383975550702  0.2758389803651 1.0
C      1  0.8022864396969  0.3287462324279  0.6812247428622 1.0
C      1  0.4033971805532  0.3303064792389  0.8280087590313 1.0
C      1  0.1309111223921  0.3334718904927  0.5413477833012 1.0
C      1  0.8493568070512  0.3712653571352  0.4590803122058 1.0
C      1  0.6590938076357  0.3831418972408  0.8493952879868 1.0
C      1  0.2510017458305  0.3353504504846  0.7295146549425 1.0
C      1  0.2413394001112  0.3304283932637  0.3395574719999 1.0
C      1  0.5750341243112  0.3724780610753  0.1355690935079 1.0
C      1  0.8457221901253  0.4458777757489  0.4088260963786 1.0
C      1  0.7369483695231  0.4019776693260  0.8277780617124 1.0
C      1  0.3106435467804  0.3580250476875  0.7999713896592 1.0
C      1  0.1930325796302  0.4080674308090  0.3741285742611 1.0
C      1  0.5368798507750  0.4493311166880  0.1034131807849 1.0
C      1  0.8313566996025  0.5319709978107  0.4556568635128 1.0
C      1  0.6218317605862  0.5237627039918  0.7967261031803 1.0
C      1  0.2369493171005  0.5111742000068  0.7278039333759 1.0
C      1  0.1975515712318  0.4986082433061  0.3276678077316 1.0
C      1  0.5734520739686  0.5371015326929  0.1351117261986 1.0
C      1  0.8380293808943  0.4611359153308  0.6040270435922 1.0
C      1  0.5036948944074  0.4701907782678  0.8645926011053 1.0
C      1  0.1500671813191  0.4669027592224  0.6271567645588 1.0
C      1  0.2969084796558  0.4539755508883  0.2158594865577 1.0
C      1  0.7078227702628  0.4687029040398  0.1988470096087 1.0
C      1  0.5852665255621  0.7511362848372  0.4939714515530 1.0
C      1  0.5293415751353  0.7476082019118  0.5777640037302 1.0
C      1  0.4327819619670  0.7428372767053  0.5487792232068 1.0
C      1  0.4299788745941  0.7466233034636  0.4492920979114 1.0
C      1  0.5234970926829  0.7494769693537  0.4150872943745 1.0
C      1  0.6156651286773  0.2866089351064  0.6728343567781 1.0
C      1  0.3887584230947  0.3007129596980  0.6529924799841 1.0
C      1  0.3205680292969  0.3162639908307  0.4685237813181 1.0
C      1  0.4884438938851  0.3157016053561  0.3375574007740 1.0
C      1  0.6626891987440  0.2877448389118  0.4429812626145 1.0
C      1  0.3293538800353  0.1711221754090  0.5179577651040 1.0
C      1  0.4246065717791  0.1683099365657  0.3778736935476 1.0
C      1  0.6043654643206  0.1503950439448  0.4100915558461 1.0
C      1  0.6334106239466  0.1438026729192  0.5771473704280 1.0
C      1  0.4627819872548  0.1592099959397  0.6390440346592 1.0
C      1  0.7043873777851  0.7131223626378  0.6790323322280 1.0
C      1  0.3887684013704  0.7089571645578  0.7679663408774 1.0
C      1  0.2279393364382  0.7162961973600  0.4674699930318 1.0
C      1  0.4359693746048  0.7205831513456  0.2374474461516 1.0
C      1  0.7302340148920  0.7275573378746  0.3547270601371 1.0
C      1  0.3670416947290  0.8166878721383  0.4140653661055 1.0
C      1  0.5362277249708  0.8229111957682  0.3482176792272 1.0
C      1  0.6530856437373  0.8238231775706  0.4896417906183 1.0
C      1  0.5560737198833  0.8169196957778  0.6441326346814 1.0
C      1  0.3771198538415  0.8070018904818  0.5989829379511 1.0
C      1  0.2929431833285  0.6201278531881  0.3611229053993 1.0
C      1  0.5631687278527  0.6151691849038  0.2653876551173 1.0
C      1  0.7532767775479  0.6044057282772  0.4709568720210 1.0
C      1  0.5973579566223  0.6017490088391  0.7330122677531 1.0
C      1  0.3288087468783  0.6420817000765  0.6689839481072 1.0
C      1  0.4859441011024  0.5702168292723  0.1462367027685 1.0
C      1  0.8302512100680  0.5743421001237  0.3607714565972 1.0
C      1  0.7180911545773  0.5459165541167  0.7715821162461 1.0
C      1  0.3049837081581  0.5344680861894  0.7886221343353 1.0
C      1  0.1836678205823  0.5458504024958  0.4098652445821 1.0
C      1  0.2474881835516  0.5282889021803  0.2444660944929 1.0
C      1  0.6606608714882  0.5532958151992  0.1818080972032 1.0
C      1  0.8423992131805  0.5455524435401  0.5566884412452 1.0
C      1  0.5411859517359  0.5587822680264  0.8514292940638 1.0
C      1  0.1938790153882  0.5520396504596  0.6524767650316 1.0
C      1  0.5921471977473  0.6476171307231  0.4945872058783 1.0
C      1  0.5357837032664  0.6460457180853  0.5777617747070 1.0
C      1  0.4377034978600  0.6406267664927  0.5486558691962 1.0
C      1  0.4343108966988  0.6400335731208  0.4482246475402 1.0
C      1  0.5291821160668  0.6465701495741  0.4149568271955 1.0
C      1  0.2882813042986  0.4595953113513  0.5250561900779 1.0
C      1  0.4319621477516  0.4810337316588  0.3255950488801 1.0
C      1  0.6575915065669  0.4401949991913  0.3666199124399 1.0
C      1  0.6556947766636  0.4360296305296  0.5995573398808 1.0
C      1  0.4652480771427  0.4426944930152  0.6786100219576 1.0
C      1  0.2167785951309  0.6359500309053  0.4174099098346 1.0
C      1  0.4707944598272  0.6258344972027  0.2283033440749 1.0
C      1  0.7733690753398  0.6466316520111  0.3814172676928 1.0
C      1  0.6933964823479  0.6284610294432  0.7285975175550 1.0
C      1  0.3396179719527  0.6238163357782  0.7653916028102 1.0
C      1  0.3156120060868  0.7807799252091  0.3319510276845 1.0
C      1  0.5951258291541  0.7845012120154  0.2758729046289 1.0
C      1  0.7366585143514  0.7789033620292  0.5242624108105 1.0
C      1  0.5457600622544  0.7781495745112  0.7351558543781 1.0
C      1  0.2818493927381  0.7798224046963  0.6136399186776 1.0
C      1  0.2735827113950  0.2537500438787  0.5434941723432 1.0
C      1  0.4077843512957  0.2555135237248  0.3264265910692 1.0
C      1  0.6457798968456  0.2352180161501  0.3586472359342 1.0
C      1  0.6787923350484  0.2288399104029  0.6167521969235 1.0
C      1  0.4480426461041  0.2383365360843  0.6950047114666 1.0
C      1  0.4701587172733  0.5279052575726  0.6506229143077 1.0
C      1  0.3070136027983  0.5497649309191  0.5626862010675 1.0
C      1  0.4086018331788  0.5724918321582  0.2901345759655 1.0
C      1  0.6206777733113  0.5224233994077  0.4053726401942 1.0
C      1  0.6335814301814  0.5230244691559  0.5829637554027 1.0
C      1  0.2967797071309  0.4030650284691  0.6174149607330 1.0
C      1  0.3573705809540  0.4338196906822  0.3657911925330 1.0
C      1  0.6027797792431  0.3916033388211  0.2957855087051 1.0
C      1  0.7072295680161  0.3825742473873  0.5350055740121 1.0
C      1  0.5411057546872  0.3932833179373  0.7225426225099 1.0
C      1  0.4048383619531  0.1389249981307  0.5612567346444 1.0
C      1  0.3416830126090  0.1740878939882  0.4223176672942 1.0
C      1  0.5059207882925  0.1381114337723  0.4235236913239 1.0
C      1  0.6551337485681  0.1320611684003  0.4857629866180 1.0
C      1  0.5420647820145  0.1254681566543  0.5909414894148 1.0
C      1  0.6317863258949  0.7749153427388  0.6974958961189 1.0
C      1  0.3474704861996  0.7451902246892  0.6811290359132 1.0
C      1  0.2730617267518  0.7829208263684  0.4131996065469 1.0
C      1  0.5035017922288  0.7849139578787  0.2600223800192 1.0
C      1  0.7258608860344  0.7860913819720  0.4315467439352 1.0
C      1  0.3002933213458  0.3964851003736  0.2987764320042 1.0
C      1  0.6346905072227  0.4007317706732  0.2006816363384 1.0
C      1  0.8092783208119  0.3919090554392  0.5379192724636 1.0
C      1  0.5800447003074  0.4303971780017  0.8112985936353 1.0
C      1  0.2188681073097  0.4220354884350  0.6902323638849 1.0
C      1  0.7778659699868  0.4350096437495  0.2567633662132 1.0
C      1  0.8158447228343  0.4250872891203  0.6905359129052 1.0
C      1  0.4215012438855  0.4243192336441  0.8601713006308 1.0
C      1  0.1309837305201  0.4277712013120  0.5447485578030 1.0
C      1  0.3742816903747  0.4318145576414  0.1593613522075 1.0
C      1  0.5672627786730  0.4384683816107  0.4287454199839 1.0
C      1  0.4847478344087  0.1119036515192  0.5123515888473 1.0
END
