TITL C-221851-7955-6 -1.982 3375.00 -333.64925572 0 0 41 (C1) n - 1
REM
REM Run started: at 2020.11.28 09:43:45 in /rds/project/t2_vol4/rds-t2-cs072/BORA/CARBON/AIRSS/Generating-Clusters/Str-Search/Higher-Symm/C10-100
REM VASP from code version vasp.5.4.4.18Apr17-6-g9f103f2a35 (build Oct 11 2019 16:45:47) gamma-only
REM
REM
REM
REM
REM ./C.cell (f39ce9773e2efe3fa5bbdf770a4156b8)
REM AIRSS Version 0.9.1 bugfix July 2018 build 013d7b7c2542+ Fri, 06 Jul 2018 19:26:36 +0100
REM compiler GCC version 4.8.5 20150623 (Red Hat 4.8.5-39)
REM options -cpp -mtune=generic -march=x86-64 -g -O0
REM seed 645320334 -1647411644 628315858 2080044668 -279244273 -23981866 1135452622 -1087350564 -2112135412 -306940808 -2056186373 -2040377169
REM
REM C.POTCAR (d86ddea03c3ceb6dc662c8ad6801f873)
REM 
CELL 1.54180   15.00000   15.00000   15.00000   90.00000   90.00000   90.00000
LATT -1
SFAC C  
C      1  0.3711823778973  0.5757413592573  0.4866137297314 1.0
C      1  0.3313049140411  0.4798987698152  0.4876353167852 1.0
C      1  0.4577055739563  0.3133241597660  0.4784549762379 1.0
C      1  0.5548913428601  0.3230756770097  0.4948132460285 1.0
C      1  0.6375615929635  0.5142791808376  0.4966729671791 1.0
C      1  0.6695375577146  0.6090293104544  0.4633700031590 1.0
C      1  0.4755923336112  0.5693803565054  0.4735941137566 1.0
C      1  0.6734951846907  0.4929698939849  0.5911276717558 1.0
C      1  0.6836002132547  0.6519472735811  0.5504693334700 1.0
C      1  0.5286270958234  0.6862024911407  0.6310768157460 1.0
C      1  0.3787661379663  0.6076830947520  0.5860286710431 1.0
C      1  0.3294901336729  0.4532964066166  0.5761698485526 1.0
C      1  0.4184030076956  0.3083226041876  0.5647101617876 1.0
C      1  0.5687801947064  0.3448280322876  0.5907660214461 1.0
C      1  0.6065405788349  0.4300958352525  0.6243490058771 1.0
C      1  0.6741366382517  0.5858876072558  0.6191492648267 1.0
C      1  0.6182623214614  0.6637521250867  0.6194165722637 1.0
C      1  0.4504343722715  0.6619222520291  0.6139590689427 1.0
C      1  0.3719605303781  0.5237620749442  0.6287090564616 1.0
C      1  0.3577125156531  0.3672570947889  0.6108740054890 1.0
C      1  0.4881400600293  0.3201872034236  0.6328205658812 1.0
C      1  0.5165035847395  0.5883133227205  0.3085356191663 1.0
C      1  0.3572577910422  0.5652620063085  0.3165364051858 1.0
C      1  0.3449583449141  0.4702044073595  0.3252513250457 1.0
C      1  0.4741032400008  0.3856232714484  0.3251417305740 1.0
C      1  0.5665588554002  0.3892722108897  0.3391984189638 1.0
C      1  0.6267413262543  0.4682066224872  0.3339356741444 1.0
C      1  0.6098390164096  0.5618444878984  0.3214170787166 1.0
C      1  0.4724934277885  0.6156717829519  0.3898264054056 1.0
C      1  0.3750421411549  0.6158072952717  0.3923443412719 1.0
C      1  0.3455806465537  0.4240607049285  0.4087557295049 1.0
C      1  0.4191219507526  0.3595454978118  0.4037968676371 1.0
C      1  0.6046904984859  0.3592224396972  0.4254775211145 1.0
C      1  0.6455129555900  0.4460505051316  0.4259501354393 1.0
C      1  0.6581883180082  0.6201493032469  0.3758536167838 1.0
C      1  0.4484332039659  0.4793102102830  0.6700012283508 1.0
C      1  0.4295948560112  0.3857330061367  0.6755799564246 1.0
C      1  0.4255025283773  0.4517099620182  0.2750817599396 1.0
C      1  0.4439786873533  0.5470910343458  0.2645094902365 1.0
C      1  0.5290505147190  0.4901480607715  0.6194510417265 1.0
C      1  0.5380598347445  0.5276869653162  0.5280686379473 1.0
END
