TITL C-22165-366-2 -8.404 3375.00 -1469.18682517 0 0 180 (C1) n - 1
REM
REM Run started: at 2020.12.24 00:22:51 in /rds/project/t2_vol4/rds-t2-cs072/BORA/CARBON/AIRSS/Generating-Clusters/Str-Search/Higher-Symm/Only-C180/Try2-6A
REM VASP from code version vasp.5.4.4.18Apr17-6-g9f103f2a35 (build Oct 11 2019 16:45:47) gamma-only
REM
REM
REM
REM
REM ./C.cell (901f2866ec5ebbefad8c960c6350b03a)
REM AIRSS Version 0.9.1 bugfix July 2018 build 013d7b7c2542+ Fri, 06 Jul 2018 19:26:36 +0100
REM compiler GCC version 4.8.5 20150623 (Red Hat 4.8.5-39)
REM options -cpp -mtune=generic -march=x86-64 -g -O0
REM seed -816864409 -916017218 419713999 354448281 1067745502 -1651250004 -84947927 -2131102690 1109855245 -972352351 -1961910305 -2008862207
REM
REM C.POTCAR (d86ddea03c3ceb6dc662c8ad6801f873)
REM 
CELL 1.54180   15.00000   15.00000   15.00000   90.00000   90.00000   90.00000
LATT -1
SFAC C  
C      1  0.6948802767298  0.2520752702995  0.6759496115439 1.0
C      1  0.5157512180204  0.2754200230606  0.6229361732859 1.0
C      1  0.1893878420024  0.6820209963498  0.7015241849259 1.0
C      1  0.6373855985746  0.3064184907278  0.7308849307892 1.0
C      1  0.4704978253645  0.0720148069056  0.3933668320012 1.0
C      1  0.8320469446564  0.5792112895457  0.4161494331884 1.0
C      1  0.4569192660627  0.6895739547536  0.7566286778317 1.0
C      1  0.5119324464712  0.3464310277018  0.2614767851578 1.0
C      1  0.3864143855259  0.6227205100928  0.7296726728828 1.0
C      1  0.3598859519370  0.8058922037730  0.5979541976994 1.0
C      1  0.6712003988623  0.5645009351153  0.3399824460314 1.0
C      1  0.2611321787989  0.2466423161726  0.2569352933862 1.0
C      1  0.3528644748400  0.5937866850467  0.3975135485812 1.0
C      1  0.6676716612434  0.3867755825493  0.2426025398983 1.0
C      1  0.5110933651779  0.4643120281682  0.6364921521331 1.0
C      1  0.0099362989520  0.5543989003143  0.5606410342843 1.0
C      1  0.9180152487746  0.3603615494821  0.3779913521260 1.0
C      1  0.4073936183169  0.1739989455847  0.2977577332570 1.0
C      1  0.7309279307677  0.4500086488834  0.2312493358517 1.0
C      1  0.4725180317144  0.6938064301095  0.5188557757798 1.0
C      1  0.5446285471133  0.4639994722129  0.1537778739590 1.0
C      1  0.6276396751351  0.6528868732844  0.7933866791106 1.0
C      1  0.7787069393141  0.4515262821257  0.5750054246738 1.0
C      1  0.5434689643755  0.4474168577870  0.4866912039773 1.0
C      1  0.2022406978941  0.4873733289418  0.8047074578460 1.0
C      1  0.3269403843747  0.3363172208164  0.7409296636898 1.0
C      1  0.3333249588869  0.4671306584523  0.1647123140877 1.0
C      1  0.5621198296612  0.8786816582296  0.7028520274411 1.0
C      1  0.3275107391213  0.5007201953803  0.9375280945856 1.0
C      1  0.7391838927820  0.4443457224290  0.7580207115559 1.0
C      1  0.3423902277387  0.3884985677872  0.3887094685426 1.0
C      1  0.6588282769538  0.1989254663131  0.6034405330778 1.0
C      1  0.1863578436399  0.2266523144483  0.4126054049713 1.0
C      1  0.4491198897942  0.3286850868033  0.5600273082442 1.0
C      1  0.9152465456925  0.5452244926970  0.5528491121244 1.0
C      1  0.6136969678823  0.8582031980485  0.3898287069503 1.0
C      1  0.3600363576056  0.5692756853044  0.8056894624446 1.0
C      1  0.6005752058631  0.6171411457336  0.5313266267753 1.0
C      1  0.5720915662413  0.2175927041483  0.5733711793921 1.0
C      1  0.7368121245893  0.2029818963476  0.3715648062767 1.0
C      1  0.0915873674683  0.5177489184081  0.5398368575086 1.0
C      1  0.8464223276672  0.3644880447207  0.3180152340241 1.0
C      1  0.8345112566973  0.2979353456833  0.5830351169862 1.0
C      1  0.6339946590805  0.3384049078192  0.4000484808278 1.0
C      1  0.5307588251074  0.8404443604957  0.4487354998894 1.0
C      1  0.2807045396004  0.3246437774295  0.2090947373017 1.0
C      1  0.7394265586236  0.5402820908424  0.4188062498328 1.0
C      1  0.5495436699455  0.1991398968487  0.4765357068025 1.0
C      1  0.1519985504980  0.5177863009287  0.7275797450790 1.0
C      1  0.6362877950707  0.8994398737449  0.6711279179801 1.0
C      1  0.5034454488833  0.2953676114263  0.3384106393444 1.0
C      1  0.4326782026237  0.8756493078641  0.6055764963173 1.0
C      1  0.6312361370576  0.6987538870192  0.4981281781179 1.0
C      1  0.2737349310123  0.7180014182449  0.4741074108282 1.0
C      1  0.7253978161909  0.7221016574932  0.4958552417877 1.0
C      1  0.4706757539470  0.1312177211915  0.4748003571263 1.0
C      1  0.7272182780260  0.5551971446782  0.2502291116401 1.0
C      1  0.4237200359425  0.7791677243069  0.7332462474396 1.0
C      1  0.2332440985725  0.3331497697221  0.7357649801918 1.0
C      1  0.5106069446063  0.3558017401675  0.4904110013800 1.0
C      1  0.4110879292533  0.5335034563881  0.8858635538794 1.0
C      1  0.4276357575909  0.0264410748183  0.5777599115507 1.0
C      1  0.6636060028861  0.2095349959759  0.3093403305213 1.0
C      1  0.6920645080678  0.8804624912632  0.4413869552333 1.0
C      1  0.5761534203612  0.5454469090742  0.1326816555581 1.0
C      1  0.3828943427514  0.4106924173213  0.1106643193626 1.0
C      1  0.7042439666541  0.4493051005282  0.4349776910182 1.0
C      1  0.4415231998363  0.5477299455780  0.4020982498468 1.0
C      1  0.9368035400493  0.3532288374244  0.4586633300654 1.0
C      1  0.7693967806124  0.3047833656062  0.3571804681826 1.0
C      1  0.4945105617337  0.5316740743991  0.3323319149355 1.0
C      1  0.8211309480509  0.4392800436688  0.2631267925293 1.0
C      1  0.6097406847394  0.4375343481216  0.4091283258616 1.0
C      1  0.6837227381507  0.7313498788497  0.2844022641129 1.0
C      1  0.6790785868497  0.3116209847778  0.3078026163504 1.0
C      1  0.6328568896767  0.6560535424477  0.3279741741545 1.0
C      1  0.2839038520751  0.5168566161144  0.3876663227827 1.0
C      1  0.1750491442382  0.7032629092903  0.4515497779979 1.0
C      1  0.7149274200971  0.8749422391377  0.6289044968456 1.0
C      1  0.2357163693004  0.7370135780045  0.3128586474821 1.0
C      1  0.6611511454201  0.6504797232210  0.2257495440518 1.0
C      1  0.7120928359405  0.5040513224362  0.8316623209415 1.0
C      1  0.1436884571648  0.6030125729233  0.6833919151976 1.0
C      1  0.4632377908549  0.6931054391235  0.2950694638596 1.0
C      1  0.5416014024992  0.7410773996282  0.4592965191550 1.0
C      1  0.4994228709381  0.9940359652179  0.5295088984437 1.0
C      1  0.8783950487765  0.4616399604376  0.5663768007737 1.0
C      1  0.1623760910785  0.4820895858320  0.4861417487179 1.0
C      1  0.3741614383195  0.2797514316721  0.5067452258429 1.0
C      1  0.7955429908349  0.6734768073516  0.5299478215503 1.0
C      1  0.7482632900448  0.4814311940860  0.6689773259070 1.0
C      1  0.7039967495260  0.5623908945273  0.6565614323573 1.0
C      1  0.8292938961412  0.5371451645682  0.2713323048087 1.0
C      1  0.3752731547940  0.5040841118415  0.2401448965704 1.0
C      1  0.3088260121558  0.8043283161019  0.5137257058740 1.0
C      1  0.4808188160830  0.4016266482269  0.1175722143580 1.0
C      1  0.7051864805601  0.6366906035465  0.7250814781486 1.0
C      1  0.2103758649196  0.3350846706243  0.5632003436902 1.0
C      1  0.2854241891151  0.5166081128238  0.8415286295972 1.0
C      1  0.3631953485583  0.6750024182299  0.3296924975867 1.0
C      1  0.4224926920755  0.4193452882252  0.6056719924875 1.0
C      1  0.4372899705448  0.8709316276824  0.4355857607833 1.0
C      1  0.4836876701416  0.8974304815433  0.5201146691972 1.0
C      1  0.8560688733293  0.6132160165266  0.5082751101502 1.0
C      1  0.1331322635396  0.4230244521799  0.7021578465436 1.0
C      1  0.2852659782802  0.2647157592844  0.5471475588373 1.0
C      1  0.4044533308854  0.1179407689122  0.5484736265942 1.0
C      1  0.4753225574968  0.3760362056745  0.7502216131486 1.0
C      1  0.3217332846123  0.6283986938154  0.4878248148928 1.0
C      1  0.7446416677047  0.8153558961746  0.4777639102147 1.0
C      1  0.2750482754091  0.6671671543085  0.2658288480352 1.0
C      1  0.5338785568437  0.6399214539201  0.7767589480629 1.0
C      1  0.3932710508952  0.3763904312245  0.6901465691937 1.0
C      1  0.4957912236576  0.1239391429676  0.3182912734983 1.0
C      1  0.2314967476721  0.2022392898031  0.3373574704059 1.0
C      1  0.3311694045879  0.7838913610741  0.6935683717065 1.0
C      1  0.4183675425383  0.2523737179150  0.3415515323084 1.0
C      1  0.2594693260839  0.4262510440423  0.2228087527764 1.0
C      1  0.7924944518434  0.2502084014336  0.6613607359589 1.0
C      1  0.4760122981604  0.8503575691698  0.6907578175198 1.0
C      1  0.5786553732369  0.4724055053122  0.5781781921380 1.0
C      1  0.5703804561342  0.4545927514405  0.9072635270030 1.0
C      1  0.2531120227991  0.7369524267217  0.7078783647496 1.0
C      1  0.2315555964785  0.5904566756096  0.2310001102089 1.0
C      1  0.1883394471563  0.5410730016688  0.4138636051901 1.0
C      1  0.0873897059605  0.5828917113251  0.6062547518161 1.0
C      1  0.7515635922843  0.7970152148078  0.6712435454358 1.0
C      1  0.3886441188612  0.3741064753702  0.8085688708035 1.0
C      1  0.6121338041004  0.1268027200443  0.4302383408017 1.0
C      1  0.5084945710478  0.6047230721958  0.5238551456212 1.0
C      1  0.7286151926849  0.8864961188553  0.5355496165031 1.0
C      1  0.5503561593547  0.2915173758588  0.4285846235571 1.0
C      1  0.6781038052791  0.3754719221109  0.7879016066715 1.0
C      1  0.3512727839279  0.1926611523059  0.5513675557620 1.0
C      1  0.4890015239792  0.6397058360245  0.2227807696804 1.0
C      1  0.6499404789299  0.5438106010896  0.5720875220596 1.0
C      1  0.3128913434093  0.7520529116427  0.3793420141260 1.0
C      1  0.5767306254904  0.4237327570571  0.2448414772017 1.0
C      1  0.7346798850678  0.3545593286059  0.4437088729048 1.0
C      1  0.5478497214479  0.7155128485802  0.3527737657743 1.0
C      1  0.2025540726874  0.5113860212999  0.2232122445500 1.0
C      1  0.5779770653156  0.6228320312469  0.1815179616466 1.0
C      1  0.6946916819553  0.5938571118134  0.8149670878299 1.0
C      1  0.5129661078614  0.4707396644704  0.7310645785680 1.0
C      1  0.1540974544373  0.7148910373725  0.3596374268610 1.0
C      1  0.3796902714974  0.4852843156672  0.5362481090610 1.0
C      1  0.4105396606959  0.7142429891212  0.5851236994839 1.0
C      1  0.3552021314640  0.8267805455127  0.4341433035955 1.0
C      1  0.2255060459931  0.4188782786162  0.5086130431777 1.0
C      1  0.4612258235151  0.3318033331170  0.1804936511941 1.0
C      1  0.8739721460641  0.5787099273484  0.3376828107639 1.0
C      1  0.5221912856607  0.5408459512397  0.7867083186265 1.0
C      1  0.5388329908349  0.0549059651546  0.4608588106544 1.0
C      1  0.4496470033326  0.5530963424172  0.2487932970589 1.0
C      1  0.1793064834639  0.3529900863453  0.6552465692446 1.0
C      1  0.3115529424340  0.4468380548954  0.4632843696662 1.0
C      1  0.9026030448698  0.3665376433149  0.5455401052300 1.0
C      1  0.6475983943090  0.4363782724881  0.8624828587712 1.0
C      1  0.2018210543416  0.2584281125349  0.4929817116019 1.0
C      1  0.1494891474889  0.6262174707668  0.4069449460552 1.0
C      1  0.3075568093740  0.1701166435100  0.2859200906338 1.0
C      1  0.5072901745849  0.5132345458630  0.8812961610744 1.0
C      1  0.3627924724204  0.3286189003430  0.1600283039716 1.0
C      1  0.1817676327746  0.3972325111648  0.7863540624236 1.0
C      1  0.5884321942637  0.1509709730487  0.3310130783038 1.0
C      1  0.7295948918801  0.1706826018180  0.5414829392182 1.0
C      1  0.7069718164927  0.1553707608053  0.4504674474615 1.0
C      1  0.7450178961590  0.7213934454400  0.7032164073329 1.0
C      1  0.7771333867038  0.3581651841490  0.5335580996659 1.0
C      1  0.3394624449929  0.5761614240092  0.5636358902450 1.0
C      1  0.5418914514359  0.3072502207031  0.7103110082494 1.0
C      1  0.3694119054595  0.3045742691912  0.4066804628543 1.0
C      1  0.7191699105854  0.5062668808695  0.5125407311758 1.0
C      1  0.4675964346069  0.5191543225027  0.4891510688225 1.0
C      1  0.3177675660194  0.4524148001930  0.3117520082903 1.0
C      1  0.8103441940560  0.2029912787345  0.5821726117103 1.0
C      1  0.3582116918609  0.4437855692041  0.8655784122141 1.0
C      1  0.6148109111531  0.7909511969674  0.3246998165723 1.0
C      1  0.5848199905462  0.4918124792898  0.3285265406938 1.0
C      1  0.3733558317041  0.6310333027756  0.6361179886526 1.0
END
