TITL C-227954-529-2 -6.566 3375.00 -1136.80503236 0 0 139 (C1) n - 1
REM
REM Run started: at 2020.12.03 10:00:57 in /rds/project/t2_vol4/rds-t2-cs072/BORA/CARBON/AIRSS/Generating-Clusters/Str-Search/Higher-Symm/C100-200
REM VASP from code version vasp.5.4.4.18Apr17-6-g9f103f2a35 (build Oct 11 2019 16:45:47) gamma-only
REM
REM
REM
REM
REM ./C.cell (533062f00bc710175b3da973d35f2034)
REM AIRSS Version 0.9.1 bugfix July 2018 build 013d7b7c2542+ Fri, 06 Jul 2018 19:26:36 +0100
REM compiler GCC version 4.8.5 20150623 (Red Hat 4.8.5-39)
REM options -cpp -mtune=generic -march=x86-64 -g -O0
REM seed -1350782424 1711286638 -1903568860 1846125324 -1931674415 1950915771 -1369704359 1727374571 552330744 1776506157 782059745 831808841
REM
REM C.POTCAR (d86ddea03c3ceb6dc662c8ad6801f873)
REM 
CELL 1.54180   15.00000   15.00000   15.00000   90.00000   90.00000   90.00000
LATT -1
SFAC C  
C      1  0.7012532726010  0.3495084836915  0.6672270107499 1.0
C      1  0.5300988604352  0.7609621133532  0.6750638871915 1.0
C      1  0.2535021684699  0.3941876904532  0.6705370090046 1.0
C      1  0.7077481178899  0.3469377005443  0.3280624300295 1.0
C      1  0.5287525812355  0.7606351809605  0.3219072163854 1.0
C      1  0.2489982506106  0.3913619138291  0.3162629673154 1.0
C      1  0.5465102570746  0.5761970692103  0.6605541717946 1.0
C      1  0.4003195122849  0.5001087697611  0.6318477051811 1.0
C      1  0.5397849839780  0.4135662615617  0.6221568021296 1.0
C      1  0.5593327920088  0.5858468631025  0.3399001224742 1.0
C      1  0.3864196131261  0.5126811759414  0.3221189144552 1.0
C      1  0.5444358024970  0.4030761926873  0.3520721668254 1.0
C      1  0.2829163151921  0.5986286892837  0.7411940604028 1.0
C      1  0.5184591747441  0.2675358119584  0.7364372313034 1.0
C      1  0.7048402881370  0.6388990555319  0.7360268861265 1.0
C      1  0.2648634515898  0.5997747842312  0.2544536527671 1.0
C      1  0.5169963886243  0.2540713516526  0.2609457121661 1.0
C      1  0.7034912515963  0.6347159770121  0.2635790438563 1.0
C      1  0.5893567895871  0.2127524458571  0.4048565777495 1.0
C      1  0.6984353499914  0.7199078695308  0.4082771827179 1.0
C      1  0.2021008718390  0.5609323821885  0.4054321407496 1.0
C      1  0.5886567847341  0.2123389820957  0.5928405726361 1.0
C      1  0.7024071564015  0.7249413663013  0.5939929435862 1.0
C      1  0.2040457786577  0.5643036879976  0.5939395899370 1.0
C      1  0.6264615200227  0.5704880670823  0.4045544890118 1.0
C      1  0.3701133357834  0.5805776457242  0.4002121905443 1.0
C      1  0.4858893574152  0.3463771885311  0.4017468215272 1.0
C      1  0.6346550728014  0.5739318486353  0.6054317931814 1.0
C      1  0.3669222682076  0.5866472175294  0.5957746430205 1.0
C      1  0.4830334042678  0.3397493406710  0.5902756658044 1.0
C      1  0.6723917823461  0.8057922187916  0.5482893251164 1.0
C      1  0.1470102707688  0.4981060107820  0.5491607903698 1.0
C      1  0.6746933002402  0.2015708205476  0.5476339269156 1.0
C      1  0.6711591961560  0.8034080693739  0.4519397267589 1.0
C      1  0.1467945729352  0.4952519696708  0.4526913042877 1.0
C      1  0.6745483563572  0.2002269135486  0.4518768952474 1.0
C      1  0.2006058907167  0.3482062203673  0.3882155404574 1.0
C      1  0.7790078500577  0.3243842645309  0.3916001846715 1.0
C      1  0.5163304356481  0.8282515670472  0.3903768191791 1.0
C      1  0.1996153995910  0.3483805452426  0.6043589583684 1.0
C      1  0.7739252778175  0.3272925797066  0.6048435800799 1.0
C      1  0.5160518474895  0.8287781776030  0.6075040938893 1.0
C      1  0.3943762291182  0.1538476801998  0.3552992735931 1.0
C      1  0.8483931954671  0.5900463169548  0.3575327629684 1.0
C      1  0.2557711423559  0.7537710293465  0.3505829727782 1.0
C      1  0.3965582378737  0.1647605572752  0.6483379507948 1.0
C      1  0.8482477074735  0.5922495802819  0.6378142285655 1.0
C      1  0.2531928297041  0.7523829339456  0.6460860709437 1.0
C      1  0.2845523298288  0.7516890425989  0.4519421873966 1.0
C      1  0.3836153359935  0.1876537202331  0.4531453749417 1.0
C      1  0.8239239503300  0.5635885834869  0.4516722745784 1.0
C      1  0.2836875005457  0.7507981295522  0.5444406037146 1.0
C      1  0.3816354628901  0.1863079350109  0.5461832898490 1.0
C      1  0.8228981928444  0.5647146880364  0.5435424390911 1.0
C      1  0.8000223520779  0.3921260684012  0.5450845735750 1.0
C      1  0.4497035111085  0.8171656013032  0.5452184376435 1.0
C      1  0.2422830704408  0.2961037831272  0.5420255199397 1.0
C      1  0.8018074303852  0.3907698097206  0.4516502225230 1.0
C      1  0.4498041536445  0.8164700689502  0.4526040124283 1.0
C      1  0.2446426223167  0.2960232343337  0.4492567206231 1.0
C      1  0.5954350227374  0.2305119719335  0.3092770621812 1.0
C      1  0.6829569446652  0.7139925269507  0.3126636994756 1.0
C      1  0.2076442408961  0.5476265767381  0.3100714427297 1.0
C      1  0.5947170460557  0.2366953257029  0.6867870627639 1.0
C      1  0.6845728307578  0.7192628453911  0.6891293558570 1.0
C      1  0.2205873486361  0.5467294256794  0.6883918651662 1.0
C      1  0.3891880318086  0.3549201798187  0.7490091466898 1.0
C      1  0.7167902724485  0.4951716324604  0.7946808410307 1.0
C      1  0.4208336129084  0.6716741662974  0.7522275004246 1.0
C      1  0.3913002179642  0.3430193138036  0.2366938345841 1.0
C      1  0.7142466830219  0.4879407775958  0.2046540371307 1.0
C      1  0.4169938947780  0.6584453408783  0.2526916264386 1.0
C      1  0.7367131805113  0.2375467814728  0.6104866312923 1.0
C      1  0.6131832206869  0.8418910794932  0.6118745669812 1.0
C      1  0.1430818673216  0.4281312216443  0.6113197549270 1.0
C      1  0.7355208577154  0.2367791007925  0.3889819140792 1.0
C      1  0.6135588329756  0.8398980092026  0.3872624683933 1.0
C      1  0.1396291722405  0.4257028246565  0.3894693176393 1.0
C      1  0.4872415083215  0.3424877624235  0.2238368393212 1.0
C      1  0.6527099986127  0.5611088402819  0.2173855563687 1.0
C      1  0.3694380505172  0.5704286204243  0.2400294760660 1.0
C      1  0.4852162000230  0.3608509471116  0.7695626583692 1.0
C      1  0.6559221014514  0.5679669575827  0.7866043540885 1.0
C      1  0.3836037351802  0.5856719232828  0.7774696880151 1.0
C      1  0.3921867298658  0.3432257245935  0.5972010120971 1.0
C      1  0.6788250275760  0.4934504355371  0.6034551164157 1.0
C      1  0.4151207175493  0.6645371915015  0.6032482144117 1.0
C      1  0.3932038870353  0.3499686905847  0.3907170367980 1.0
C      1  0.6778657470317  0.4880076604990  0.3989613245837 1.0
C      1  0.4179242139584  0.6593678689386  0.3983999377991 1.0
C      1  0.3283400466181  0.2654703241244  0.5814380837883 1.0
C      1  0.7797403071111  0.4820584373644  0.5852432298204 1.0
C      1  0.3784019901385  0.7582369344537  0.5827144407913 1.0
C      1  0.3336578420742  0.2689254191362  0.4132635189035 1.0
C      1  0.7806358227560  0.4801924012280  0.4106363655320 1.0
C      1  0.3803313020544  0.7550065767743  0.4159246525025 1.0
C      1  0.4393100434902  0.1992143006238  0.2766593157770 1.0
C      1  0.7946598545276  0.6059339899603  0.2770633828188 1.0
C      1  0.2645924748004  0.6908712683049  0.2669651368780 1.0
C      1  0.4425841302198  0.2118965991626  0.7262353317623 1.0
C      1  0.7965111943614  0.6087149369600  0.7192706047759 1.0
C      1  0.2712164983137  0.6912251103225  0.7282217530305 1.0
C      1  0.3614340181220  0.2655534612552  0.7482868597033 1.0
C      1  0.8006996679338  0.5167505116870  0.7634169312128 1.0
C      1  0.3553834785002  0.7384096930990  0.7500454167792 1.0
C      1  0.3600947380946  0.2513765810639  0.2416269739940 1.0
C      1  0.7993896621513  0.5135075744948  0.2321843203837 1.0
C      1  0.3552722669357  0.7270274116019  0.2495862667593 1.0
C      1  0.6846774960664  0.2600362231199  0.6933946264449 1.0
C      1  0.6183899281379  0.7856079955504  0.6957846383024 1.0
C      1  0.1898259579022  0.4583799279447  0.6954756004072 1.0
C      1  0.6852296453495  0.2575537085031  0.3044934870512 1.0
C      1  0.6185146356997  0.7817831742514  0.3041118027638 1.0
C      1  0.1828505149332  0.4581352560399  0.3048699843952 1.0
C      1  0.4888380276670  0.6681619773272  0.6726879050913 1.0
C      1  0.3536309490579  0.4100125484764  0.6620112089945 1.0
C      1  0.6363313143865  0.4145425110205  0.6358285523505 1.0
C      1  0.4909840840723  0.6658312206111  0.3271692387470 1.0
C      1  0.3504519575279  0.4058533832631  0.3149068921629 1.0
C      1  0.6420430658188  0.4117779918076  0.3618284507307 1.0
C      1  0.8277591643426  0.5035167774281  0.6738762044111 1.0
C      1  0.3389492225309  0.7869200664995  0.6701611548081 1.0
C      1  0.3237638606870  0.2235527439562  0.6722318351363 1.0
C      1  0.8270995064406  0.5014907370207  0.3213121643610 1.0
C      1  0.3429158185413  0.7823461651614  0.3265717560395 1.0
C      1  0.3317930357169  0.2213466589665  0.3253628541539 1.0
C      1  0.6722189078412  0.6458055039133  0.5504281833787 1.0
C      1  0.2829197868437  0.5837688513612  0.5441537297167 1.0
C      1  0.5288861132449  0.2670027535013  0.5436024017231 1.0
C      1  0.6678623014813  0.6432918669509  0.4571351356195 1.0
C      1  0.2848594650413  0.5780634767592  0.4507933903994 1.0
C      1  0.5293741313191  0.2707616098314  0.4510509376603 1.0
C      1  0.4579514628518  0.5090727226096  0.2476961340187 1.0
C      1  0.5198719679817  0.4310676474579  0.2591187886475 1.0
C      1  0.5589610324426  0.5332485995375  0.2527461520187 1.0
C      1  0.4586140900569  0.5291924511657  0.7969653558781 1.0
C      1  0.5102230432584  0.4515286294695  0.7892273613559 1.0
C      1  0.5578794043436  0.5407148425472  0.7664347062929 1.0
C      1  0.4937500686335  0.4965781761772  0.6263923776944 1.0
END
