TITL C-22306-6888-1 -1.746 3375.00 -297.60461853 0 0 36 (Cs) n - 1
REM
REM Run started: at 2020.12.28 00:59:56 in /rds/project/t2_vol4/rds-t2-cs072/BORA/CARBON/AIRSS/Generating-Clusters/Str-Search/Higher-Symm/C10-100
REM VASP from code version vasp.5.4.4.18Apr17-6-g9f103f2a35 (build Oct 11 2019 16:45:47) gamma-only
REM
REM
REM
REM
REM ./C.cell (f39ce9773e2efe3fa5bbdf770a4156b8)
REM AIRSS Version 0.9.1 bugfix July 2018 build 013d7b7c2542+ Fri, 06 Jul 2018 19:26:36 +0100
REM compiler GCC version 4.8.5 20150623 (Red Hat 4.8.5-39)
REM options -cpp -mtune=generic -march=x86-64 -g -O0
REM seed 559823154 1658317612 2050975050 -493090746 768933313 173858143 1934419561 1784371229 -2141908347 1613431411 -2021625406 137715878
REM
REM C.POTCAR (d86ddea03c3ceb6dc662c8ad6801f873)
REM 
CELL 1.54180   15.00000   15.00000   15.00000   90.00000   90.00000   90.00000
LATT -1
SFAC C  
C      1  0.6434848131457  0.6059529932762  0.5165602515718 1.0
C      1  0.6561514961779  0.5105544487003  0.5436354860608 1.0
C      1  0.5951633423801  0.3253237386502  0.5463919490262 1.0
C      1  0.5047541243347  0.2913122717099  0.5448350006087 1.0
C      1  0.3353629246253  0.3711855526768  0.5446268404972 1.0
C      1  0.3042544688283  0.4626527372933  0.5460696448540 1.0
C      1  0.4089064747879  0.6268483874258  0.5431643891130 1.0
C      1  0.4906960760624  0.6775684041781  0.5162899969731 1.0
C      1  0.5746245304119  0.6579427716530  0.5653058933209 1.0
C      1  0.3718037227055  0.3412796968932  0.4648431107145 1.0
C      1  0.3105615801839  0.5146042513744  0.4691199049919 1.0
C      1  0.3568150770464  0.5983707277937  0.4697149323331 1.0
C      1  0.5009765213500  0.6970297674374  0.4252423409471 1.0
C      1  0.5891578630955  0.6882496782739  0.3861540969638 1.0
C      1  0.6521291064285  0.6260736192073  0.4254931858222 1.0
C      1  0.6672148016004  0.4520540875166  0.4702347909771 1.0
C      1  0.6315355719508  0.3631961813035  0.4695518908481 1.0
C      1  0.4586720490813  0.3002017433707  0.4649241984394 1.0
C      1  0.6283730626349  0.4718058304337  0.3818981691294 1.0
C      1  0.5779946090579  0.3855370404586  0.3894108111275 1.0
C      1  0.4889574097045  0.3572326713040  0.3897755876352 1.0
C      1  0.3965339704037  0.4006928636826  0.3895768501959 1.0
C      1  0.3617079532605  0.4872723534071  0.3889520164983 1.0
C      1  0.3967081774708  0.5809369596916  0.3813630779298 1.0
C      1  0.4674398629826  0.6330929374735  0.3559728822590 1.0
C      1  0.5590129490195  0.6240443902213  0.3194961558509 1.0
C      1  0.6242646295401  0.5594259648803  0.3561549280875 1.0
C      1  0.3958202327889  0.3885883436113  0.6221560639968 1.0
C      1  0.3618071634673  0.4848783633860  0.6190909110062 1.0
C      1  0.4082412203173  0.5672640197073  0.6226993282823 1.0
C      1  0.4846920112208  0.5776863181815  0.6776327517735 1.0
C      1  0.5606566770892  0.6284597415299  0.6511473712020 1.0
C      1  0.5694825956334  0.5376488661305  0.6778302328173 1.0
C      1  0.6102603541771  0.4720618380288  0.6230173406443 1.0
C      1  0.5759714845620  0.3839339886774  0.6193883874074 1.0
C      1  0.4798110924730  0.3490365504605  0.6222792300936 1.0
END
