TITL C-227548-6712-27 -2.633 3375.00 -478.17306313 0 0 60 (C2) n - 1
REM
REM Run started: at 2020.11.27 11:00:35 in /rds/project/t2_vol4/rds-t2-cs072/BORA/CARBON/AIRSS/Generating-Clusters/Str-Search/Higher-Symm/Only-C60
REM VASP from code version vasp.5.4.4.18Apr17-6-g9f103f2a35 (build Oct 11 2019 16:45:47) gamma-only
REM
REM
REM
REM
REM ./C.cell (5f7b7a0d59291d2373303da1f58b8d66)
REM AIRSS Version 0.9.1 bugfix July 2018 build 013d7b7c2542+ Fri, 06 Jul 2018 19:26:36 +0100
REM compiler GCC version 4.8.5 20150623 (Red Hat 4.8.5-39)
REM options -cpp -mtune=generic -march=x86-64 -g -O0
REM seed -1736217761 -362871525 1495214847 -479734837 -1415440243 -1268665365 1648124707 -543492400 -1125624949 -1244619467 -775325695 286137783
REM
REM C.POTCAR (d86ddea03c3ceb6dc662c8ad6801f873)
REM 
CELL 1.54180   15.00000   15.00000   15.00000   90.00000   90.00000   90.00000
LATT -1
SFAC C  
C      1  0.4499186015041  0.5685474957727  0.4513656976490 1.0
C      1  0.4466055597248  0.4731298155371  0.4181444264515 1.0
C      1  0.4494753506071  0.4138266687096  0.5009849279521 1.0
C      1  0.4509071057674  0.4721031286098  0.5820212416709 1.0
C      1  0.4484986018455  0.5687242889273  0.5507441608502 1.0
C      1  0.5500820389537  0.5685477427524  0.5486363512742 1.0
C      1  0.5533942417207  0.4731292174393  0.5818561405989 1.0
C      1  0.5505246250441  0.4138268916961  0.4990148559886 1.0
C      1  0.5490927926337  0.4721036569131  0.4179791092036 1.0
C      1  0.5515011543230  0.5687242916477  0.4492575925120 1.0
C      1  0.5512079242907  0.5158586522987  0.2789622945667 1.0
C      1  0.5335837233163  0.2898989839597  0.4125101126146 1.0
C      1  0.5562174630660  0.3549650844085  0.6706976131210 1.0
C      1  0.5433457415253  0.6215934683163  0.6862513626378 1.0
C      1  0.5521348460247  0.7332432736093  0.4457157039769 1.0
C      1  0.4487912009536  0.5158546577677  0.7210372427439 1.0
C      1  0.4664157575633  0.2898984213680  0.5874860839749 1.0
C      1  0.4437819588824  0.3549675035228  0.3293006381144 1.0
C      1  0.4566541226166  0.6215943210267  0.3137509960736 1.0
C      1  0.4478655184069  0.7332427655537  0.5542883185485 1.0
C      1  0.3033301790310  0.4505307002017  0.3331567734479 1.0
C      1  0.3186696045239  0.3565878190864  0.5440015666425 1.0
C      1  0.3184702352332  0.4140572573112  0.6252406042655 1.0
C      1  0.3159377536481  0.6389824842078  0.5504752437442 1.0
C      1  0.3167879121705  0.6375128241657  0.4501744180985 1.0
C      1  0.6966692358499  0.4505297843989  0.6668428529118 1.0
C      1  0.6813297188655  0.3565893746247  0.4559964415097 1.0
C      1  0.6815297053056  0.4140588686182  0.3747585596216 1.0
C      1  0.6840621711261  0.6389842413085  0.4495276440155 1.0
C      1  0.6832122679629  0.6375131491544  0.5498278735957 1.0
C      1  0.2577538475379  0.4757647636208  0.5798308330525 1.0
C      1  0.2563907747762  0.5625289989348  0.5512678831570 1.0
C      1  0.2586886835117  0.5606501821266  0.4514784079131 1.0
C      1  0.2657960403732  0.4704480674798  0.4168866582840 1.0
C      1  0.2591479336623  0.4179683881348  0.4983114584320 1.0
C      1  0.7422470890088  0.4757680117248  0.4201684212679 1.0
C      1  0.7436101077808  0.5625300882322  0.4487317425997 1.0
C      1  0.7413117973557  0.5606498812656  0.5485220452119 1.0
C      1  0.7342034780307  0.4704484281366  0.5831125537445 1.0
C      1  0.7408529044355  0.4179715489487  0.5016874073771 1.0
C      1  0.5350488042607  0.3497305948423  0.3271510522587 1.0
C      1  0.5586897387254  0.2902537542084  0.5814403924775 1.0
C      1  0.5414431087972  0.5202455976377  0.7197078490379 1.0
C      1  0.5414995237237  0.7197591327870  0.5436690552437 1.0
C      1  0.5508010559368  0.6199421373303  0.3159121904100 1.0
C      1  0.4649515475691  0.3497229966700  0.6728399099994 1.0
C      1  0.4413111490039  0.2902547972713  0.4185569255301 1.0
C      1  0.4585555043625  0.5202484553969  0.2802928712465 1.0
C      1  0.4585005776195  0.7197603787552  0.4563340776682 1.0
C      1  0.4491988625953  0.6199410389089  0.6840893800350 1.0
C      1  0.4038976573740  0.6518679909271  0.5974540450930 1.0
C      1  0.4087224212693  0.6487050981811  0.4045514262394 1.0
C      1  0.4029067534935  0.4480541375832  0.3286596623937 1.0
C      1  0.4072179483358  0.3198816496530  0.5107317002861 1.0
C      1  0.4085044277324  0.4346323325446  0.6688190515465 1.0
C      1  0.5961029016194  0.6518689563797  0.4025481156953 1.0
C      1  0.5912777205409  0.6487063654307  0.5954513810724 1.0
C      1  0.5970929861665  0.4480512472490  0.6713406929973 1.0
C      1  0.5927818178690  0.3198824290124  0.4892656902633 1.0
C      1  0.5914957240457  0.4346361177125  0.3311802710900 1.0
END
