TITL C-227548-6712-10 -2.843 3375.00 -468.90516314 0 0 60 (C1) n - 1
REM
REM Run started: at 2020.11.27 06:58:56 in /rds/project/t2_vol4/rds-t2-cs072/BORA/CARBON/AIRSS/Generating-Clusters/Str-Search/Higher-Symm/Only-C60
REM VASP from code version vasp.5.4.4.18Apr17-6-g9f103f2a35 (build Oct 11 2019 16:45:47) gamma-only
REM
REM
REM
REM
REM ./C.cell (5f7b7a0d59291d2373303da1f58b8d66)
REM AIRSS Version 0.9.1 bugfix July 2018 build 013d7b7c2542+ Fri, 06 Jul 2018 19:26:36 +0100
REM compiler GCC version 4.8.5 20150623 (Red Hat 4.8.5-39)
REM options -cpp -mtune=generic -march=x86-64 -g -O0
REM seed 1573426630 1976664366 160652920 -194426564 -1358967671 -1260253220 -132888393 1266353625 938658529 -1371532605 1753297496 -847772359
REM
REM C.POTCAR (d86ddea03c3ceb6dc662c8ad6801f873)
REM 
CELL 1.54180   15.00000   15.00000   15.00000   90.00000   90.00000   90.00000
LATT -1
SFAC C  
C      1  0.6869310926038  0.4065152251472  0.6360874971431 1.0
C      1  0.3268598363317  0.3860546653989  0.6356068978411 1.0
C      1  0.4879290940576  0.7069400688418  0.6348488132319 1.0
C      1  0.5217282123188  0.6841337846344  0.3698450716536 1.0
C      1  0.6422105077821  0.3914295236628  0.3723162895161 1.0
C      1  0.3292307401195  0.4282437968695  0.3708821316787 1.0
C      1  0.6687388606209  0.4082939556651  0.5344918029620 1.0
C      1  0.3374802329748  0.3997787549364  0.5334959314053 1.0
C      1  0.4949677485938  0.6907595800687  0.5329936331841 1.0
C      1  0.4890441615652  0.5909218405993  0.5240830656078 1.0
C      1  0.5862342655303  0.4637399477216  0.5265958333666 1.0
C      1  0.4271044746655  0.4433811634454  0.5252317821146 1.0
C      1  0.3741385225588  0.2817921167476  0.4227492685815 1.0
C      1  0.3734269671433  0.7178780055942  0.4226398209569 1.0
C      1  0.7504099272238  0.5010946969829  0.4221663548185 1.0
C      1  0.5550752630020  0.7180331490525  0.4564687935807 1.0
C      1  0.6600266713767  0.3428807134850  0.4579358386359 1.0
C      1  0.2836686536089  0.4392083772667  0.4573774646321 1.0
C      1  0.5449305860433  0.6535398516928  0.6962739825232 1.0
C      1  0.6116237534654  0.3845380379395  0.6973161241200 1.0
C      1  0.3447148600774  0.4625246593807  0.6966039380547 1.0
C      1  0.5258702131833  0.4445078947956  0.6672663598254 1.0
C      1  0.4392358325239  0.5060434882285  0.6662934965453 1.0
C      1  0.5355364510554  0.5503104780818  0.6664038266830 1.0
C      1  0.2818630531292  0.5269275163605  0.6812943704545 1.0
C      1  0.6322074606030  0.6760920856657  0.6814168897963 1.0
C      1  0.5879346393915  0.2980974271812  0.6806550169067 1.0
C      1  0.4147233379093  0.5357993408228  0.5666756044520 1.0
C      1  0.5749710898364  0.5562738326161  0.5669239504212 1.0
C      1  0.5122792854638  0.4071885967718  0.5682317377776 1.0
C      1  0.6275357848568  0.5516034938068  0.3121475666163 1.0
C      1  0.4787488516349  0.3638486629265  0.3135590260239 1.0
C      1  0.3918782766684  0.5861726942555  0.3137651050512 1.0
C      1  0.3899769650257  0.3541045389993  0.3596689628452 1.0
C      1  0.4274940569766  0.6687148480724  0.3586989031362 1.0
C      1  0.6803461671593  0.4803121314585  0.3587539348415 1.0
C      1  0.4950973948348  0.5509477893307  0.4352152986622 1.0
C      1  0.5523719359385  0.4768636869174  0.4365378725689 1.0
C      1  0.4594009789973  0.4651205179287  0.4359885868371 1.0
C      1  0.5503528531979  0.2551705669875  0.6154973097124 1.0
C      1  0.2652692711828  0.5794718916795  0.6147199831040 1.0
C      1  0.6853018687861  0.6653176271900  0.6141809159596 1.0
C      1  0.4561849279270  0.5347598925994  0.2652044540310 1.0
C      1  0.5499557872267  0.5201103067825  0.2653151910543 1.0
C      1  0.4908226278161  0.4459241321933  0.2659003822046 1.0
C      1  0.5739409247767  0.3015611514602  0.4518689598371 1.0
C      1  0.2918123984090  0.5354069222837  0.4515422761631 1.0
C      1  0.6340124478482  0.6636870060199  0.4506459937448 1.0
C      1  0.3196463436551  0.5678598507614  0.5409634842202 1.0
C      1  0.6492430532198  0.6232669206125  0.5403202557520 1.0
C      1  0.5325211394203  0.3089545514186  0.5421323146123 1.0
C      1  0.4007527876213  0.7324324413969  0.5046205428936 1.0
C      1  0.7508831852536  0.4687970006851  0.5040949151631 1.0
C      1  0.3478890515286  0.2980376824689  0.5049714641242 1.0
C      1  0.4137754369902  0.7430941863854  0.5975104622929 1.0
C      1  0.7549070959592  0.4520133475060  0.5968526546717 1.0
C      1  0.3309810326372  0.3038075806902  0.5978907764046 1.0
C      1  0.6105078808269  0.6322455382580  0.3597209533395 1.0
C      1  0.5574918932403  0.3358325417483  0.3594611998564 1.0
C      1  0.3298017856252  0.5316378215197  0.3610783658059 1.0
END
