TITL C-221851-7955-9 -3.586 3375.00 -589.51571353 0 0 74 (C1) n - 1
REM
REM Run started: at 2020.11.28 12:03:37 in /rds/project/t2_vol4/rds-t2-cs072/BORA/CARBON/AIRSS/Generating-Clusters/Str-Search/Higher-Symm/C10-100
REM VASP from code version vasp.5.4.4.18Apr17-6-g9f103f2a35 (build Oct 11 2019 16:45:47) gamma-only
REM
REM
REM
REM
REM ./C.cell (f39ce9773e2efe3fa5bbdf770a4156b8)
REM AIRSS Version 0.9.1 bugfix July 2018 build 013d7b7c2542+ Fri, 06 Jul 2018 19:26:36 +0100
REM compiler GCC version 4.8.5 20150623 (Red Hat 4.8.5-39)
REM options -cpp -mtune=generic -march=x86-64 -g -O0
REM seed -494438245 279383168 -621145029 -1595185062 -562415090 -176065405 1829430177 -1933857793 1031159161 -1626602979 803552948 400178363
REM
REM C.POTCAR (d86ddea03c3ceb6dc662c8ad6801f873)
REM 
CELL 1.54180   15.00000   15.00000   15.00000   90.00000   90.00000   90.00000
LATT -1
SFAC C  
C      1  0.7302343820694  0.6598247184213  0.5650240644177 1.0
C      1  0.6093585804650  0.7746263282203  0.5735275923571 1.0
C      1  0.4370068177152  0.7642893494091  0.5817946650437 1.0
C      1  0.3088952109498  0.7015453824461  0.5296862996212 1.0
C      1  0.2308610617086  0.5943048076894  0.4276756495011 1.0
C      1  0.2845375453687  0.4547216178086  0.4852044306594 1.0
C      1  0.3824196524567  0.3395501038162  0.5274875147754 1.0
C      1  0.5152989412657  0.2349769105852  0.4853756110900 1.0
C      1  0.6695290495721  0.2666691205377  0.5202624369579 1.0
C      1  0.7806125685871  0.3702412202420  0.5280225456332 1.0
C      1  0.8025689594800  0.5249193313937  0.5393977246776 1.0
C      1  0.4680929377930  0.2997023808752  0.5304876780566 1.0
C      1  0.5981072875480  0.2185797708461  0.4858722512783 1.0
C      1  0.7599580671962  0.2835013368771  0.5000857360163 1.0
C      1  0.8396881065266  0.4410572492506  0.5178151553074 1.0
C      1  0.8094651133275  0.6172832910313  0.5323464713464 1.0
C      1  0.6879190103565  0.7406165865629  0.5621638655506 1.0
C      1  0.5249044627229  0.7868194316215  0.5773505622787 1.0
C      1  0.3645491590683  0.7775562940251  0.5203289807107 1.0
C      1  0.2503924674458  0.6633637260137  0.4690858443461 1.0
C      1  0.2554198006229  0.5073631309091  0.4119061541673 1.0
C      1  0.3336940757816  0.3763404886760  0.4537874313974 1.0
C      1  0.5321106001649  0.3511565599271  0.5953760323128 1.0
C      1  0.6312922099490  0.3411615940395  0.5753910268017 1.0
C      1  0.6978203687368  0.4082585689985  0.5723760040047 1.0
C      1  0.7124719080241  0.5040910673444  0.5756595458946 1.0
C      1  0.6694853431133  0.5869049085492  0.5962108389434 1.0
C      1  0.5886960154834  0.5942389233801  0.6421049924446 1.0
C      1  0.4110178098900  0.6901670808298  0.6444790786462 1.0
C      1  0.3365700033712  0.6451435687607  0.6054895436125 1.0
C      1  0.3137007619181  0.5530859007692  0.6318215560389 1.0
C      1  0.3051519458038  0.4707445730545  0.5773298823932 1.0
C      1  0.3572030146379  0.3927965833783  0.6044374187938 1.0
C      1  0.3714984785864  0.3294472727312  0.2040870440275 1.0
C      1  0.4614773039695  0.2960711949895  0.1823661872643 1.0
C      1  0.5391856718498  0.3443927394623  0.1645227522176 1.0
C      1  0.5534502751763  0.4456153013566  0.1793729553525 1.0
C      1  0.6098501058241  0.5322418816129  0.1705008285472 1.0
C      1  0.5807886765560  0.6240366899547  0.1832387813214 1.0
C      1  0.4995677054716  0.6660314435665  0.2010840835952 1.0
C      1  0.4076132443215  0.6376882620851  0.2140993627343 1.0
C      1  0.3842018403603  0.5358830559992  0.2164795117877 1.0
C      1  0.3020772527044  0.4738139719123  0.2239857803387 1.0
C      1  0.3181632596427  0.3980506975768  0.1785230168968 1.0
C      1  0.6396854883532  0.5204170505961  0.2626192157787 1.0
C      1  0.6014573189013  0.6136569418927  0.2822716528776 1.0
C      1  0.5177907303307  0.6586880667498  0.3014231763494 1.0
C      1  0.4206453592613  0.6360058954215  0.3104595415991 1.0
C      1  0.3863493350087  0.5402811577400  0.3197403759168 1.0
C      1  0.3042364698895  0.4723144836085  0.3304164917113 1.0
C      1  0.3462088433675  0.3817094372941  0.3621160016218 1.0
C      1  0.3977028817990  0.3294706997023  0.3018591240423 1.0
C      1  0.4858188159047  0.2952793507719  0.2816886943877 1.0
C      1  0.5721440773791  0.3385891306860  0.2631569219668 1.0
C      1  0.6078024956345  0.4264235508888  0.2657018366488 1.0
C      1  0.4079083880728  0.5904680637185  0.7658983463277 1.0
C      1  0.3379198572461  0.5367977162478  0.7205439739600 1.0
C      1  0.3755555594674  0.4492166611832  0.7504644061146 1.0
C      1  0.4011541127063  0.3817497058741  0.6883283104597 1.0
C      1  0.4913871884806  0.3418550160519  0.6900502322079 1.0
C      1  0.5495543433297  0.3806302308459  0.7544147252998 1.0
C      1  0.6107683738871  0.4187951995206  0.8093619354407 1.0
C      1  0.6067393534956  0.5156037459254  0.8009539607377 1.0
C      1  0.6040021986262  0.6034291199780  0.7898898103812 1.0
C      1  0.5574972066445  0.6462237090345  0.7225553224615 1.0
C      1  0.4574896499784  0.6565640420188  0.7203140805904 1.0
C      1  0.5278575543530  0.4530508791042  0.5758366856062 1.0
C      1  0.5230135246679  0.4767659431876  0.4856542004725 1.0
C      1  0.4723930933625  0.4917694350087  0.3211850586363 1.0
C      1  0.5326011524123  0.4802903542882  0.7427162322400 1.0
C      1  0.4463371961345  0.5031927006774  0.7809143535114 1.0
C      1  0.5441148717253  0.5091359298521  0.6469629658516 1.0
C      1  0.5140936716204  0.4788508816960  0.4037295697418 1.0
C      1  0.4728608343775  0.4835374828995  0.2296479078993 1.0
END
