TITL C-22165-366-4 -7.365 3375.00 -1463.50501070 0 0 180 (Ci) n - 1
REM
REM Run started: at 2020.12.24 02:49:37 in /rds/project/t2_vol4/rds-t2-cs072/BORA/CARBON/AIRSS/Generating-Clusters/Str-Search/Higher-Symm/Only-C180/Try2-6A
REM VASP from code version vasp.5.4.4.18Apr17-6-g9f103f2a35 (build Oct 11 2019 16:45:47) gamma-only
REM
REM
REM
REM
REM ./C.cell (901f2866ec5ebbefad8c960c6350b03a)
REM AIRSS Version 0.9.1 bugfix July 2018 build 013d7b7c2542+ Fri, 06 Jul 2018 19:26:36 +0100
REM compiler GCC version 4.8.5 20150623 (Red Hat 4.8.5-39)
REM options -cpp -mtune=generic -march=x86-64 -g -O0
REM seed -2019915784 1606351040 1075257710 -2139540455 586939326 1432137968 -1454525584 1439612553 1382674298 185751343 -1263682461 2039705561
REM
REM C.POTCAR (d86ddea03c3ceb6dc662c8ad6801f873)
REM 
CELL 1.54180   15.00000   15.00000   15.00000   90.00000   90.00000   90.00000
LATT -1
SFAC C  
C      1  0.7805338604154  0.3765413532206  0.7341483065118 1.0
C      1  0.2321120706733  0.3823944672261  0.2844226725445 1.0
C      1  0.7679505709051  0.6176100694219  0.7154940816937 1.0
C      1  0.2195170856608  0.6234276230259  0.2658087754178 1.0
C      1  0.7754475759704  0.3735670985610  0.2656085015859 1.0
C      1  0.2243207878147  0.3850724305853  0.7156583084139 1.0
C      1  0.7755261928831  0.6149483546257  0.2844183222266 1.0
C      1  0.2244382421501  0.6264685623873  0.7343839585670 1.0
C      1  0.5889248655647  0.5510677157403  0.7763462240031 1.0
C      1  0.4119435440633  0.5486529594485  0.2234782720154 1.0
C      1  0.5880901377103  0.4513528761968  0.7765643719678 1.0
C      1  0.4110963750265  0.4489523289228  0.2237012229835 1.0
C      1  0.5876124066477  0.5487320993636  0.2234668178345 1.0
C      1  0.4131723496599  0.5508981212461  0.7763634869919 1.0
C      1  0.5868223450605  0.4491134211780  0.2236271957688 1.0
C      1  0.4123826677211  0.4512872690269  0.7765285424751 1.0
C      1  0.6955055295470  0.1546773987260  0.4501505822321 1.0
C      1  0.3056785323709  0.1506688526479  0.5504695156142 1.0
C      1  0.6943218248427  0.8493536857734  0.4495910473094 1.0
C      1  0.3044790794628  0.8453349827227  0.5498514630959 1.0
C      1  0.6951436354733  0.1558177522887  0.5501983114142 1.0
C      1  0.3050659356783  0.1500990615720  0.4501484438311 1.0
C      1  0.6949353103701  0.8499248232837  0.5498972045272 1.0
C      1  0.3048432152873  0.8441741870310  0.4498085686641 1.0
C      1  0.1625729374776  0.3244519451721  0.3171591873232 1.0
C      1  0.8440745399483  0.3195227237087  0.6880064255617 1.0
C      1  0.1559833690944  0.6804370763882  0.3119204922254 1.0
C      1  0.8375015899703  0.6755378938893  0.6827544760814 1.0
C      1  0.1595619563738  0.3229713835427  0.6794866233396 1.0
C      1  0.8427381029925  0.3228952750391  0.3120712861919 1.0
C      1  0.1571787966910  0.6771251365605  0.6878980588722 1.0
C      1  0.8403515824956  0.6770080278487  0.3205585428013 1.0
C      1  0.7124211059803  0.6476497300403  0.6330770901964 1.0
C      1  0.2820754370271  0.6424522962030  0.3492682312479 1.0
C      1  0.7179841870778  0.3575342214623  0.6506832281786 1.0
C      1  0.2875760904694  0.3523190304776  0.3668707630147 1.0
C      1  0.7147999226650  0.6425780563595  0.3648222572026 1.0
C      1  0.2849793677074  0.6494356686476  0.6508333689011 1.0
C      1  0.7149432867996  0.3505916285418  0.3491922238429 1.0
C      1  0.2850754694890  0.3574127703622  0.6352553806696 1.0
C      1  0.2620446585325  0.5735206824642  0.5913678482474 1.0
C      1  0.7455901912062  0.5770038067639  0.4425445933252 1.0
C      1  0.2543932947051  0.4229746946774  0.5574619425096 1.0
C      1  0.7379420107561  0.4265404179631  0.4086019435314 1.0
C      1  0.2553990616199  0.5660073018077  0.4084208057794 1.0
C      1  0.7427149619709  0.5826997787000  0.5536302463844 1.0
C      1  0.2573026070413  0.4172675152210  0.4463557599013 1.0
C      1  0.7445956423321  0.4339688726650  0.5915418416662 1.0
C      1  0.4460232552342  0.5526925516079  0.3206871836101 1.0
C      1  0.5546183954778  0.5551377779737  0.6795377913025 1.0
C      1  0.4454284850497  0.4448690694601  0.3205052471651 1.0
C      1  0.5540091063296  0.4473280857414  0.6793483640570 1.0
C      1  0.4483184999506  0.5550523866274  0.6793856390922 1.0
C      1  0.5530852098038  0.5528558707687  0.3201377459712 1.0
C      1  0.4469395616650  0.4471589562104  0.6798757254436 1.0
C      1  0.5517022431845  0.4449544856189  0.3206152855379 1.0
C      1  0.5525348874670  0.7809890345124  0.4462652982093 1.0
C      1  0.4489715351891  0.7813363554185  0.5506934185134 1.0
C      1  0.5510383904239  0.2186676320965  0.4493506618042 1.0
C      1  0.4474619469417  0.2190614415741  0.5537698370104 1.0
C      1  0.5528112483742  0.7816498241340  0.5506188880331 1.0
C      1  0.4486849563714  0.7806098589676  0.4466044251265 1.0
C      1  0.5513222722815  0.2194114330900  0.5534379452508 1.0
C      1  0.4472019632399  0.2183906117437  0.4494291083570 1.0
C      1  0.9025815138013  0.3749894221759  0.3644669206453 1.0
C      1  0.0889183656859  0.3584727613491  0.6302309808040 1.0
C      1  0.9110823065913  0.6414955782442  0.3697140146225 1.0
C      1  0.0973784967136  0.6250203814171  0.6354730611896 1.0
C      1  0.9092557487803  0.3595479473611  0.6341405651660 1.0
C      1  0.0957102660461  0.3729796807904  0.3629282779868 1.0
C      1  0.9043155162265  0.6269652565040  0.6369437106353 1.0
C      1  0.0908037216205  0.6404064289474  0.3657743573329 1.0
C      1  0.6558609613053  0.4487797493972  0.5519589839718 1.0
C      1  0.3519608269046  0.4514538230391  0.4514886757425 1.0
C      1  0.6480432529347  0.5485139973410  0.5485370777148 1.0
C      1  0.3441316285829  0.5512056115843  0.4480472016551 1.0
C      1  0.6522118148369  0.4466280187044  0.4477252899167 1.0
C      1  0.3518061021024  0.4536734264635  0.5508234425087 1.0
C      1  0.6481807556478  0.5463106108385  0.4492093664947 1.0
C      1  0.3477699959133  0.5533816565859  0.5522788746294 1.0
C      1  0.6016515638111  0.8312322749194  0.6938188443547 1.0
C      1  0.3980233014175  0.8294086511519  0.3042563053066 1.0
C      1  0.6019593957421  0.1705820992578  0.6958045766236 1.0
C      1  0.3983582553467  0.1687956263806  0.3062331756569 1.0
C      1  0.6015665953313  0.8313139413768  0.3039550883527 1.0
C      1  0.3984506474877  0.8293950102916  0.6937032721931 1.0
C      1  0.6014789325154  0.1705662295940  0.3063051441712 1.0
C      1  0.3984475249515  0.1687438621723  0.6960902652480 1.0
C      1  0.1074282201360  0.4696009113307  0.3927730418037 1.0
C      1  0.9490516379930  0.4484558547960  0.6139053035547 1.0
C      1  0.0510075940615  0.5515034001012  0.3859874261720 1.0
C      1  0.8925974165146  0.5303330000559  0.6071351055401 1.0
C      1  0.0494002634365  0.4478662923455  0.6116230652804 1.0
C      1  0.8919535731658  0.4720627092754  0.3951477621966 1.0
C      1  0.1080433379671  0.5279286897156  0.6047880920068 1.0
C      1  0.9506523650390  0.5520808140815  0.3882776231112 1.0
C      1  0.9250209602684  0.6242462990675  0.4583637892102 1.0
C      1  0.0873653419563  0.6122488653262  0.5458362463993 1.0
C      1  0.9126654284610  0.3877196194129  0.4540970652973 1.0
C      1  0.0750412812158  0.3757062814290  0.5415455889540 1.0
C      1  0.9183408620982  0.6127112551414  0.5481416035133 1.0
C      1  0.0813930396495  0.6228219162431  0.4551825607091 1.0
C      1  0.9186183015739  0.3771289803298  0.5447437987336 1.0
C      1  0.0816537617044  0.3872109578980  0.4517634321276 1.0
C      1  0.7738180427956  0.5388189148483  0.7593634237285 1.0
C      1  0.2150843949457  0.5429628553506  0.2251427810485 1.0
C      1  0.7849818177082  0.4570463329570  0.7747926900284 1.0
C      1  0.2262476758394  0.4612036729620  0.2406291290949 1.0
C      1  0.7801696788979  0.5375541955944  0.2383099047515 1.0
C      1  0.2191298519295  0.5452288149886  0.7735591901158 1.0
C      1  0.7807461358286  0.4548247210345  0.2263912958873 1.0
C      1  0.2196558465613  0.4624952467820  0.7616648455496 1.0
C      1  0.4487703186385  0.7962711924249  0.2388814409672 1.0
C      1  0.5516542870328  0.7983665907560  0.7597275178884 1.0
C      1  0.4483282873627  0.2016506230331  0.2403046016658 1.0
C      1  0.5512385041290  0.2037351417240  0.7611703694248 1.0
C      1  0.4490532914550  0.7976159834880  0.7596824071249 1.0
C      1  0.5514092116284  0.7969467685039  0.2388053862034 1.0
C      1  0.4486005060818  0.2030770617896  0.7612475080751 1.0
C      1  0.5509218373687  0.2023663056931  0.2403168315167 1.0
C      1  0.7735655463785  0.7294797540467  0.3678218049697 1.0
C      1  0.2210375158837  0.7328213505666  0.6380581249418 1.0
C      1  0.7788732766269  0.2672499591128  0.3619038594910 1.0
C      1  0.2264167229374  0.2704958845270  0.6322900305345 1.0
C      1  0.7754388940756  0.7335349108968  0.6336835294456 1.0
C      1  0.2237439401386  0.7284909622005  0.3626596927177 1.0
C      1  0.7762932742285  0.2714807154586  0.6373160426485 1.0
C      1  0.2246197243279  0.2664469556491  0.3662609281072 1.0
C      1  0.7627176081075  0.2002679409109  0.5893557433628 1.0
C      1  0.2355042257337  0.1917471905174  0.4102637097002 1.0
C      1  0.7645047117458  0.8082444803499  0.5896986269061 1.0
C      1  0.2372675744029  0.7997082796672  0.4106480548898 1.0
C      1  0.7649729899645  0.1960168097571  0.4097208725608 1.0
C      1  0.2381155577078  0.1960126370056  0.5885502664355 1.0
C      1  0.7618571559462  0.8039258490557  0.4115777542919 1.0
C      1  0.2349249877804  0.8040264112715  0.5902670247125 1.0
C      1  0.3924356826320  0.3881044178844  0.6138572414401 1.0
C      1  0.6021719776084  0.3843017984919  0.3866944773284 1.0
C      1  0.3978874288287  0.6156654526255  0.6132797686296 1.0
C      1  0.6075767059685  0.6119224425273  0.3861749034122 1.0
C      1  0.3930917816823  0.3857668360131  0.3883113867563 1.0
C      1  0.6068404377085  0.3867864262623  0.6143766328990 1.0
C      1  0.3931903826773  0.6132173684200  0.3856642957737 1.0
C      1  0.6069563304731  0.6142450853374  0.6117196310295 1.0
C      1  0.4495772496540  0.7068238826840  0.1925472057909 1.0
C      1  0.5517252963447  0.7094610788040  0.8073099849228 1.0
C      1  0.4482749370656  0.2905746242301  0.1927269641209 1.0
C      1  0.5504487901021  0.2931862055506  0.8075108130950 1.0
C      1  0.4499632561086  0.7090023828707  0.8073249768161 1.0
C      1  0.5514239997903  0.7072352687116  0.1926144925273 1.0
C      1  0.4486072543274  0.2928079557517  0.8074332201118 1.0
C      1  0.5500363043972  0.2909971765024  0.1926887217370 1.0
C      1  0.5507084516688  0.3232812819367  0.4472601320505 1.0
C      1  0.4467818472978  0.3243357244292  0.5555673037635 1.0
C      1  0.5532281667631  0.6757027317711  0.4444618654204 1.0
C      1  0.4493152121412  0.6767143389486  0.5527474058393 1.0
C      1  0.5521022458296  0.3243922722136  0.5555057986026 1.0
C      1  0.4465596796200  0.3232736995465  0.4478060818316 1.0
C      1  0.5534653749764  0.6767473460601  0.5522193641895 1.0
C      1  0.4479137150142  0.6756191613078  0.4445300967606 1.0
C      1  0.5933960478709  0.3708454036880  0.8149098949247 1.0
C      1  0.4053863244352  0.3682533450517  0.1855523604491 1.0
C      1  0.5946234828085  0.6317753821748  0.8144691203719 1.0
C      1  0.4066362178232  0.6291594659148  0.1851465617819 1.0
C      1  0.5926109690077  0.3688008574072  0.1849848898882 1.0
C      1  0.4055126793209  0.3704627933279  0.8142484415954 1.0
C      1  0.5945041678509  0.6295545360292  0.1857877981153 1.0
C      1  0.4073847080890  0.6311878568783  0.8150163427180 1.0
C      1  0.6135474088293  0.8379289689903  0.6051958778326 1.0
C      1  0.3861164540664  0.8353719829067  0.3929135518342 1.0
C      1  0.6138687929584  0.1646303348728  0.6071231048460 1.0
C      1  0.3864722125473  0.1620944144087  0.3948668379496 1.0
C      1  0.6133510956925  0.8379283685293  0.3925784577223 1.0
C      1  0.3862742422229  0.8356206848220  0.6050926759253 1.0
C      1  0.6136790840825  0.1643502879256  0.3949245276033 1.0
C      1  0.3866570252575  0.1621062091357  0.6074586457341 1.0
C      1  0.7981195588844  0.5080310145699  0.5888733866876 1.0
C      1  0.7974949447734  0.4945594488625  0.4124068862209 1.0
C      1  0.2019217383559  0.4919090801922  0.4110595682952 1.0
C      1  0.2024997983498  0.5054533957975  0.5875945591671 1.0
END
