TITL C-227548-6712-34 -2.986 3375.00 -477.74374486 0 0 60 (C3) n - 1
REM
REM Run started: at 2020.11.27 12:32:10 in /rds/project/t2_vol4/rds-t2-cs072/BORA/CARBON/AIRSS/Generating-Clusters/Str-Search/Higher-Symm/Only-C60
REM VASP from code version vasp.5.4.4.18Apr17-6-g9f103f2a35 (build Oct 11 2019 16:45:47) gamma-only
REM
REM
REM
REM
REM ./C.cell (5f7b7a0d59291d2373303da1f58b8d66)
REM AIRSS Version 0.9.1 bugfix July 2018 build 013d7b7c2542+ Fri, 06 Jul 2018 19:26:36 +0100
REM compiler GCC version 4.8.5 20150623 (Red Hat 4.8.5-39)
REM options -cpp -mtune=generic -march=x86-64 -g -O0
REM seed -705846651 1185051336 -1000796723 1140770189 2083944670 702014913 -2104118658 28495703 1425750624 -345781350 -1003100477 1113206970
REM
REM C.POTCAR (d86ddea03c3ceb6dc662c8ad6801f873)
REM 
CELL 1.54180   15.00000   15.00000   15.00000   90.00000   90.00000   90.00000
LATT -1
SFAC C  
C      1  0.5539345920313  0.6109064406750  0.3638704377791 1.0
C      1  0.5905723578915  0.6109962302856  0.6151610118734 1.0
C      1  0.3551930638010  0.6109086547199  0.5212540863259 1.0
C      1  0.4128114411286  0.3897982296645  0.6861658724449 1.0
C      1  0.3826086333193  0.3896622990813  0.3313648899857 1.0
C      1  0.7049067934213  0.3900892669738  0.4826124674288 1.0
C      1  0.6533250303053  0.6958702842919  0.4680304790754 1.0
C      1  0.4506249683158  0.6957200033682  0.6496722230227 1.0
C      1  0.3956897845867  0.6958292274016  0.3832236493634 1.0
C      1  0.2154115996457  0.5434010554058  0.4234216530576 1.0
C      1  0.7077419615417  0.5432147607904  0.2914169783739 1.0
C      1  0.5766028169714  0.5428538134603  0.7846974272743 1.0
C      1  0.6858951232992  0.3338054714472  0.4127140091160 1.0
C      1  0.4830762154729  0.3336387051157  0.7042178933195 1.0
C      1  0.3315948957928  0.3333633949122  0.3827958708664 1.0
C      1  0.3512066024994  0.5114040515044  0.4949926514749 1.0
C      1  0.5786664933249  0.5114811349553  0.3737555503547 1.0
C      1  0.5699260592475  0.5114036003133  0.6314370091131 1.0
C      1  0.7046842473827  0.6978154740925  0.5372443493788 1.0
C      1  0.3648561926504  0.6977063631440  0.6590097158983 1.0
C      1  0.4295053014917  0.6975646504913  0.3038967842591 1.0
C      1  0.6871363931931  0.5131707524238  0.3736359708340 1.0
C      1  0.5158831142650  0.5129210526106  0.7254778272731 1.0
C      1  0.2969901219757  0.5128669525535  0.4010868892712 1.0
C      1  0.6446025425413  0.5754279464098  0.2363323411663 1.0
C      1  0.6556345287723  0.5755696787348  0.7575731380585 1.0
C      1  0.1994127400046  0.5760272363903  0.5055303899298 1.0
C      1  0.6035659810963  0.3054092763479  0.5957387675226 1.0
C      1  0.3656462152086  0.3053653823933  0.5413687584516 1.0
C      1  0.5318256302109  0.3053870214372  0.3623849487428 1.0
C      1  0.6584964419733  0.4628170469392  0.6075161465080 1.0
C      1  0.3278405175358  0.4626250227745  0.5836143670562 1.0
C      1  0.5137380055488  0.4626823815579  0.3091175981330 1.0
C      1  0.3679330591164  0.6767132613333  0.4626119297963 1.0
C      1  0.5985579744817  0.6765724210995  0.4042107069071 1.0
C      1  0.5332225366339  0.6764807187934  0.6342369960336 1.0
C      1  0.3541770941727  0.5265325707344  0.6527903066632 1.0
C      1  0.4405417186144  0.5264762534266  0.2974579515750 1.0
C      1  0.7048858677263  0.5268230081647  0.5499573957617 1.0
C      1  0.6245288506887  0.3103396972347  0.3612684272497 1.0
C      1  0.5581442879219  0.3100573773156  0.6765396845529 1.0
C      1  0.3180962441611  0.3100462327673  0.4617851905846 1.0
C      1  0.5069817021202  0.2640791130726  0.4457375366606 1.0
C      1  0.5439083496059  0.2641293113463  0.5324291656706 1.0
C      1  0.4503442668476  0.2641647131486  0.5210246366506 1.0
C      1  0.4859348236934  0.6176260057689  0.2879187424333 1.0
C      1  0.6901902962422  0.6179369471539  0.5941401353550 1.0
C      1  0.3231546937360  0.6177026173630  0.6179528830612 1.0
C      1  0.4205781962773  0.4854124195868  0.7074380423601 1.0
C      1  0.3601390111580  0.4852223704519  0.3275731600459 1.0
C      1  0.7192078063344  0.4857137082173  0.4652102789308 1.0
C      1  0.5668272562711  0.6084386606515  0.2236025048190 1.0
C      1  0.7052172404572  0.6087395678806  0.6963902578890 1.0
C      1  0.2273266242565  0.6088023188484  0.5792753688552 1.0
C      1  0.5321119109033  0.4960652450844  0.4574906407592 1.0
C      1  0.5206737967828  0.4960824504677  0.5491595428733 1.0
C      1  0.4470278178555  0.4959961369486  0.4934212179953 1.0
C      1  0.6658034039564  0.3755205256943  0.5709299951472 1.0
C      1  0.3561344125773  0.3753245913755  0.6079291521315 1.0
C      1  0.4787444509614  0.3752985934035  0.3211856965056 1.0
END
