TITL C-23913-6648-2 -7.741 3375.00 -1333.09012039 0 0 163 (C1) n - 1
REM
REM Run started: at 2020.11.22 04:49:06 in /rds/project/t2_vol4/rds-t2-cs072/BORA/CARBON/AIRSS/Generating-Clusters/Str-Search/Higher-Symm
REM VASP from code version vasp.5.4.4.18Apr17-6-g9f103f2a35 (build Oct 11 2019 16:45:47) gamma-only
REM
REM
REM
REM
REM ./C.cell (e5ae0387ce4d49c7c0135a1433873289)
REM AIRSS Version 0.9.1 bugfix July 2018 build 013d7b7c2542+ Fri, 06 Jul 2018 19:26:36 +0100
REM compiler GCC version 4.8.5 20150623 (Red Hat 4.8.5-39)
REM options -cpp -mtune=generic -march=x86-64 -g -O0
REM seed -562440397 169065755 1702395144 1473777502 -609555138 -358367762 -304127306 -903607864 -82869660 1073921424 -988917457 -140890293
REM
REM C.POTCAR (d86ddea03c3ceb6dc662c8ad6801f873)
REM 
CELL 1.54180   15.00000   15.00000   15.00000   90.00000   90.00000   90.00000
LATT -1
SFAC C  
C      1  0.2888577420976  0.5713370374724  0.5267096186610 1.0
C      1  0.6823526723950  0.4387562722960  0.4888803693594 1.0
C      1  0.1995040595305  0.7073699740008  0.6535555344796 1.0
C      1  0.8103665016806  0.2698888337040  0.3449225561161 1.0
C      1  0.4855382727715  0.9536533410828  0.5181204824055 1.0
C      1  0.5065097080163  0.0511178143763  0.4901933952563 1.0
C      1  0.5130653958643  0.1259546543276  0.2763007911263 1.0
C      1  0.4807485700508  0.8716697381525  0.7322551099879 1.0
C      1  0.6780178390317  0.5344570621329  0.2558815506604 1.0
C      1  0.3744256955655  0.4682319102531  0.7563633438462 1.0
C      1  0.2228596673322  0.6819543507002  0.4184006595358 1.0
C      1  0.7681330967846  0.3350648203958  0.5764117680126 1.0
C      1  0.2521672609119  0.2654483998936  0.3917898291979 1.0
C      1  0.7147256116044  0.6998026795623  0.5943089636612 1.0
C      1  0.2031751723545  0.5882716898167  0.4583073573254 1.0
C      1  0.7585999896654  0.4296050632445  0.5451566305124 1.0
C      1  0.3414135785799  0.7267540436142  0.5904740450206 1.0
C      1  0.6405391602463  0.2789527583153  0.4429580629305 1.0
C      1  0.4686789027550  0.5113863321209  0.1703096205475 1.0
C      1  0.5454124885158  0.4736295815510  0.8478369655922 1.0
C      1  0.7925740190716  0.3185541280350  0.2645942144103 1.0
C      1  0.2253530272149  0.6556973810244  0.7307010902975 1.0
C      1  0.5540379419706  0.8277253086126  0.6958825956157 1.0
C      1  0.4325182532841  0.1660957950792  0.3004154122283 1.0
C      1  0.7044770475925  0.2820956126966  0.2313248392675 1.0
C      1  0.3014425157891  0.6989961884350  0.7711635033062 1.0
C      1  0.6170511949732  0.6129051419691  0.2229953771233 1.0
C      1  0.4193792878537  0.3804795255387  0.7831814934748 1.0
C      1  0.4417165216833  0.3171914085544  0.3590521857990 1.0
C      1  0.5338761690550  0.6820848105389  0.6193311743336 1.0
C      1  0.2901777237388  0.6282872708905  0.2646813497480 1.0
C      1  0.7129695715596  0.3996639548591  0.7217440659044 1.0
C      1  0.6442320167652  0.8585902368401  0.4852535334950 1.0
C      1  0.3441734845767  0.1568237905078  0.5100449506317 1.0
C      1  0.5739566650276  0.1051988310478  0.5479968114795 1.0
C      1  0.4193632880913  0.9083086498649  0.4492927198970 1.0
C      1  0.2956672823404  0.7799794570892  0.3107126271199 1.0
C      1  0.7059169417642  0.2388267052967  0.6900816820194 1.0
C      1  0.4859032707026  0.6732101863406  0.4557532265129 1.0
C      1  0.4598520597461  0.3739222494298  0.5630474286911 1.0
C      1  0.7267547943499  0.7132218805632  0.3003598303397 1.0
C      1  0.3059027183770  0.3196348516370  0.6919489756004 1.0
C      1  0.6763545292389  0.5464840403996  0.8036088694717 1.0
C      1  0.2860257221324  0.4415847915376  0.2205964329624 1.0
C      1  0.1828182062502  0.4767505827323  0.6045823994843 1.0
C      1  0.8389501119923  0.5291166493587  0.3362035780160 1.0
C      1  0.5298437928547  0.5890484334055  0.1909019920678 1.0
C      1  0.5034139529524  0.3878967657321  0.8224601426117 1.0
C      1  0.3845149512581  0.4942818652687  0.3371586110278 1.0
C      1  0.6039009439282  0.5146436908956  0.6552944760326 1.0
C      1  0.6841085428127  0.4975418101806  0.7045962614053 1.0
C      1  0.3230135740811  0.5271520637843  0.2562039484304 1.0
C      1  0.4127423101016  0.9307175651832  0.5876371170918 1.0
C      1  0.5799021956485  0.0595506953158  0.4169037709860 1.0
C      1  0.6207459196125  0.1419604822711  0.4631517901194 1.0
C      1  0.3671020085511  0.8629228875905  0.5261592536071 1.0
C      1  0.1656660828390  0.6943174812308  0.5663186928734 1.0
C      1  0.8372826923059  0.3044969435689  0.4313849523920 1.0
C      1  0.5107058278555  0.7311986311288  0.5341750045516 1.0
C      1  0.4870168735861  0.2732179856338  0.4430327462782 1.0
C      1  0.2177834287755  0.3194601057878  0.5592040068585 1.0
C      1  0.7750015064825  0.6616251546721  0.4415405490043 1.0
C      1  0.1828951996012  0.4402709970611  0.3431811513031 1.0
C      1  0.8207960758982  0.5503174667889  0.6636687631346 1.0
C      1  0.5986586497288  0.6077999287344  0.7991879928422 1.0
C      1  0.3622639844884  0.3849009568321  0.1980716574109 1.0
C      1  0.5143462935658  0.5593828518551  0.8182645915128 1.0
C      1  0.4526316915045  0.4184658320148  0.1800395302974 1.0
C      1  0.2912086237933  0.5127157715385  0.5979587456748 1.0
C      1  0.6673609493243  0.5127243035079  0.4292977498689 1.0
C      1  0.2716313048355  0.4706069099317  0.7568032597990 1.0
C      1  0.7809564214207  0.5018822998478  0.2616509084776 1.0
C      1  0.7122893521762  0.2087992247399  0.4526699434630 1.0
C      1  0.2746677260594  0.8098520807985  0.5463854629812 1.0
C      1  0.1739586948475  0.4082778752876  0.4302190445997 1.0
C      1  0.8333653820642  0.5950193058675  0.5802896123538 1.0
C      1  0.3870644166373  0.3021386616843  0.7325652274023 1.0
C      1  0.6362254517898  0.7001264900612  0.2671335708860 1.0
C      1  0.8800650663984  0.3876564591025  0.4254735579217 1.0
C      1  0.1419559284845  0.6074229139436  0.5367273483030 1.0
C      1  0.4136880040254  0.7730191315428  0.5392712335289 1.0
C      1  0.5716874248430  0.2237658719380  0.4279979481546 1.0
C      1  0.5446773038999  0.4480913394779  0.6585272865192 1.0
C      1  0.4359441850158  0.5606416293271  0.3722435381970 1.0
C      1  0.7751389166737  0.4097314098697  0.2371589858817 1.0
C      1  0.2572512621450  0.5634629828122  0.7641465467756 1.0
C      1  0.2124154090261  0.7442638950174  0.4957973795070 1.0
C      1  0.7845409645896  0.2708021060775  0.5032259154160 1.0
C      1  0.2260192656711  0.3944711532053  0.2751670356425 1.0
C      1  0.7445424066721  0.5766824658191  0.7251031376725 1.0
C      1  0.4588471160189  0.6377830361040  0.3174477711726 1.0
C      1  0.5527016144326  0.3536584077186  0.6873137130455 1.0
C      1  0.3074227632268  0.2943203998655  0.5938514159623 1.0
C      1  0.7249613086635  0.7342776213652  0.3922041292571 1.0
C      1  0.2628749368848  0.3061848064306  0.2999495834609 1.0
C      1  0.7055651542550  0.6654403082071  0.6945688732765 1.0
C      1  0.8287224292771  0.6216348023749  0.3595108868832 1.0
C      1  0.1915136270393  0.3851907842154  0.6265909990198 1.0
C      1  0.7354866163254  0.3254432332682  0.6646509956380 1.0
C      1  0.2631254011425  0.6925768641786  0.3294819484617 1.0
C      1  0.5966770791015  0.7693695010014  0.5020635763703 1.0
C      1  0.4361916318650  0.2089375745100  0.5024779529090 1.0
C      1  0.4156860315264  0.5570965031522  0.7941249265093 1.0
C      1  0.6279313892814  0.4442820403158  0.2652826326830 1.0
C      1  0.2051366341809  0.3244943193788  0.4634748245491 1.0
C      1  0.8021408580758  0.6727092909552  0.5405945106384 1.0
C      1  0.6066946790995  0.1429795727821  0.2729205372216 1.0
C      1  0.3893387558966  0.8466580228610  0.7359380383966 1.0
C      1  0.5074579995511  0.6995148105754  0.3633618849779 1.0
C      1  0.4958800417375  0.3071365476137  0.6354374998089 1.0
C      1  0.3401239632895  0.6114471936400  0.7942023282564 1.0
C      1  0.6830450935914  0.3745144082451  0.2289623513715 1.0
C      1  0.6567273466908  0.6260131010261  0.5457710524092 1.0
C      1  0.3502156563494  0.3891745514356  0.4568484921968 1.0
C      1  0.2430010493830  0.3869072208578  0.7077061024851 1.0
C      1  0.8029123937475  0.6629659456467  0.2794728426237 1.0
C      1  0.5246427197490  0.3544718871545  0.4915903752526 1.0
C      1  0.3920978420148  0.6982870724275  0.4747537197849 1.0
C      1  0.1208253454752  0.5348645521646  0.5847899013727 1.0
C      1  0.8754511385103  0.4598027361452  0.3854563177052 1.0
C      1  0.5821905868776  0.7450076282953  0.3338719625310 1.0
C      1  0.4332294582220  0.2416075065372  0.6692813400603 1.0
C      1  0.6933063009280  0.5981401311938  0.4668888387975 1.0
C      1  0.3659458459645  0.3568237631220  0.5371100584857 1.0
C      1  0.3569274550458  0.6504460873892  0.1924407300993 1.0
C      1  0.6584312647058  0.3824774260725  0.7981726772952 1.0
C      1  0.6403044206757  0.4648548662527  0.8456660749539 1.0
C      1  0.3854167706019  0.5592580151083  0.1843246843711 1.0
C      1  0.1811501510438  0.5014267744692  0.4130108825534 1.0
C      1  0.8122918982568  0.5012070506456  0.5837969970227 1.0
C      1  0.4179230328665  0.2623072218546  0.2899744033482 1.0
C      1  0.5586464916132  0.7291236872602  0.6928818719816 1.0
C      1  0.3229357112267  0.7834370781797  0.7307581904012 1.0
C      1  0.6783441759818  0.2035889647038  0.2797555901331 1.0
C      1  0.4021524415183  0.9048628794846  0.3624479167978 1.0
C      1  0.6048280796105  0.1140894192595  0.6302925010542 1.0
C      1  0.6032142718110  0.8593211048592  0.6213583006753 1.0
C      1  0.3812523098538  0.1389880126479  0.3761343564220 1.0
C      1  0.6247626728492  0.6778442259818  0.7412134996694 1.0
C      1  0.3425217704146  0.3023049005236  0.2449532583745 1.0
C      1  0.5716815534349  0.0722511956756  0.3272442482161 1.0
C      1  0.4183008381411  0.9173327855063  0.6762515064868 1.0
C      1  0.6641114841408  0.7948509164007  0.5696054321760 1.0
C      1  0.3068568431954  0.1893163288690  0.4185265294601 1.0
C      1  0.4651470864351  0.4676895774368  0.6010937245506 1.0
C      1  0.4810879296071  0.5732109654498  0.4584456403624 1.0
C      1  0.6170628317407  0.3648084014297  0.4769928729169 1.0
C      1  0.3406398055476  0.6488592337628  0.5327491302050 1.0
C      1  0.3918335063140  0.4038657845854  0.3794001609390 1.0
C      1  0.5740506142044  0.5912797484555  0.5937343200532 1.0
C      1  0.3742768311939  0.4893960501042  0.6476225355332 1.0
C      1  0.6410172709959  0.4972320641522  0.3404017281866 1.0
C      1  0.3759439851329  0.2156996528963  0.5859208474327 1.0
C      1  0.6386522300791  0.7770441469713  0.4125902516054 1.0
C      1  0.3417264826899  0.8464873559934  0.3288596732308 1.0
C      1  0.6632830757408  0.1714400777662  0.6646491905411 1.0
C      1  0.2695749384643  0.7773753954174  0.6441817878875 1.0
C      1  0.7416150636303  0.2063533682399  0.3555358435977 1.0
C      1  0.4489463221791  0.6423396334858  0.2223033785295 1.0
C      1  0.5775692456031  0.3361488662938  0.7820060705898 1.0
C      1  0.4251794594843  0.1132692651662  0.4666759347881 1.0
C      1  0.5744781061576  0.9063238926560  0.5423562719716 1.0
C      1  0.5015134597176  0.5396594716027  0.5397560396831 1.0
END
