TITL C-230839-5919-5 -8.214 3375.00 -1425.59236784 0 0 175 (C1) n - 1
REM
REM Run started: at 2021.01.02 19:51:51 in /rds/project/t2_vol4/rds-t2-cs072/BORA/CARBON/AIRSS/Generating-Clusters/Str-Search/Higher-Symm/C100-200
REM VASP from code version vasp.5.4.4.18Apr17-6-g9f103f2a35 (build Oct 11 2019 16:45:47) gamma-only
REM
REM
REM
REM
REM ./C.cell (533062f00bc710175b3da973d35f2034)
REM AIRSS Version 0.9.1 bugfix July 2018 build 013d7b7c2542+ Fri, 06 Jul 2018 19:26:36 +0100
REM compiler GCC version 4.8.5 20150623 (Red Hat 4.8.5-39)
REM options -cpp -mtune=generic -march=x86-64 -g -O0
REM seed 1706415960 494370195 -1036417430 -368372358 -696875212 909914718 -31235912 458108999 -1700765919 -1431888291 -682145038 -1820008399
REM
REM C.POTCAR (d86ddea03c3ceb6dc662c8ad6801f873)
REM 
CELL 1.54180   15.00000   15.00000   15.00000   90.00000   90.00000   90.00000
LATT -1
SFAC C  
C      1  0.6975551312695  0.5212412137290  0.3045307833937 1.0
C      1  0.5751049501023  0.2394016730114  0.2121959711616 1.0
C      1  0.6000834633943  0.4037694670127  0.8797450500403 1.0
C      1  0.2626496514044  0.7827247521245  0.6610093390413 1.0
C      1  0.3376050965727  0.4144648451203  0.5727509402278 1.0
C      1  0.4044758147555  0.1435554779680  0.3689141310462 1.0
C      1  0.4034154533570  0.8443916857128  0.6484891128833 1.0
C      1  0.7869106111857  0.5216790290422  0.3475568627006 1.0
C      1  0.5481699288330  0.9251408725617  0.5860140596401 1.0
C      1  0.0642395611318  0.4279886768302  0.6016835238207 1.0
C      1  0.5518361427491  0.4223948344019  0.6376660771900 1.0
C      1  0.5276291069010  0.2338994361252  0.5484747526319 1.0
C      1  0.3390637924912  0.7349883141315  0.2629391742725 1.0
C      1  0.4101227654385  0.3991279531999  0.2476022127268 1.0
C      1  0.3737617374265  0.8566304389309  0.4732194254996 1.0
C      1  0.6748864350658  0.1517369685055  0.5843541040663 1.0
C      1  0.3897238208660  0.5576206482093  0.6932038965367 1.0
C      1  0.6295292947978  0.8278045156684  0.3931061065533 1.0
C      1  0.3572506405653  0.7418434840261  0.8586580592691 1.0
C      1  0.6287966719141  0.3915100864109  0.3879115873246 1.0
C      1  0.5681438425877  0.5119532589422  0.6732206707105 1.0
C      1  0.5205433644316  0.6734976326795  0.6597239830046 1.0
C      1  0.4491663404611  0.1124788881834  0.5987332993891 1.0
C      1  0.1574053692284  0.4215634396476  0.7353017208604 1.0
C      1  0.2302759602801  0.4845197536584  0.3165790331741 1.0
C      1  0.2336286915851  0.7828190426606  0.4026318818509 1.0
C      1  0.4581151961066  0.3752847161644  0.4150988830222 1.0
C      1  0.3401183704045  0.8164003081384  0.7081500487984 1.0
C      1  0.6397901098916  0.6702096531475  0.5320660156004 1.0
C      1  0.7699437627748  0.3111062232662  0.6790600757648 1.0
C      1  0.7262490409583  0.6386297453938  0.5490105828599 1.0
C      1  0.2723482059338  0.4562340212320  0.6238420344863 1.0
C      1  0.2802940209997  0.8231161670158  0.4807495873811 1.0
C      1  0.2481192764620  0.2651211380314  0.4520155194937 1.0
C      1  0.4803117143201  0.5467582183287  0.2708240728494 1.0
C      1  0.4960278935452  0.5769299797514  0.4334510764786 1.0
C      1  0.6679410753320  0.6852030563750  0.7378682279383 1.0
C      1  0.4995327919380  0.4102396925987  0.0883429288491 1.0
C      1  0.6759414582448  0.7451229216081  0.3493837684910 1.0
C      1  0.3862603540007  0.6554118804105  0.5592007140598 1.0
C      1  0.4181367188954  0.4895726608073  0.7631602467914 1.0
C      1  0.8699336776094  0.6411035967656  0.4557691802592 1.0
C      1  0.6561198360519  0.8666304323462  0.4739702485860 1.0
C      1  0.5593766938465  0.1747949431049  0.4626763427747 1.0
C      1  0.2337898300218  0.3275997761059  0.3774986549909 1.0
C      1  0.4845779060098  0.3676010384956  0.2917826668305 1.0
C      1  0.1703921887622  0.5741478170339  0.4581297520446 1.0
C      1  0.2256184093992  0.3875789513434  0.6750145134246 1.0
C      1  0.6951517745797  0.1879219338205  0.3004214990578 1.0
C      1  0.5963505570836  0.3046613582089  0.5198455981553 1.0
C      1  0.7226702459130  0.3127737499632  0.7604743192557 1.0
C      1  0.1932709556417  0.5755808238076  0.2987374186898 1.0
C      1  0.6719978100376  0.2407990417622  0.7976863663630 1.0
C      1  0.6118322644275  0.3169908919226  0.1718643677510 1.0
C      1  0.5392238641111  0.4998110421262  0.0844147728894 1.0
C      1  0.7364374081543  0.1830702019359  0.5192714527526 1.0
C      1  0.5842155880742  0.7196570370901  0.7170971238471 1.0
C      1  0.5432278206907  0.8391789820511  0.3479474165141 1.0
C      1  0.2690565329233  0.5569080061954  0.4593463462991 1.0
C      1  0.4411590633186  0.8260988838727  0.3883261784815 1.0
C      1  0.4093899411287  0.4509225041720  0.5250255189611 1.0
C      1  0.3801300575035  0.4477540287963  0.4183505937228 1.0
C      1  0.4905362965708  0.6615587100448  0.3809937909319 1.0
C      1  0.6537045914589  0.7674477330834  0.2455881930016 1.0
C      1  0.4735674348564  0.2866748392405  0.3527779193953 1.0
C      1  0.3627980670125  0.1243174629800  0.4451948089461 1.0
C      1  0.2854706857030  0.7868171988910  0.3239532618581 1.0
C      1  0.1936001582150  0.6399338387124  0.7357110077480 1.0
C      1  0.6453993976655  0.1485796699988  0.4945464463549 1.0
C      1  0.1568725014790  0.6678271870645  0.5014947506096 1.0
C      1  0.7710357547814  0.2128308059438  0.3252339605713 1.0
C      1  0.3400203092250  0.3631645297711  0.7650841656461 1.0
C      1  0.3460927873990  0.3164298314918  0.5940599683325 1.0
C      1  0.0810022976675  0.4312877759176  0.6869207839580 1.0
C      1  0.7669173765059  0.5593718357877  0.7250972196067 1.0
C      1  0.2784842389091  0.1733765401411  0.4619852696198 1.0
C      1  0.6785016728005  0.4663682902497  0.1579914079465 1.0
C      1  0.2021864522688  0.7089778413080  0.6743045213270 1.0
C      1  0.2836078297906  0.1600437849872  0.5579653480148 1.0
C      1  0.5345887918437  0.4206562043693  0.3572236094511 1.0
C      1  0.2425828441312  0.7920111737130  0.5649468143064 1.0
C      1  0.6017848433827  0.9266236818310  0.5232397159706 1.0
C      1  0.2081719248963  0.4759521567055  0.7994649845345 1.0
C      1  0.2971337054288  0.3245274994593  0.6885260705731 1.0
C      1  0.5412590941803  0.5854760701217  0.6124369250217 1.0
C      1  0.0830037519124  0.4429640302629  0.5191134176127 1.0
C      1  0.3464632370312  0.3209804817663  0.2376222402473 1.0
C      1  0.6310765354623  0.7569682512295  0.5692882793915 1.0
C      1  0.4176295709427  0.2103266836016  0.3115864572181 1.0
C      1  0.3105006168736  0.5288916428965  0.6640699299269 1.0
C      1  0.7929263905768  0.4288291419369  0.3532281036185 1.0
C      1  0.7078374482556  0.8121258201764  0.5383337735304 1.0
C      1  0.6243394811885  0.5653377311155  0.3593954668437 1.0
C      1  0.7961535911586  0.2469976236289  0.4874386773360 1.0
C      1  0.8242973846877  0.7327475513975  0.4518314022065 1.0
C      1  0.5788129192461  0.1565042544371  0.8988413607072 1.0
C      1  0.7907850804361  0.7696948349056  0.5361718338565 1.0
C      1  0.1971488072691  0.4224928782423  0.3881532838358 1.0
C      1  0.5766030630464  0.3990404343320  0.5427917863199 1.0
C      1  0.8929776019633  0.4829209900221  0.5444932093241 1.0
C      1  0.4057130782356  0.2412520434615  0.2159738440138 1.0
C      1  0.4649068269314  0.6414092552642  0.2728269026948 1.0
C      1  0.3596163259810  0.5806101129618  0.8876262659962 1.0
C      1  0.6962644635616  0.4158934647863  0.3094064356116 1.0
C      1  0.3656619058723  0.4988375976283  0.8466511524397 1.0
C      1  0.4516982405445  0.7345754030340  0.4286275718423 1.0
C      1  0.3761746392290  0.1158524974212  0.5463877202853 1.0
C      1  0.5593068038684  0.7958500114312  0.2657146636343 1.0
C      1  0.3373394190280  0.5657598472128  0.2177103042547 1.0
C      1  0.5670526217869  0.1345399069605  0.8167953425433 1.0
C      1  0.8117944671145  0.3937940366652  0.6588049880793 1.0
C      1  0.5582799420119  0.7688767348678  0.6341339171512 1.0
C      1  0.6106684560468  0.5248548397296  0.7551536931854 1.0
C      1  0.3536130339694  0.7998221313730  0.7997690538946 1.0
C      1  0.6283603946503  0.1663669436590  0.7500069381181 1.0
C      1  0.7191902032831  0.4103014310897  0.7783817226207 1.0
C      1  0.7994095783152  0.6090029511628  0.3918112468932 1.0
C      1  0.6287295403487  0.5349828594701  0.4593523856235 1.0
C      1  0.2863531484400  0.4782936816679  0.4008699996422 1.0
C      1  0.4137241042129  0.4965953492233  0.2149899623186 1.0
C      1  0.2510587181135  0.5391314198200  0.2360738232658 1.0
C      1  0.8516870657486  0.4044968953198  0.5717063485123 1.0
C      1  0.1968966561765  0.5686726101591  0.7806922890292 1.0
C      1  0.6685361164291  0.3876198131606  0.2074736962009 1.0
C      1  0.2805278701509  0.3143628688864  0.3002832939093 1.0
C      1  0.5952876870616  0.6658303266478  0.3436955122776 1.0
C      1  0.6806132734433  0.5921170296516  0.7533260879286 1.0
C      1  0.7651232235112  0.7068166721896  0.3808518880830 1.0
C      1  0.4769202813507  0.3812928639971  0.5133199424118 1.0
C      1  0.6228154715923  0.2413053255412  0.8859638326370 1.0
C      1  0.7022973902893  0.5431818478508  0.2095306759397 1.0
C      1  0.2957315065064  0.4390244358915  0.8218996074275 1.0
C      1  0.5727041100567  0.5957555937973  0.5141381439460 1.0
C      1  0.6236637459305  0.5301384867372  0.1043785003917 1.0
C      1  0.4834609345210  0.3664595460615  0.6647425146557 1.0
C      1  0.4521770387489  0.3086308466755  0.5817151705438 1.0
C      1  0.5324952354658  0.5189881618544  0.3483634187303 1.0
C      1  0.1821424997487  0.7151804980861  0.5757533036951 1.0
C      1  0.8045012312007  0.2645806717267  0.3913267720418 1.0
C      1  0.3445535323073  0.5900825381695  0.4964356088606 1.0
C      1  0.7545288701559  0.7177264753009  0.7044097776467 1.0
C      1  0.1747149584754  0.7097604308069  0.4153822292265 1.0
C      1  0.3734321140583  0.6535717843257  0.2359476275013 1.0
C      1  0.4255847433472  0.3955080113243  0.7365405254093 1.0
C      1  0.1667156411336  0.6260269148732  0.3682313385496 1.0
C      1  0.6271025696843  0.6904764375512  0.1895765415378 1.0
C      1  0.7786454773837  0.4623025754555  0.7214740519295 1.0
C      1  0.1354973477599  0.4736861241962  0.4544931004503 1.0
C      1  0.4225208213759  0.7297977991944  0.5166409954492 1.0
C      1  0.4869952608232  0.2536990210315  0.1705295058196 1.0
C      1  0.6060997898157  0.2031858380926  0.2949845916928 1.0
C      1  0.8740205490074  0.5618911841939  0.5147010043017 1.0
C      1  0.3749997412124  0.8054074767450  0.3158020487335 1.0
C      1  0.6165480222261  0.1509481085677  0.6576101354047 1.0
C      1  0.6162518246912  0.3030486377595  0.4293996934553 1.0
C      1  0.4962385409992  0.8504037143781  0.6202419130612 1.0
C      1  0.5255468536015  0.1555630117975  0.6166083636401 1.0
C      1  0.6308015143322  0.4474253970627  0.4728387599273 1.0
C      1  0.6598867776945  0.6090317363593  0.1571837403522 1.0
C      1  0.5488395450982  0.6970414221870  0.2500186726401 1.0
C      1  0.4185643508158  0.8242772125117  0.5553920565063 1.0
C      1  0.2838559100672  0.2578955416922  0.5409054957579 1.0
C      1  0.4533408090875  0.4849354477590  0.1196596848111 1.0
C      1  0.8313739372052  0.3570054379478  0.4059110961536 1.0
C      1  0.5624827308783  0.2344520600090  0.3807731910985 1.0
C      1  0.7800792310369  0.5879494725198  0.4918343901354 1.0
C      1  0.8088765313125  0.6444918106059  0.6920407560099 1.0
C      1  0.6050943081728  0.3266177264130  0.9127627047950 1.0
C      1  0.7812380231329  0.6963853788861  0.6096286548900 1.0
C      1  0.4352417568615  0.6261784058045  0.6397693251236 1.0
C      1  0.5283751049581  0.3281175515103  0.1182433453752 1.0
C      1  0.3685396583027  0.6626037491402  0.8989153166344 1.0
C      1  0.4164553903397  0.5296487584531  0.4676081567869 1.0
C      1  0.8355904256703  0.3398798615595  0.5015533552570 1.0
C      1  0.6379697973844  0.4491702092431  0.8105331733742 1.0
END
