TITL C-23795-7880-5 -6.967 3375.00 -1241.31640503 0 0 148 (T23) n - 1
REM
REM Run started: at 2020.11.22 05:39:56 in /rds/project/t2_vol4/rds-t2-cs072/BORA/CARBON/AIRSS/Generating-Clusters/Str-Search/Higher-Symm
REM VASP from code version vasp.5.4.4.18Apr17-6-g9f103f2a35 (build Oct 11 2019 16:45:47) gamma-only
REM
REM
REM
REM
REM ./C.cell (e5ae0387ce4d49c7c0135a1433873289)
REM AIRSS Version 0.9.1 bugfix July 2018 build 013d7b7c2542+ Fri, 06 Jul 2018 19:26:36 +0100
REM compiler GCC version 4.8.5 20150623 (Red Hat 4.8.5-39)
REM options -cpp -mtune=generic -march=x86-64 -g -O0
REM seed 736054581 -482075720 1899460234 840246594 -430090336 -1496568398 391681283 -366829016 67057917 1661135561 -746531599 1855263118
REM
REM C.POTCAR (d86ddea03c3ceb6dc662c8ad6801f873)
REM 
CELL 1.54180   15.00000   15.00000   15.00000   90.00000   90.00000   90.00000
LATT -1
SFAC C  
C      1  0.6101165409240  0.5681814406206  0.8184172561530 1.0
C      1  0.8186833967255  0.6108366123755  0.5671665395227 1.0
C      1  0.5674538527865  0.8194435756144  0.6098344659968 1.0
C      1  0.6101168300223  0.4323805540575  0.1800800874307 1.0
C      1  0.3889686258874  0.4323787066126  0.8184011326548 1.0
C      1  0.3889177844181  0.5682278573800  0.1800818200231 1.0
C      1  0.8187525863796  0.3896826789190  0.4313202522193 1.0
C      1  0.1803423838107  0.3897014109503  0.5671700940813 1.0
C      1  0.1803299601481  0.6109013136457  0.4313129253755 1.0
C      1  0.5674582403819  0.1811562420354  0.3886854674884 1.0
C      1  0.4316192374029  0.1811160736347  0.6098387361247 1.0
C      1  0.4315970202870  0.8194466205687  0.3886711139004 1.0
C      1  0.3486751411806  0.2091780513072  0.5730870154748 1.0
C      1  0.5733981857677  0.3494078318710  0.2080960054023 1.0
C      1  0.2083368148359  0.5741938641796  0.3483414154859 1.0
C      1  0.3486169214486  0.7914524658927  0.4253578852402 1.0
C      1  0.6504042728079  0.7913818715273  0.5730884839550 1.0
C      1  0.6504551989887  0.2091621441440  0.4253539146066 1.0
C      1  0.5733856377861  0.6511355208478  0.7903598045038 1.0
C      1  0.4256037428684  0.6512308500539  0.2080404289257 1.0
C      1  0.4256593263890  0.3493973656735  0.7903545045494 1.0
C      1  0.2083674692033  0.4264181916379  0.6501473350843 1.0
C      1  0.7907026817031  0.4264172219962  0.3483705905448 1.0
C      1  0.7906440133457  0.5741499403355  0.6501392590123 1.0
C      1  0.7265744187689  0.5339881273250  0.2494218956078 1.0
C      1  0.2496447816300  0.7273685042647  0.5329188702775 1.0
C      1  0.5332102614518  0.2503382734161  0.7263197380486 1.0
C      1  0.7266461724323  0.4666039399593  0.7492198272582 1.0
C      1  0.2724453123736  0.4666137745875  0.2494049743911 1.0
C      1  0.2723872613012  0.5339652297481  0.7491853053408 1.0
C      1  0.2496439045642  0.2732346039560  0.4655521200453 1.0
C      1  0.7495045206952  0.2731753428077  0.5329181077986 1.0
C      1  0.7495018000981  0.7273925761392  0.4655731143508 1.0
C      1  0.5331880483727  0.7501733827176  0.2721473825848 1.0
C      1  0.4658303874492  0.7501627259399  0.7262782919729 1.0
C      1  0.4658662679925  0.2503463328040  0.2721049273209 1.0
C      1  0.5463077862178  0.4880430145742  0.6736281108193 1.0
C      1  0.6738881462306  0.5469971662111  0.4870946840885 1.0
C      1  0.4873398635721  0.6745971871361  0.5460275439977 1.0
C      1  0.5462891142010  0.5124948587184  0.3249557082354 1.0
C      1  0.4528069415255  0.5124711705244  0.6735912362565 1.0
C      1  0.4528089382541  0.4880449044222  0.3249817359704 1.0
C      1  0.6739057107856  0.4534955683987  0.5115105853355 1.0
C      1  0.3252038298407  0.4535287394557  0.4870505492481 1.0
C      1  0.3252434112429  0.5470205464838  0.5114899477446 1.0
C      1  0.4873606482342  0.3259738266617  0.4525547688939 1.0
C      1  0.5117847402048  0.3259438124052  0.5460498759206 1.0
C      1  0.5117679789021  0.6745539653973  0.4525368009277 1.0
C      1  0.2373245215972  0.3381548898801  0.3972642600235 1.0
C      1  0.3976152328194  0.2380755150840  0.3370696363792 1.0
C      1  0.3373893591497  0.3983531091489  0.2370807402759 1.0
C      1  0.2373266197602  0.6624153514033  0.6011591512265 1.0
C      1  0.7617826503531  0.6624453412203  0.3973035337765 1.0
C      1  0.7618244767995  0.3381081013513  0.6011800417153 1.0
C      1  0.3975213794122  0.7624895243931  0.6613831292094 1.0
C      1  0.6014496864888  0.7624699052593  0.3370902233345 1.0
C      1  0.6014849404596  0.2380087595680  0.6613950848514 1.0
C      1  0.3373432370902  0.6022179868936  0.7614640187273 1.0
C      1  0.6616542351307  0.6022881706603  0.2370931657199 1.0
C      1  0.6617205681573  0.3983274973476  0.7615507615938 1.0
C      1  0.7794425535281  0.2998140662117  0.4471630965490 1.0
C      1  0.4474387307302  0.7801283704291  0.2988053337681 1.0
C      1  0.2990819391969  0.4482193167118  0.7791236599725 1.0
C      1  0.7794010845279  0.7007120746323  0.5513289150806 1.0
C      1  0.2196827282847  0.7007424032006  0.4471624829659 1.0
C      1  0.2197194593528  0.2998689931241  0.5513047775076 1.0
C      1  0.4474588888216  0.2203975511678  0.6997209172279 1.0
C      1  0.5516168208302  0.2204544300093  0.2988140380217 1.0
C      1  0.5515835316086  0.7801027821568  0.6996872591143 1.0
C      1  0.2990871539636  0.5523695130298  0.2194513839600 1.0
C      1  0.7000117431929  0.5523559705752  0.7791549364054 1.0
C      1  0.6999570217996  0.4482446769388  0.2194699277336 1.0
C      1  0.8456876291636  0.5489533738900  0.4937820483940 1.0
C      1  0.4940488087894  0.8463812413750  0.5479736313309 1.0
C      1  0.5482531854485  0.4947863613888  0.8454020765033 1.0
C      1  0.8456930815558  0.4515483228286  0.5047387096483 1.0
C      1  0.1534220250276  0.4515894973425  0.4937633097203 1.0
C      1  0.1534375567357  0.5489924796613  0.5047329044354 1.0
C      1  0.4940638994860  0.1541704230144  0.4505621759336 1.0
C      1  0.5050132162749  0.1541613384093  0.5479638965810 1.0
C      1  0.5050131259452  0.8463499774861  0.4505746032960 1.0
C      1  0.5482408971304  0.5057718554808  0.1531654722460 1.0
C      1  0.4508429431437  0.5057564483492  0.8454014240130 1.0
C      1  0.4508269685649  0.4948239891523  0.1531881137119 1.0
C      1  0.6599633321657  0.2255633721703  0.5221402290797 1.0
C      1  0.5223908909617  0.6607076217248  0.2244827245944 1.0
C      1  0.2247614151485  0.5232052700958  0.6596486455257 1.0
C      1  0.6599561492452  0.7750026531217  0.4762989116536 1.0
C      1  0.3391297783286  0.7750157588624  0.5221376303264 1.0
C      1  0.3391473162299  0.2256003478130  0.4762969250961 1.0
C      1  0.5224472029106  0.3398531057373  0.7739532171578 1.0
C      1  0.4766123821298  0.3398863876695  0.2244952023276 1.0
C      1  0.4765975163025  0.6606753818203  0.7739361799086 1.0
C      1  0.2247701927302  0.4774044268022  0.3388630271181 1.0
C      1  0.7742724018127  0.4773605073171  0.6596841190159 1.0
C      1  0.7742780454199  0.5231995366792  0.3388778065866 1.0
C      1  0.4148905150511  0.4057548631986  0.1776920187346 1.0
C      1  0.1779662402208  0.4156878159072  0.4047157250582 1.0
C      1  0.4050294428667  0.1787532423040  0.4145983420321 1.0
C      1  0.4148796765863  0.5948076519872  0.8208050646528 1.0
C      1  0.5841348669947  0.5948373065601  0.1777189168842 1.0
C      1  0.5841598617807  0.4057184152369  0.8208367207861 1.0
C      1  0.1779414629828  0.5849187251424  0.5938042593001 1.0
C      1  0.8211063253994  0.5848944884591  0.4047533882948 1.0
C      1  0.8211492277997  0.4156462747414  0.5938226435048 1.0
C      1  0.4049881064974  0.8218326615087  0.5838549321603 1.0
C      1  0.5940664029379  0.8218227212073  0.4146087231798 1.0
C      1  0.5940892023244  0.1787071386397  0.5838369625719 1.0
C      1  0.6317881283124  0.5903326033416  0.5551417153624 1.0
C      1  0.5554103551005  0.6325141066426  0.5893441552874 1.0
C      1  0.5896100333266  0.5561452659324  0.6315316182213 1.0
C      1  0.6318258175658  0.4102042713762  0.4433825031636 1.0
C      1  0.3673046516509  0.4102029953543  0.5551139842755 1.0
C      1  0.3672640113862  0.5903600525855  0.4433750501036 1.0
C      1  0.5554368301638  0.3680445617750  0.4092061831726 1.0
C      1  0.4436540905654  0.3680234917179  0.5893283195133 1.0
C      1  0.4436575625225  0.6325468620803  0.4091740185748 1.0
C      1  0.5896336570493  0.4444269475403  0.3670309809565 1.0
C      1  0.4094691469446  0.4444009105997  0.6314994653423 1.0
C      1  0.4094484592741  0.5561501539151  0.3669886411000 1.0
C      1  0.2795059033119  0.7427200769841  0.3809546282670 1.0
C      1  0.3812462515009  0.2802852336067  0.7416312799653 1.0
C      1  0.7419160148060  0.3820363411712  0.2792967636840 1.0
C      1  0.2795820460982  0.2579219114963  0.6174786780170 1.0
C      1  0.7195786338813  0.2578791344545  0.3809486689579 1.0
C      1  0.7195299770753  0.7426611220554  0.6174987592235 1.0
C      1  0.3812165201592  0.7203329317835  0.2568006443650 1.0
C      1  0.6177797192894  0.7202437654273  0.7416259675049 1.0
C      1  0.6178087800733  0.2802965179310  0.2568403345969 1.0
C      1  0.7419332529577  0.6185665119655  0.7192758639759 1.0
C      1  0.2571089114797  0.6185847745278  0.2792541753181 1.0
C      1  0.2571144421954  0.3820134217514  0.7192758277832 1.0
C      1  0.4042847181252  0.7117466667281  0.5784126268489 1.0
C      1  0.5787316306715  0.4049832744385  0.7107660958754 1.0
C      1  0.7110542754493  0.5794371732003  0.4040580687706 1.0
C      1  0.4043174605550  0.2888195523308  0.4200916907362 1.0
C      1  0.5948442994761  0.2888103535715  0.5784532829029 1.0
C      1  0.5948199948914  0.7117326688411  0.4201064281521 1.0
C      1  0.5786585989575  0.5955476745530  0.2877874304785 1.0
C      1  0.4203744277818  0.5955304843323  0.7107411765612 1.0
C      1  0.4204015759046  0.4049987508049  0.2877960309913 1.0
C      1  0.7110477309489  0.4210750511892  0.5945674742155 1.0
C      1  0.2880488734677  0.4211247969439  0.4040219412143 1.0
C      1  0.2880735325123  0.5794243623957  0.5945411093408 1.0
C      1  0.2953886480159  0.2961469375381  0.7033817186616 1.0
C      1  0.7036915808027  0.2961451022189  0.2950963086495 1.0
C      1  0.2953875510687  0.7044310804549  0.2951179001710 1.0
C      1  0.7036757376926  0.7044218410267  0.7033874970030 1.0
END
