TITL C-23704-1646-13 -1.961 3375.00 -328.37065818 0 0 41 (C1) n - 1
REM
REM Run started: at 2020.12.13 15:47:08 in /gpfs/home/chem/mssmkc/CARBON/AIRSS/Generating-Clusters/Str-Search/Higher-Symm
REM VASP from code version vasp.5.4.4.18Apr17-6-g9f103f2a35 (build Oct 11 2019 16:45:47) gamma-only
REM
REM
REM
REM
REM ./C.cell (e5ae0387ce4d49c7c0135a1433873289)
REM AIRSS Version 0.9.1 bugfix July 2018 build 013d7b7c2542+ Fri, 06 Jul 2018 19:26:36 +0100
REM compiler GCC version 6.3.0
REM options -cpp -iprefix /gpfs/warwick/csc/orac/software/Core/GCCcore/6.3.0/bin/../lib/gcc/x86_64-pc-linux-gnu/6.3.0/ -mtune=generic -march=x86-64 -g -O0
REM seed -1695435608 2047215539 -1467719894 -1310012535 -79496401 -863169729 1914590008 -571322886 -827315038 51920804 427571461 -821418934
REM
REM C.POTCAR (d86ddea03c3ceb6dc662c8ad6801f873)
REM 
CELL 1.54180   15.00000   15.00000   15.00000   90.00000   90.00000   90.00000
LATT -1
SFAC C  
C      1  0.6236782986598  0.3640340591837  0.5597606125533 1.0
C      1  0.3818665734176  0.3643462452670  0.5785323205862 1.0
C      1  0.4858598630263  0.3636521047670  0.3602849412944 1.0
C      1  0.4173322206427  0.5278576854486  0.4428371498666 1.0
C      1  0.5822438793075  0.5332588398434  0.4582681814509 1.0
C      1  0.4847287547072  0.5367473521776  0.5902391096839 1.0
C      1  0.5155703645965  0.6911570747053  0.6265880374194 1.0
C      1  0.3675771256181  0.6849737264549  0.4394366783510 1.0
C      1  0.6306263833578  0.6929787694824  0.4382222204644 1.0
C      1  0.7020521502270  0.5140704797177  0.5834446387339 1.0
C      1  0.3204994032718  0.5130372450958  0.6309257996906 1.0
C      1  0.4664804943835  0.5149275082096  0.2820499572021 1.0
C      1  0.3144925728315  0.4268795379343  0.5929326742660 1.0
C      1  0.5055537146626  0.4298843710608  0.2978467655849 1.0
C      1  0.6680984441380  0.4285287038631  0.6090341499924 1.0
C      1  0.4204676524007  0.7197143163252  0.4926507713715 1.0
C      1  0.5780328639284  0.7309931243942  0.4902008037270 1.0
C      1  0.4994898202886  0.7311183320373  0.5452227984541 1.0
C      1  0.6552334360205  0.6021784321695  0.4235120855757 1.0
C      1  0.4898570489822  0.6102006972093  0.6639835203721 1.0
C      1  0.3464996938509  0.5985556336193  0.4058590481382 1.0
C      1  0.6408936871747  0.5051948091789  0.6572453070060 1.0
C      1  0.2771455225738  0.5004005026420  0.5446580479017 1.0
C      1  0.5622623433063  0.5055603204801  0.2916805722888 1.0
C      1  0.5500114276357  0.3286906484079  0.4248964886759 1.0
C      1  0.5353381677601  0.3297140166861  0.5831136764978 1.0
C      1  0.4056833755454  0.3276023437651  0.4913011593319 1.0
C      1  0.3931994189469  0.5331096133842  0.3426299809135 1.0
C      1  0.6828834472122  0.5319744973427  0.4905379661599 1.0
C      1  0.4088317455720  0.5350361763544  0.6582522542647 1.0
C      1  0.5500541645961  0.5262793284392  0.6753758157905 1.0
C      1  0.3117246999296  0.5185524739031  0.4572092660733 1.0
C      1  0.6242000520309  0.5246744820900  0.3637346172343 1.0
C      1  0.6603618641084  0.4566064605899  0.4288343051560 1.0
C      1  0.4750089490047  0.4611608303411  0.6735993172022 1.0
C      1  0.3537833543927  0.4546453368471  0.3933537401527 1.0
C      1  0.3978914558475  0.3678647874284  0.4052476834018 1.0
C      1  0.6278157426083  0.3702415760372  0.4605933444202 1.0
C      1  0.4653078548720  0.3727658297552  0.6314390820729 1.0
C      1  0.4955855817014  0.5304354667797  0.4965724652634 1.0
C      1  0.4973095868618  0.3008545605816  0.5001046454142 1.0
END
