TITL C-231038-7775-19 -0.531 3375.00 -76.85866885 0 0 10 (D2h) n - 1
REM
REM Run started: at 2020.11.30 20:00:24 in /rds/project/t2_vol4/rds-t2-cs072/BORA/CARBON/AIRSS/Generating-Clusters/Str-Search/Higher-Symm/C10-100
REM VASP from code version vasp.5.4.4.18Apr17-6-g9f103f2a35 (build Oct 11 2019 16:45:47) gamma-only
REM
REM
REM
REM
REM ./C.cell (f39ce9773e2efe3fa5bbdf770a4156b8)
REM AIRSS Version 0.9.1 bugfix July 2018 build 013d7b7c2542+ Fri, 06 Jul 2018 19:26:36 +0100
REM compiler GCC version 4.8.5 20150623 (Red Hat 4.8.5-39)
REM options -cpp -mtune=generic -march=x86-64 -g -O0
REM seed -2057963787 -1318298336 46818295 -1717403049 1594613852 304976364 -1447092757 1871087334 -1301422946 -1472131136 1422797538 1771296433
REM
REM C.POTCAR (d86ddea03c3ceb6dc662c8ad6801f873)
REM 
CELL 1.54180   15.00000   15.00000   15.00000   90.00000   90.00000   90.00000
LATT -1
SFAC C  
C      1  0.6236778692426  0.5145666673412  0.5001134536135 1.0
C      1  0.5789632264475  0.5350362422261  0.4281768576165 1.0
C      1  0.5063183170116  0.5599300052857  0.3905964517547 1.0
C      1  0.4220692728352  0.5820772623385  0.3944848645303 1.0
C      1  0.3346759682538  0.6049822420674  0.4099752081229 1.0
C      1  0.3718226769180  0.5826548268917  0.4907481280382 1.0
C      1  0.4162397829269  0.5609760409175  0.5625789529114 1.0
C      1  0.4881499101660  0.5357776833343  0.6014672454857 1.0
C      1  0.5726937988241  0.5149629788588  0.5974769461878 1.0
C      1  0.6604553773743  0.4950864507390  0.5814237917390 1.0
END
