TITL C-234810-3968-2 -1.266 3375.00 -202.80261657 0 0 26 (C1) n - 1
REM
REM Run started: at 2020.11.21 10:46:33 in /rds/project/t2_vol4/rds-t2-cs072/BORA/CARBON/AIRSS/Generating-Clusters/Str-Search/Higher-Symm
REM VASP from code version vasp.5.4.4.18Apr17-6-g9f103f2a35 (build Oct 11 2019 16:45:47) gamma-only
REM
REM
REM
REM
REM ./C.cell (e5ae0387ce4d49c7c0135a1433873289)
REM AIRSS Version 0.9.1 bugfix July 2018 build 013d7b7c2542+ Fri, 06 Jul 2018 19:26:36 +0100
REM compiler GCC version 4.8.5 20150623 (Red Hat 4.8.5-39)
REM options -cpp -mtune=generic -march=x86-64 -g -O0
REM seed 1957132335 -1792035603 -203817996 820330811 -891300544 -1817623311 1926619608 795762743 1534704751 1033240671 -467939286 540745891
REM
REM C.POTCAR (d86ddea03c3ceb6dc662c8ad6801f873)
REM 
CELL 1.54180   15.00000   15.00000   15.00000   90.00000   90.00000   90.00000
LATT -1
SFAC C  
C      1  0.3783270893572  0.4850961975012  0.1863987662143 1.0
C      1  0.3436362904851  0.6787359083053  0.5960173537128 1.0
C      1  0.3522289231978  0.2777999137385  0.6761728869658 1.0
C      1  0.6230765585996  0.4424352640476  0.4217267492412 1.0
C      1  0.6326639532210  0.5876102187246  0.4909660007047 1.0
C      1  0.6320429089010  0.4497783336520  0.5864040899377 1.0
C      1  0.5080843037418  0.4861581565201  0.3043263633377 1.0
C      1  0.5159005667229  0.6529293777945  0.5800280074704 1.0
C      1  0.4958174672804  0.3532994542762  0.6092514425876 1.0
C      1  0.4225605284027  0.3149313123931  0.6452161781843 1.0
C      1  0.4425131800224  0.4846246907716  0.2438409373499 1.0
C      1  0.4188004630708  0.6337137569932  0.5908260871888 1.0
C      1  0.5660252539329  0.5849529383873  0.6274032948456 1.0
C      1  0.5228118064862  0.3650535867596  0.5181760374068 1.0
C      1  0.5449622112636  0.5544961093478  0.3618711114836 1.0
C      1  0.6182601871727  0.4013741004680  0.5077543856932 1.0
C      1  0.6325656496644  0.5361082220362  0.4116704803930 1.0
C      1  0.6400300044370  0.5476712385209  0.5784703474278 1.0
C      1  0.4882412008037  0.5853724455916  0.4348115932197 1.0
C      1  0.5043331736239  0.5102723472185  0.6438326509350 1.0
C      1  0.4757844739016  0.4213790871208  0.4556612608563 1.0
C      1  0.5500737474679  0.4277853663008  0.6404608617294 1.0
C      1  0.5352663144453  0.4290711464593  0.3768943280367 1.0
C      1  0.5463217505408  0.6391597106973  0.4931921268878 1.0
C      1  0.4437748320783  0.5092496171992  0.4854651438684 1.0
C      1  0.4321669611791  0.5344037991747  0.5806561143212 1.0
END
