TITL C-231979-7561-6 -8.367 3375.00 -1381.25624063 0 0 167 (C1) n - 1
REM
REM Run started: at 2020.12.23 08:08:37 in /rds/project/t2_vol4/rds-t2-cs072/BORA/CARBON/AIRSS/Generating-Clusters/Str-Search/Higher-Symm/C100-200
REM VASP from code version vasp.5.4.4.18Apr17-6-g9f103f2a35 (build Oct 11 2019 16:45:47) gamma-only
REM
REM
REM
REM
REM ./C.cell (533062f00bc710175b3da973d35f2034)
REM AIRSS Version 0.9.1 bugfix July 2018 build 013d7b7c2542+ Fri, 06 Jul 2018 19:26:36 +0100
REM compiler GCC version 4.8.5 20150623 (Red Hat 4.8.5-39)
REM options -cpp -mtune=generic -march=x86-64 -g -O0
REM seed 1130776655 -1593432194 -1274031920 -560297234 -285732968 813607383 -272384456 -2112679190 2053207132 410502510 1130471419 751776547
REM
REM C.POTCAR (d86ddea03c3ceb6dc662c8ad6801f873)
REM 
CELL 1.54180   15.00000   15.00000   15.00000   90.00000   90.00000   90.00000
LATT -1
SFAC C  
C      1  0.3980770229987  0.2889478796018  0.5477048956453 1.0
C      1  0.3225001429785  0.5776229685156  0.5532097998950 1.0
C      1  0.5874059017954  0.6687286200972  0.5316054032483 1.0
C      1  0.6973375332422  0.4100972532374  0.5557207544156 1.0
C      1  0.4021034754399  0.2946335414884  0.4446096826369 1.0
C      1  0.3324346845447  0.5605652221301  0.4464352757498 1.0
C      1  0.5864920488513  0.6704420921446  0.4392093070282 1.0
C      1  0.6780097460431  0.4492182501778  0.4507288274353 1.0
C      1  0.3302884771068  0.2425024945552  0.3972946921698 1.0
C      1  0.1997686490840  0.6778350679280  0.4172748719784 1.0
C      1  0.6766547719215  0.8100355097865  0.4153421124051 1.0
C      1  0.8215726283200  0.3342631924894  0.4117670785221 1.0
C      1  0.3787439336995  0.1484747895280  0.6136571217072 1.0
C      1  0.1796997709275  0.6391334333452  0.6247927170197 1.0
C      1  0.6560624425613  0.8542057942707  0.6192160908414 1.0
C      1  0.8390163644987  0.3629036473529  0.6425067131598 1.0
C      1  0.6044246763637  0.3748660402179  0.5434673477401 1.0
C      1  0.3728604145909  0.3847117446259  0.5468065922252 1.0
C      1  0.4148408378654  0.6143531563697  0.5394507682873 1.0
C      1  0.6169621638455  0.5818718063877  0.5557009183713 1.0
C      1  0.5998924348623  0.3866880842726  0.4475855511489 1.0
C      1  0.3740444387257  0.3950936639166  0.4556299268310 1.0
C      1  0.4125481292651  0.6182187816956  0.4415617763927 1.0
C      1  0.6176360204114  0.5866218528932  0.4040444503583 1.0
C      1  0.1388049273266  0.5818620941825  0.5600145327781 1.0
C      1  0.5854027190208  0.8584905093923  0.5596033458930 1.0
C      1  0.8561253532906  0.4232967010731  0.5628092786110 1.0
C      1  0.4504279159273  0.1285571316952  0.5501546088415 1.0
C      1  0.1548887458270  0.5992175522791  0.4665001159956 1.0
C      1  0.5925500910265  0.8429984369736  0.4655650778805 1.0
C      1  0.8503506966921  0.4134205386718  0.4656807815707 1.0
C      1  0.4541211324086  0.1332948182437  0.4570040940310 1.0
C      1  0.3342908153460  0.6218332830855  0.8148527541429 1.0
C      1  0.5549534125303  0.6168749560837  0.8737649488622 1.0
C      1  0.6573621639335  0.3919996730958  0.8279888679307 1.0
C      1  0.3876776306867  0.2989938587271  0.8281291624963 1.0
C      1  0.3659313847022  0.5985776174116  0.1303558408951 1.0
C      1  0.5595073174964  0.6066693502439  0.1006961571686 1.0
C      1  0.5707040371871  0.3911376200236  0.0689232140903 1.0
C      1  0.3421108211716  0.3447598417401  0.1599211757219 1.0
C      1  0.4158775435941  0.6547446556454  0.0790108288362 1.0
C      1  0.5941908476160  0.5484295744437  0.0369794421620 1.0
C      1  0.4991881765770  0.3476410609129  0.0812518703192 1.0
C      1  0.3134905272800  0.4271352928566  0.1277034981642 1.0
C      1  0.3927425947174  0.6621031705430  0.8682561544159 1.0
C      1  0.5971865142331  0.5498846572485  0.9361733256185 1.0
C      1  0.5699040531007  0.3401431802577  0.8464221038991 1.0
C      1  0.3184395093799  0.3535516624671  0.8523201797005 1.0
C      1  0.3935978121271  0.5909334316214  0.2290908653463 1.0
C      1  0.5527523528935  0.5846002209811  0.2028767070725 1.0
C      1  0.6617249897740  0.3837545793241  0.2329674983326 1.0
C      1  0.4453581900800  0.4410726096133  0.2591244668018 1.0
C      1  0.3959225598223  0.5755961475212  0.7466261939674 1.0
C      1  0.5587761947135  0.6089148073948  0.7738131294353 1.0
C      1  0.6196423565046  0.4783452693239  0.7857632916804 1.0
C      1  0.5263881339298  0.4549399903121  0.7555173095862 1.0
C      1  0.3516244575940  0.7471798309797  0.3106668460657 1.0
C      1  0.7301820268568  0.6489638104507  0.3258369457684 1.0
C      1  0.6681406161330  0.2641256975434  0.3114386652116 1.0
C      1  0.2664094813886  0.3769562680186  0.3002966504573 1.0
C      1  0.3227769170949  0.7058155416119  0.6752809362187 1.0
C      1  0.7665313313482  0.6699690444851  0.6823523015214 1.0
C      1  0.6737351324812  0.2804762513328  0.6928441852097 1.0
C      1  0.3032721338078  0.2744267686254  0.6803056213049 1.0
C      1  0.6188332354573  0.4660681798091  0.0884295897525 1.0
C      1  0.4415064941569  0.3323517898130  0.1492693131480 1.0
C      1  0.3116604150782  0.5150298894580  0.1415673789227 1.0
C      1  0.4969587786419  0.6789868113436  0.1180953143800 1.0
C      1  0.6386057381467  0.4837103498028  0.8805812898632 1.0
C      1  0.4833248734748  0.3169772615321  0.8394376667866 1.0
C      1  0.2566830012482  0.3980946429697  0.8136058735595 1.0
C      1  0.4822240413733  0.6798953903357  0.8597715803079 1.0
C      1  0.3213742822050  0.4221561187948  0.6154343102581 1.0
C      1  0.4578551815298  0.6535603990226  0.6078788121571 1.0
C      1  0.6461565740825  0.5466370712658  0.6348914449485 1.0
C      1  0.5529568345400  0.3327556771325  0.6026326485837 1.0
C      1  0.3432042700341  0.4677807871906  0.3983278639130 1.0
C      1  0.4560449354006  0.6587464730049  0.3715946573648 1.0
C      1  0.6770201197277  0.5624182263795  0.3267485927301 1.0
C      1  0.5576097538580  0.3462515720988  0.3785221463912 1.0
C      1  0.4868512964492  0.2752477910095  0.3889385052089 1.0
C      1  0.2606588773756  0.5299712709327  0.3869459471104 1.0
C      1  0.5320741204474  0.7233988461590  0.3788762841519 1.0
C      1  0.7303104540055  0.4860494202089  0.3661181739901 1.0
C      1  0.4845508586031  0.2698182801602  0.5875846597465 1.0
C      1  0.2958690586137  0.5080839622927  0.6220347398221 1.0
C      1  0.5317382238737  0.7142355238681  0.5968969482802 1.0
C      1  0.7164813554188  0.4853689387914  0.6154655007834 1.0
C      1  0.4181457281340  0.1838660465926  0.6958833782044 1.0
C      1  0.2014766778886  0.6024022494643  0.7095389795315 1.0
C      1  0.6379030030730  0.7958324347977  0.6945369926136 1.0
C      1  0.7943549491240  0.4023085139351  0.7159775601281 1.0
C      1  0.3528403857435  0.2535729268380  0.3029319613918 1.0
C      1  0.2157707622468  0.6611875272583  0.3217718040415 1.0
C      1  0.6596417936180  0.7973822061941  0.3226985331861 1.0
C      1  0.8033319005532  0.3661119259226  0.3253520153258 1.0
C      1  0.8325845021714  0.4982531356946  0.4112984589269 1.0
C      1  0.5233362917745  0.1825266831676  0.4228993271903 1.0
C      1  0.1740834186473  0.5158201779227  0.4243862487121 1.0
C      1  0.5112258765252  0.8101895705768  0.4275546087079 1.0
C      1  0.8185290544424  0.5113596651403  0.5957826149803 1.0
C      1  0.5318759604518  0.1719124765277  0.5886099934143 1.0
C      1  0.1458530184051  0.4929774574343  0.5960029958116 1.0
C      1  0.5053691032934  0.8133242554094  0.6029718597104 1.0
C      1  0.2750495518428  0.7500055166242  0.5424353061285 1.0
C      1  0.7788195589114  0.7544812062231  0.5445675589408 1.0
C      1  0.7569324432243  0.2594288024982  0.5386580277268 1.0
C      1  0.2374277088617  0.2662268130509  0.5322211289856 1.0
C      1  0.2624816923920  0.7478429438856  0.4495995773622 1.0
C      1  0.7531998314991  0.7524061707290  0.4514087281765 1.0
C      1  0.7643165741056  0.2588400263409  0.4451840808536 1.0
C      1  0.2457041273113  0.2750671687087  0.4356296483501 1.0
C      1  0.8061456722907  0.6731843749283  0.5918687931191 1.0
C      1  0.6912745004170  0.2273468018998  0.6007852742359 1.0
C      1  0.1976221513233  0.3364783060204  0.5805241030208 1.0
C      1  0.3360757005142  0.7879719031489  0.6019563642400 1.0
C      1  0.7826669358046  0.6688703926045  0.4043683524812 1.0
C      1  0.6862677293128  0.2250607058789  0.3970816137564 1.0
C      1  0.2181414742361  0.3559571092900  0.3906341908726 1.0
C      1  0.3441107707465  0.7819691626351  0.4044046195587 1.0
C      1  0.4196429262104  0.8157368429682  0.4621197218262 1.0
C      1  0.8256905607346  0.5921836210709  0.4499786265460 1.0
C      1  0.6169797382454  0.1843852462154  0.4531143126182 1.0
C      1  0.1675190429630  0.4231839510556  0.4467660672104 1.0
C      1  0.4147000706146  0.8218257241489  0.5603153190538 1.0
C      1  0.8278733991293  0.5948373861757  0.5458712724048 1.0
C      1  0.6210480848727  0.1813687894987  0.5497478558861 1.0
C      1  0.1542155573443  0.4123148372804  0.5418199345078 1.0
C      1  0.6540665856803  0.4679453474455  0.1814560393882 1.0
C      1  0.4842991920891  0.3418823912056  0.2416223763030 1.0
C      1  0.3141221039622  0.5323410601871  0.2459356926988 1.0
C      1  0.5134928247187  0.6905827545090  0.2213125826104 1.0
C      1  0.6432462716062  0.5638801808426  0.7330799945851 1.0
C      1  0.5248332123700  0.3550434307325  0.7572059550453 1.0
C      1  0.2213996214130  0.4212006703840  0.7346239804699 1.0
C      1  0.5000063878084  0.6955432947371  0.7544802425264 1.0
C      1  0.2651634197677  0.6565226517013  0.7535294051245 1.0
C      1  0.7264953629522  0.7565464489106  0.6923190680700 1.0
C      1  0.7184607426585  0.3468048078242  0.7505673035386 1.0
C      1  0.3634115633717  0.2480940420525  0.7440719033387 1.0
C      1  0.2725682831370  0.7186421777328  0.2761960473691 1.0
C      1  0.6812766765927  0.7157999167866  0.2867387742462 1.0
C      1  0.7268109562230  0.3314371391531  0.2766894103646 1.0
C      1  0.3004860479593  0.3091270565842  0.2415241565279 1.0
C      1  0.5809113204059  0.7365330494739  0.2880535586583 1.0
C      1  0.8119032219429  0.4619867941969  0.3193011139679 1.0
C      1  0.4424904609747  0.2755460758182  0.3006257723643 1.0
C      1  0.2433007642568  0.5722091396729  0.3005406861702 1.0
C      1  0.5461936650147  0.7616794012159  0.6895771666115 1.0
C      1  0.7853721764558  0.5005927123415  0.6911408485729 1.0
C      1  0.5085001444575  0.2128423842836  0.6736392361921 1.0
C      1  0.2043271729544  0.5051491655481  0.6823723262658 1.0
C      1  0.7434422196656  0.5875244162438  0.7261101271205 1.0
C      1  0.5722376183170  0.2941551976179  0.6933011562730 1.0
C      1  0.2534982951783  0.3571915694235  0.6630704986175 1.0
C      1  0.4169372092506  0.6594468933574  0.6959039288194 1.0
C      1  0.6370691281994  0.5417312116767  0.2355555466485 1.0
C      1  0.5848857006604  0.3372738054635  0.2789803137487 1.0
C      1  0.3465685828943  0.4516812341469  0.2971886746698 1.0
C      1  0.4246626664855  0.6746553243467  0.2779265151751 1.0
C      1  0.7750715325526  0.3468649242864  0.5736493151943 1.0
C      1  0.3168655379524  0.2298154915827  0.5904564244667 1.0
C      1  0.2670205429233  0.6687268158902  0.5941402972345 1.0
C      1  0.7421132572404  0.8090564244901  0.6110022127140 1.0
C      1  0.4714204877439  0.5263273038409  0.2314331549078 1.0
C      1  0.4801236567847  0.5316804260155  0.7574389931060 1.0
C      1  0.6360248550728  0.5348291456810  0.4748932991781 1.0
END
