TITL C-23239-2101-4 -8 3375.00 -1501.22118791 0 0 180 (Ci) n - 1
REM
REM Run started: at 2020.12.25 16:13:15 in /gpfs/home/chem/mssmkc/CARBON/AIRSS/Generating-Clusters/Str-Search/Higher-Symm/Only-C180
REM VASP from code version vasp.5.4.4.18Apr17-6-g9f103f2a35 (build Oct 11 2019 16:45:47) gamma-only
REM
REM
REM
REM
REM ./C.cell (73b75853f6e4503fb4b57bac71549d7d)
REM AIRSS Version 0.9.1 bugfix July 2018 build 013d7b7c2542+ Fri, 06 Jul 2018 19:26:36 +0100
REM compiler GCC version 6.3.0
REM options -cpp -iprefix /gpfs/warwick/csc/orac/software/Core/GCCcore/6.3.0/bin/../lib/gcc/x86_64-pc-linux-gnu/6.3.0/ -mtune=generic -march=x86-64 -g -O0
REM seed -319226604 -422639530 -890530957 1318839282 192405487 -178238338 -133505358 -104822334 620538577 1357861536 1034212005 28986404
REM
REM C.POTCAR (d86ddea03c3ceb6dc662c8ad6801f873)
REM 
CELL 1.54180   15.00000   15.00000   15.00000   90.00000   90.00000   90.00000
LATT -1
SFAC C  
C      1  0.2591937338098  0.3614272035847  0.4147428994535 1.0
C      1  0.3985601956990  0.3004325347312  0.3802261036776 1.0
C      1  0.3420819836019  0.4199734756945  0.3033613539621 1.0
C      1  0.7379042248329  0.3305442658840  0.5638495137642 1.0
C      1  0.2228028395362  0.7130779119200  0.6238719108471 1.0
C      1  0.7308204186474  0.6212652737258  0.4197483904927 1.0
C      1  0.5994198777874  0.2798775953716  0.6236443125667 1.0
C      1  0.3494912858859  0.7793360292187  0.6985624895327 1.0
C      1  0.6056704802952  0.6947772180862  0.3764548750191 1.0
C      1  0.6686903320540  0.3925885712026  0.6945809016863 1.0
C      1  0.2877816000260  0.6497927913354  0.7607961041644 1.0
C      1  0.6499817434085  0.5520735148482  0.3140997160093 1.0
C      1  0.2621099474745  0.6694359076750  0.4361232671638 1.0
C      1  0.4005798569517  0.7201614423240  0.3763273319064 1.0
C      1  0.3313149113365  0.6074183706344  0.3054227636688 1.0
C      1  0.7408097714084  0.6385500532685  0.5852779548118 1.0
C      1  0.2691980561167  0.3787594741185  0.5802422522244 1.0
C      1  0.7771230627881  0.2869775893473  0.3761667822722 1.0
C      1  0.6014719207482  0.6995870287265  0.6197713514851 1.0
C      1  0.3943343543126  0.3052501648451  0.6235524967916 1.0
C      1  0.6504508741052  0.2206350844728  0.3014205354356 1.0
C      1  0.6579019466977  0.5799721435295  0.6966300871158 1.0
C      1  0.3500317791307  0.4479894258679  0.6859132472360 1.0
C      1  0.7121433307606  0.3502125169843  0.2392347658625 1.0
C      1  0.2340640480966  0.8426727235418  0.4380156039620 1.0
C      1  0.4418063506251  0.2423252052078  0.7486086752245 1.0
C      1  0.7485446289266  0.4708683159594  0.1583746582752 1.0
C      1  0.8201499907910  0.7528692258451  0.5329037246203 1.0
C      1  0.1895313340533  0.2529853398194  0.5599758895983 1.0
C      1  0.8302911223115  0.2097198479498  0.5642893685138 1.0
C      1  0.5185703182674  0.2051496272726  0.2317935658390 1.0
C      1  0.4667323352981  0.7711907311456  0.2510469975332 1.0
C      1  0.5654597831924  0.7633153520033  0.7502075988266 1.0
C      1  0.2208091629605  0.4739217803253  0.7770100763239 1.0
C      1  0.7782497214766  0.5333075478598  0.7721029261873 1.0
C      1  0.2192135977610  0.5588577819736  0.2251727199215 1.0
C      1  0.1798891604944  0.2470966041613  0.4670811805313 1.0
C      1  0.4814114064830  0.7948115846863  0.7682077063170 1.0
C      1  0.7791143377750  0.5260269111872  0.2229812661350 1.0
C      1  0.7659144379377  0.1573121399775  0.5620054463148 1.0
C      1  0.1697233835466  0.7902338828009  0.4358390799232 1.0
C      1  0.8105408989440  0.7469742410489  0.4400213974469 1.0
C      1  0.5582318953654  0.7577187375983  0.2513832204977 1.0
C      1  0.4345360327017  0.2366555428450  0.2497935775670 1.0
C      1  0.5332997796992  0.2288129739956  0.7489310701135 1.0
C      1  0.2515422111567  0.5289862142320  0.8416042242120 1.0
C      1  0.7807963082463  0.4411686051621  0.7748937742379 1.0
C      1  0.2217488425514  0.4667189186880  0.2279441575366 1.0
C      1  0.7077163892057  0.2196553430417  0.3776693162694 1.0
C      1  0.4197660489365  0.6366896448673  0.3267923956087 1.0
C      1  0.3132293003254  0.4645902470258  0.5972427969764 1.0
C      1  0.3300981933895  0.3061836900643  0.5514175657631 1.0
C      1  0.6718399749102  0.6980034560015  0.5513772833454 1.0
C      1  0.3340346782296  0.7305458869331  0.4399133533677 1.0
C      1  0.5698004426161  0.6177253384145  0.6727976962323 1.0
C      1  0.4273320309714  0.3869502211609  0.6723970126078 1.0
C      1  0.6376561642885  0.2977263008162  0.2550277375484 1.0
C      1  0.7832242954541  0.3467163377860  0.3002263492099 1.0
C      1  0.2639787108305  0.6067401631295  0.3684526889884 1.0
C      1  0.7270393070547  0.5637956937593  0.6343425025271 1.0
C      1  0.6699485544406  0.6938607665466  0.4485794368354 1.0
C      1  0.4302030762160  0.3822879561418  0.3272217633991 1.0
C      1  0.2167214403904  0.6533063878706  0.6997887571938 1.0
C      1  0.2922572993894  0.7803417574015  0.6222843825683 1.0
C      1  0.6659472993751  0.2694725739073  0.5600245561273 1.0
C      1  0.3282204257361  0.3020380530276  0.4486512685637 1.0
C      1  0.5802425645792  0.3633351107983  0.6732150613385 1.0
C      1  0.3622880725581  0.7022517098345  0.7449944385410 1.0
C      1  0.5726741859874  0.6130739724604  0.3275773287830 1.0
C      1  0.6867830733175  0.5354395583115  0.4027428064616 1.0
C      1  0.2729660348436  0.4361829415741  0.3656737079086 1.0
C      1  0.7360520223419  0.3931973172059  0.6315656363919 1.0
C      1  0.5508729656690  0.4484254794583  0.8792144398151 1.0
C      1  0.9182738358354  0.5384380622303  0.4461657529452 1.0
C      1  0.4944594060480  0.8996613523689  0.5513370234132 1.0
C      1  0.4466229684421  0.4528264952938  0.1128245301135 1.0
C      1  0.5508886374648  0.5449021484538  0.1208143332938 1.0
C      1  0.4552543349639  0.5524545416116  0.8938428937121 1.0
C      1  0.0483909549140  0.5561218451983  0.5485711025356 1.0
C      1  0.9270797928308  0.4468449950826  0.5483625098461 1.0
C      1  0.0590774660303  0.4519685638993  0.4496650769750 1.0
C      1  0.5877723547028  0.8903375082450  0.4483399086082 1.0
C      1  0.4078168970577  0.1074510827167  0.4516270889518 1.0
C      1  0.5123164915945  0.1019151866611  0.5458266330956 1.0
C      1  0.5533821078055  0.5471898691238  0.8871572994538 1.0
C      1  0.9516335273337  0.4438825128744  0.4514107706337 1.0
C      1  0.4122471959171  0.1096545024469  0.5516654432637 1.0
C      1  0.4491056046114  0.5515958678425  0.1207859093194 1.0
C      1  0.5447637193893  0.4475475330062  0.1061402917548 1.0
C      1  0.4491146516468  0.4550881671465  0.8791962578622 1.0
C      1  0.0816880439116  0.4615790209956  0.5538203677104 1.0
C      1  0.9409402139335  0.5479969200179  0.5503813786162 1.0
C      1  0.0728811293016  0.5531623217389  0.4516163497112 1.0
C      1  0.5055511635615  0.1002856035752  0.4486578960014 1.0
C      1  0.4877025971169  0.8980695100444  0.4541816684857 1.0
C      1  0.5921814202945  0.8925011224936  0.5483884665707 1.0
C      1  0.8412148461301  0.5089488987143  0.3004976272585 1.0
C      1  0.3434737674094  0.8345887247219  0.5632953337714 1.0
C      1  0.5472864503106  0.3329702750446  0.7676033994085 1.0
C      1  0.1484061473608  0.5845830564437  0.6810374892738 1.0
C      1  0.8196470291998  0.4305345413498  0.6682623136768 1.0
C      1  0.1847684773843  0.4649114343074  0.3291799864263 1.0
C      1  0.7155438056933  0.7883146302750  0.4435655362439 1.0
C      1  0.2804184203434  0.2086514391015  0.4540190036617 1.0
C      1  0.6687765565427  0.1690310445593  0.5361948612640 1.0
C      1  0.4565238093930  0.3362731461625  0.2309410607682 1.0
C      1  0.5531657646304  0.6559964014135  0.2335469244844 1.0
C      1  0.4427902389808  0.6923774500671  0.8010129457124 1.0
C      1  0.8515572657966  0.4153918437927  0.3189518323193 1.0
C      1  0.2845032688227  0.2116860087566  0.5564581042474 1.0
C      1  0.5434895205741  0.6637070116003  0.7690227555247 1.0
C      1  0.1587563054732  0.4910593628073  0.6994590097315 1.0
C      1  0.8152168530337  0.5350642791801  0.6708013356705 1.0
C      1  0.1803613446853  0.5694261400658  0.3317672138779 1.0
C      1  0.6565064861862  0.1654192469797  0.4366943311470 1.0
C      1  0.3312239554997  0.8309566031870  0.4638232456374 1.0
C      1  0.7196382971256  0.7913329482666  0.5460141351948 1.0
C      1  0.4527356083009  0.6670763327644  0.2323845143949 1.0
C      1  0.5572097086318  0.3075910509641  0.1989467619199 1.0
C      1  0.4468594603225  0.3439940370613  0.7664615606813 1.0
C      1  0.1199895495292  0.4047781382329  0.3870268188354 1.0
C      1  0.3480367323903  0.1557124405729  0.3989374295906 1.0
C      1  0.3977656968728  0.3973794933907  0.1679005838269 1.0
C      1  0.8812293728923  0.3870580350382  0.5969586005903 1.0
C      1  0.1050339502358  0.6152721491170  0.6007648852386 1.0
C      1  0.8706855989317  0.5729601251566  0.3759506535321 1.0
C      1  0.5864396300960  0.1340516188534  0.5928432250089 1.0
C      1  0.4260071540381  0.8675291695765  0.6082560207186 1.0
C      1  0.6445477509048  0.8413278268738  0.3945713504875 1.0
C      1  0.6030909392167  0.3893978093619  0.8310933000926 1.0
C      1  0.3999403069155  0.6220393154372  0.8687953430837 1.0
C      1  0.6066706866566  0.5956276623622  0.1739106448246 1.0
C      1  0.1187466187623  0.6129264391837  0.4030172350158 1.0
C      1  0.4135640846665  0.8659836542317  0.4071627713773 1.0
C      1  0.3969072261788  0.6106198127635  0.1689367306375 1.0
C      1  0.8800109136360  0.5952431772911  0.6130079207201 1.0
C      1  0.1292725867257  0.4270509062718  0.6240611390428 1.0
C      1  0.8948829160102  0.3847014263560  0.3992856489439 1.0
C      1  0.6519945701900  0.8442997102780  0.6010744275168 1.0
C      1  0.3555001401188  0.1586773920621  0.6054395199858 1.0
C      1  0.5740019777784  0.1324591296248  0.3917301456156 1.0
C      1  0.6022255416123  0.6026286416859  0.8320738847093 1.0
C      1  0.3933518820157  0.4043513993840  0.8260723670389 1.0
C      1  0.6000187739233  0.3778993345344  0.1311766083558 1.0
C      1  0.6094206349293  0.7781369732629  0.6651659434163 1.0
C      1  0.6851385633111  0.5781398567009  0.7834840405962 1.0
C      1  0.8305024804900  0.6687648301071  0.5831929894064 1.0
C      1  0.4257422117070  0.8000827775847  0.3355180727417 1.0
C      1  0.5750307800692  0.1640079431967  0.3000963155296 1.0
C      1  0.3916586451687  0.2256743184630  0.6683214504544 1.0
C      1  0.3105084334638  0.5975514387877  0.2167243429055 1.0
C      1  0.6929766990149  0.3978600743054  0.1579984412659 1.0
C      1  0.3141654637564  0.4360364473380  0.7691379359292 1.0
C      1  0.1646791414566  0.6917581508785  0.4586574748027 1.0
C      1  0.8434512385243  0.3185642492325  0.4400141741097 1.0
C      1  0.1872405529211  0.3482041763072  0.6018932464272 1.0
C      1  0.5742612235644  0.1999628767628  0.6644516145709 1.0
C      1  0.6894737636123  0.4025176811470  0.7832902181482 1.0
C      1  0.8353372129865  0.3081812288181  0.5413016499165 1.0
C      1  0.3905936796597  0.2218739950759  0.3348395447113 1.0
C      1  0.6083909052927  0.7743465430073  0.3316696562645 1.0
C      1  0.4249388813086  0.8359386122977  0.6998714203767 1.0
C      1  0.3148273961411  0.4218684855283  0.2165170204655 1.0
C      1  0.6858290794319  0.5639559451575  0.2309047910569 1.0
C      1  0.3069844374282  0.6021192461433  0.8419558865151 1.0
C      1  0.1694907454790  0.3312287782368  0.4168320949194 1.0
C      1  0.8127772439078  0.6518036476209  0.3980796740296 1.0
C      1  0.1565174975509  0.6814383949404  0.5600235372855 1.0
C      1  0.6319566349089  0.4951004876168  0.4651940806841 1.0
C      1  0.3680361041606  0.5049459232446  0.5347873996874 1.0
C      1  0.5752134595967  0.5515460279042  0.5219667256449 1.0
C      1  0.4247538464594  0.4485023751791  0.4780006958928 1.0
C      1  0.4430818407517  0.5658423249814  0.5489045350812 1.0
C      1  0.5121768294749  0.4262149895475  0.6242110262353 1.0
C      1  0.4999650823996  0.5897125292719  0.4763517454861 1.0
C      1  0.5000265224647  0.4103431416182  0.5236234705792 1.0
C      1  0.5569099562359  0.4342044549008  0.4510804681651 1.0
C      1  0.4756715226789  0.4601466482704  0.3891846349498 1.0
C      1  0.4878587862292  0.5738419053691  0.3757712712450 1.0
C      1  0.5243478334950  0.5398957426793  0.6108153253650 1.0
END
