TITL C-23239-2101-31 -9.333 3375.00 -1452.39690457 0 0 180 (D2) n - 1
REM
REM Run started: at 2020.12.26 21:59:58 in /gpfs/home/chem/mssmkc/CARBON/AIRSS/Generating-Clusters/Str-Search/Higher-Symm/Only-C180
REM VASP from code version vasp.5.4.4.18Apr17-6-g9f103f2a35 (build Oct 11 2019 16:45:47) gamma-only
REM
REM
REM
REM
REM ./C.cell (73b75853f6e4503fb4b57bac71549d7d)
REM AIRSS Version 0.9.1 bugfix July 2018 build 013d7b7c2542+ Fri, 06 Jul 2018 19:26:36 +0100
REM compiler GCC version 6.3.0
REM options -cpp -iprefix /gpfs/warwick/csc/orac/software/Core/GCCcore/6.3.0/bin/../lib/gcc/x86_64-pc-linux-gnu/6.3.0/ -mtune=generic -march=x86-64 -g -O0
REM seed -1507676907 478181585 -952370746 297048962 410429371 -1090795889 197038683 1732535729 -1377534681 -1090845742 470884322 300722722
REM
REM C.POTCAR (d86ddea03c3ceb6dc662c8ad6801f873)
REM 
CELL 1.54180   15.00000   15.00000   15.00000   90.00000   90.00000   90.00000
LATT -1
SFAC C  
C      1  0.6726165257462  0.8042306164748  0.3795834675841 1.0
C      1  0.3273830325745  0.8042304586615  0.6204186390361 1.0
C      1  0.6726185822452  0.1957680024205  0.6204175077134 1.0
C      1  0.3273789982793  0.1957699731420  0.3795795552211 1.0
C      1  0.4726827354568  0.4088174959641  0.7866158881386 1.0
C      1  0.5273165651643  0.4088192032469  0.2133833018648 1.0
C      1  0.4726804518627  0.5911823983156  0.2133845749532 1.0
C      1  0.5273179432374  0.5911806132020  0.7866166366199 1.0
C      1  0.3023771133896  0.4266028573858  0.6254162159812 1.0
C      1  0.6976224785219  0.4266036390938  0.3745830163725 1.0
C      1  0.3023765784417  0.5733962379414  0.3745833635712 1.0
C      1  0.6976234831578  0.5733955721808  0.6254168567149 1.0
C      1  0.5278868803606  0.7960363335030  0.6906413037790 1.0
C      1  0.4721133179383  0.7960388185861  0.3093605240752 1.0
C      1  0.5278840491743  0.2039631123687  0.3093598360133 1.0
C      1  0.4721134220229  0.2039623076237  0.6906399292684 1.0
C      1  0.6214363634821  0.6328736828346  0.2913368315101 1.0
C      1  0.3785636745472  0.6328745381075  0.7086640944834 1.0
C      1  0.6214371079303  0.3671250798095  0.7086631761377 1.0
C      1  0.3785628112113  0.3671256276554  0.2913355577507 1.0
C      1  0.8373471978904  0.3970056869709  0.2374090247619 1.0
C      1  0.1626531932822  0.3970042543000  0.7625891107074 1.0
C      1  0.8373471582740  0.6029931049260  0.7625908426996 1.0
C      1  0.1626529308478  0.6029971026789  0.2374097926574 1.0
C      1  0.3179253437761  0.2934045368293  0.2494116832681 1.0
C      1  0.6820738534824  0.2934025602302  0.7505871054271 1.0
C      1  0.3179269009410  0.7065962412256  0.7505875290902 1.0
C      1  0.6820729924164  0.7065964239406  0.2494132378122 1.0
C      1  0.3628193994684  0.7884708507318  0.7101445041903 1.0
C      1  0.6371806163266  0.7884708884539  0.2898569950310 1.0
C      1  0.3628158549050  0.2115288635982  0.2898543208081 1.0
C      1  0.6371814559136  0.2115270994406  0.7101437146998 1.0
C      1  0.1439732755323  0.4371327992044  0.2794961707176 1.0
C      1  0.8560273685221  0.4371305266901  0.7205028980482 1.0
C      1  0.1439736912765  0.5628680513637  0.7205034641841 1.0
C      1  0.8560273519409  0.5628690793104  0.2794967532412 1.0
C      1  0.7051888564319  0.9518649271723  0.4923271367704 1.0
C      1  0.2948170425909  0.9518656016466  0.5076714413069 1.0
C      1  0.7051889403920  0.0481348252491  0.5076715030659 1.0
C      1  0.2948148742982  0.0481348367399  0.4923269796371 1.0
C      1  0.4162703078995  0.5956847846021  0.4670547318368 1.0
C      1  0.5837290157103  0.5956838329019  0.5329458995365 1.0
C      1  0.4162707547519  0.4043146242802  0.5329448621716 1.0
C      1  0.5837291774798  0.4043146132879  0.4670545911236 1.0
C      1  0.3115945516363  0.7905230205374  0.2473893892102 1.0
C      1  0.6884060151374  0.7905143268681  0.7526110499204 1.0
C      1  0.3115944324799  0.2094828921681  0.7526116692083 1.0
C      1  0.6884025815954  0.2094878191389  0.2473893959412 1.0
C      1  0.3641081088443  0.6918664491328  0.8437814158904 1.0
C      1  0.6358912410856  0.6918676917606  0.1562196069482 1.0
C      1  0.3641068983530  0.3081331678924  0.1562182809805 1.0
C      1  0.6358924357505  0.3081318695193  0.8437805484083 1.0
C      1  0.1247145889847  0.4334534339065  0.5936429924239 1.0
C      1  0.8752853126442  0.4334535593925  0.4063565971375 1.0
C      1  0.1247148774432  0.5665480490264  0.4063568923015 1.0
C      1  0.8752852556050  0.5665455276198  0.5936433794255 1.0
C      1  0.4512577762487  0.2686883867961  0.1706419862993 1.0
C      1  0.5487418577717  0.2686868301055  0.8293569592776 1.0
C      1  0.4512593615539  0.7313111941816  0.8293584829836 1.0
C      1  0.5487409940714  0.7313126716715  0.1706428909284 1.0
C      1  0.5517083007096  0.7918459667267  0.2495737704642 1.0
C      1  0.4482917337393  0.7918445570982  0.7504284667526 1.0
C      1  0.5517087540022  0.2081535113758  0.7504266569762 1.0
C      1  0.4482884776243  0.2081549722328  0.2495716102611 1.0
C      1  0.3726423926919  0.6946544275712  0.1557214918590 1.0
C      1  0.6273571169449  0.6946480589100  0.8442829577175 1.0
C      1  0.3726433037228  0.3053487932083  0.8442821668772 1.0
C      1  0.6273556828422  0.3053515609467  0.1557166129597 1.0
C      1  0.6495432908882  0.3983223920126  0.8696529629716 1.0
C      1  0.3504564440116  0.3983255532095  0.1303459250925 1.0
C      1  0.6495420726556  0.6016764129178  0.1303470259380 1.0
C      1  0.3504574954308  0.6016749036353  0.8696539135985 1.0
C      1  0.1694136666762  0.6109945196397  0.5555780103852 1.0
C      1  0.8305867652120  0.6109947260191  0.4444227978812 1.0
C      1  0.1694129120971  0.3890060848536  0.4444214616147 1.0
C      1  0.8305868611754  0.3890045295220  0.5555770417778 1.0
C      1  0.7851872517694  0.6569269226343  0.7963546248946 1.0
C      1  0.2148130582537  0.6569335592663  0.2036496543710 1.0
C      1  0.7851865966941  0.3430725864545  0.2036462048805 1.0
C      1  0.2148138421751  0.3430702160830  0.7963530747952 1.0
C      1  0.3073566199338  0.1266725004861  0.4372124833161 1.0
C      1  0.6926454200436  0.1266706069525  0.5627850367351 1.0
C      1  0.3073597535856  0.8733281982811  0.5627868383912 1.0
C      1  0.6926446637774  0.8733281985780  0.4372145973211 1.0
C      1  0.5392457029840  0.6766363900911  0.8315033095185 1.0
C      1  0.4607532255070  0.6766392942664  0.1684981136544 1.0
C      1  0.5392440726490  0.3233632147733  0.1684962951065 1.0
C      1  0.4607543768866  0.3233613326428  0.8315028905716 1.0
C      1  0.1744758570931  0.5120951225545  0.5487488620315 1.0
C      1  0.8255233271749  0.5120951281121  0.4512506453298 1.0
C      1  0.1744754387750  0.4879056359049  0.4512503507594 1.0
C      1  0.8255235191859  0.4879039844610  0.5487490194227 1.0
C      1  0.7846547310484  0.4634534801247  0.3731817303415 1.0
C      1  0.2153451644057  0.4634538413106  0.6268175784254 1.0
C      1  0.7846547193848  0.5365454679211  0.6268177431260 1.0
C      1  0.2153446832439  0.5365467534918  0.3731819425122 1.0
C      1  0.8565986407482  0.5322014948152  0.6975178275888 1.0
C      1  0.1434020227490  0.5322033279990  0.3024807258578 1.0
C      1  0.8565983062126  0.4677976168935  0.3024819010715 1.0
C      1  0.1434025940201  0.4677969163950  0.6975186003994 1.0
C      1  0.1665225042526  0.6304009030014  0.6592490089656 1.0
C      1  0.8334779524017  0.6304015365642  0.3407510183185 1.0
C      1  0.1665210199238  0.3696001268888  0.3407504009343 1.0
C      1  0.8334783874377  0.3695980598429  0.6592488877892 1.0
C      1  0.6331993613646  0.3599463869403  0.6208233079172 1.0
C      1  0.3668002007391  0.3599475640606  0.3791759664496 1.0
C      1  0.6331990683119  0.6400515039667  0.3791768144710 1.0
C      1  0.3668010440904  0.6400519451533  0.6208236535972 1.0
C      1  0.8730836380831  0.6450720379109  0.5334486296178 1.0
C      1  0.1269173058047  0.6450742641194  0.4665517780782 1.0
C      1  0.8730834960652  0.3549276572724  0.4665512961727 1.0
C      1  0.1269167626230  0.3549271506047  0.5334478321842 1.0
C      1  0.4054083517190  0.4820161332216  0.7647584640956 1.0
C      1  0.5945907463505  0.4820172149607  0.2352413694445 1.0
C      1  0.4054074359526  0.5179836316365  0.2352413617475 1.0
C      1  0.5945918270676  0.5179822838345  0.7647586453670 1.0
C      1  0.4466765418831  0.4968468420791  0.5956893813287 1.0
C      1  0.5533237042299  0.4968465135624  0.4043104386940 1.0
C      1  0.4466758896187  0.5031527795370  0.4043103844935 1.0
C      1  0.5533242696144  0.5031526317049  0.5956893468854 1.0
C      1  0.7606423069950  0.3144338063211  0.6824916008180 1.0
C      1  0.2393566183275  0.3144357027030  0.3175071553903 1.0
C      1  0.7606413734074  0.6855653533315  0.3175085884639 1.0
C      1  0.2393582690528  0.6855653586145  0.6824921782000 1.0
C      1  0.6523653292338  0.4761960602328  0.8379702514730 1.0
C      1  0.3476342536774  0.4761963218313  0.1620288134128 1.0
C      1  0.6523647051474  0.5238040379833  0.1620286526091 1.0
C      1  0.3476352734779  0.5238031682662  0.8379709600189 1.0
C      1  0.7048235777706  0.2931879413315  0.5989309592098 1.0
C      1  0.2951752024009  0.2931910440105  0.4010673641926 1.0
C      1  0.7048226953571  0.7068094394934  0.4010691151937 1.0
C      1  0.2951772418040  0.7068097407544  0.5989317330717 1.0
C      1  0.1967893156305  0.1897997161798  0.5520054222952 1.0
C      1  0.8032132697067  0.1897995823396  0.4479932787949 1.0
C      1  0.1967898462004  0.8102012806627  0.4479951295241 1.0
C      1  0.8032131188780  0.8102000213026  0.5520062322273 1.0
C      1  0.2564993189367  0.1280810209742  0.5203386328987 1.0
C      1  0.7435025268298  0.1280801870795  0.4796606217194 1.0
C      1  0.2565006723951  0.8719192831469  0.4796606286128 1.0
C      1  0.7435030103017  0.8719197948496  0.5203388203713 1.0
C      1  0.2917832782065  0.7121210310190  0.1917075557705 1.0
C      1  0.7082168464084  0.7121131493987  0.8082957226266 1.0
C      1  0.2917845220088  0.2878835347667  0.8082958189994 1.0
C      1  0.7082145735712  0.2878875994543  0.1917039104786 1.0
C      1  0.5171642144506  0.6547842372095  0.5807439234355 1.0
C      1  0.4828366288931  0.6547866333925  0.4192574280177 1.0
C      1  0.5171628661313  0.3452143352775  0.4192563022148 1.0
C      1  0.4828367443663  0.3452132928090  0.5807427509026 1.0
C      1  0.3203543768643  0.3837389997890  0.5458434003181 1.0
C      1  0.6796455093973  0.3837389981345  0.4541558381919 1.0
C      1  0.3203540530709  0.6162604043139  0.4541562366569 1.0
C      1  0.6796457713221  0.6162599435527  0.5458439100056 1.0
C      1  0.1843808917775  0.2758742223361  0.5422979346299 1.0
C      1  0.8156208548087  0.2758733100172  0.4576994226916 1.0
C      1  0.1843810951146  0.7241269086285  0.4577021592421 1.0
C      1  0.8156208914487  0.7241261265833  0.5423003058047 1.0
C      1  0.6144869934024  0.1895962847624  0.2833606324514 1.0
C      1  0.3855098218886  0.1895927293894  0.7166384345754 1.0
C      1  0.6144919254272  0.8104055572621  0.7166389249495 1.0
C      1  0.3855109270498  0.8104120638180  0.2833625643587 1.0
C      1  0.4449114138937  0.5729438847970  0.7501596865647 1.0
C      1  0.5550871633202  0.5729443544271  0.2498402494702 1.0
C      1  0.4449104150958  0.4270560200045  0.2498400186550 1.0
C      1  0.5550887721062  0.4270551408959  0.7501593549886 1.0
C      1  0.3797893022992  0.5355657410338  0.3317500776215 1.0
C      1  0.6202107156750  0.5355652023989  0.6682498281976 1.0
C      1  0.3797897889679  0.4644331778279  0.6682495653930 1.0
C      1  0.6202098244680  0.4644335206817  0.3317500592025 1.0
C      1  0.7449905890727  0.6629755949302  0.4840096136477 1.0
C      1  0.2550094396016  0.6629760067526  0.5159915011867 1.0
C      1  0.7449905451325  0.3370235412563  0.5159907033637 1.0
C      1  0.2550087136360  0.3370245386537  0.4840083205973 1.0
C      1  0.4313331128855  0.5954136481375  0.5652513032319 1.0
C      1  0.5686672229229  0.5954135746005  0.4347488522733 1.0
C      1  0.4313324296738  0.4045858891337  0.4347484735236 1.0
C      1  0.5686669396203  0.4045853631709  0.5652510450079 1.0
C      1  0.5232558949691  0.2692278369384  0.3767790605509 1.0
C      1  0.4767415305947  0.2692281546444  0.6232215333313 1.0
C      1  0.5232593772556  0.7307694278723  0.6232263783820 1.0
C      1  0.4767417731122  0.7307716572757  0.3767780430242 1.0
END
