TITL C-231038-7775-7 -2.105 3375.00 -365.62320426 0 0 43 (C1) n - 1
REM
REM Run started: at 2020.11.30 16:17:24 in /rds/project/t2_vol4/rds-t2-cs072/BORA/CARBON/AIRSS/Generating-Clusters/Str-Search/Higher-Symm/C10-100
REM VASP from code version vasp.5.4.4.18Apr17-6-g9f103f2a35 (build Oct 11 2019 16:45:47) gamma-only
REM
REM
REM
REM
REM ./C.cell (f39ce9773e2efe3fa5bbdf770a4156b8)
REM AIRSS Version 0.9.1 bugfix July 2018 build 013d7b7c2542+ Fri, 06 Jul 2018 19:26:36 +0100
REM compiler GCC version 4.8.5 20150623 (Red Hat 4.8.5-39)
REM options -cpp -mtune=generic -march=x86-64 -g -O0
REM seed -1509812342 1059538113 -1819684691 973250414 709932259 -636313742 -1130538532 1887068615 -1284595051 981390870 -182151952 -1260033259
REM
REM C.POTCAR (d86ddea03c3ceb6dc662c8ad6801f873)
REM 
CELL 1.54180   15.00000   15.00000   15.00000   90.00000   90.00000   90.00000
LATT -1
SFAC C  
C      1  0.4496977253132  0.5630229957906  0.3219818605229 1.0
C      1  0.5490553186765  0.5592985301526  0.3279320810369 1.0
C      1  0.6788821622761  0.5810457450762  0.4955905787604 1.0
C      1  0.6184601533366  0.5658125059915  0.6508325553763 1.0
C      1  0.4756732967142  0.6429087095041  0.6596697372921 1.0
C      1  0.3878780538811  0.6458547728155  0.6144947233030 1.0
C      1  0.3430155975274  0.6434905399696  0.4314840901138 1.0
C      1  0.3461023720558  0.4824251448389  0.6111417494616 1.0
C      1  0.3098902392268  0.4807814363862  0.4603782378263 1.0
C      1  0.4191817297728  0.4728989219430  0.3291001620050 1.0
C      1  0.5742122999756  0.4649169031683  0.3464749884335 1.0
C      1  0.6772681547917  0.4854508118717  0.4858506702402 1.0
C      1  0.6412029958479  0.4730027704376  0.6462220750963 1.0
C      1  0.4959571510832  0.4776612628100  0.6955792205280 1.0
C      1  0.6441983299617  0.6208698687754  0.5785353592464 1.0
C      1  0.5272681960245  0.5710037056966  0.6866955917260 1.0
C      1  0.3361887050364  0.5756624734530  0.5830020181523 1.0
C      1  0.3129262483098  0.5739960724500  0.4859745947728 1.0
C      1  0.4054485995002  0.6389871754199  0.3542995117693 1.0
C      1  0.5944314901474  0.6348523040283  0.3541226435671 1.0
C      1  0.6600165528915  0.6436824647092  0.4272370338755 1.0
C      1  0.5459225342634  0.3525839812532  0.6112315155133 1.0
C      1  0.4496207920210  0.3610796096901  0.5971006376753 1.0
C      1  0.3879364648853  0.3565960994476  0.5230048619581 1.0
C      1  0.3969836111861  0.3517993137681  0.4267001868890 1.0
C      1  0.4774349956656  0.3328948304944  0.3787530677189 1.0
C      1  0.6101721273603  0.3445021992887  0.4534011586263 1.0
C      1  0.6195703511044  0.3522750507013  0.5483000810715 1.0
C      1  0.4200651390943  0.4398731568613  0.6535940724537 1.0
C      1  0.3224037823615  0.4274655465835  0.5382922827087 1.0
C      1  0.3575621066306  0.4364067169470  0.3907809909513 1.0
C      1  0.4957664949236  0.4133160589194  0.3288720282089 1.0
C      1  0.6328266793087  0.4331435845880  0.4151996269637 1.0
C      1  0.6704088243774  0.4339010670374  0.5650721474118 1.0
C      1  0.5689857225801  0.4195262015972  0.6781594866634 1.0
C      1  0.5467481893244  0.7140549477270  0.3879542027481 1.0
C      1  0.6103565054600  0.7188502051771  0.4618386875783 1.0
C      1  0.5926533358900  0.7010376763435  0.5547831822808 1.0
C      1  0.5095754831205  0.7102070795837  0.5968087412035 1.0
C      1  0.4201863527027  0.7173228590667  0.5553310916333 1.0
C      1  0.3958525783603  0.7181719927323  0.4666641727893 1.0
C      1  0.4547237622304  0.7163476956215  0.3877807231393 1.0
C      1  0.5467936947989  0.2862565112828  0.4185123707075 1.0
END
