TITL C-23350-1416-1 -8.583 3375.00 -1489.26403723 0 0 181 (C1) n - 1
REM
REM Run started: at 2020.12.03 08:08:38 in /rds/project/t2_vol4/rds-t2-cs072/BORA/CARBON/AIRSS/Generating-Clusters/Str-Search/Higher-Symm/C100-200
REM VASP from code version vasp.5.4.4.18Apr17-6-g9f103f2a35 (build Oct 11 2019 16:45:47) gamma-only
REM
REM
REM
REM
REM ./C.cell (533062f00bc710175b3da973d35f2034)
REM AIRSS Version 0.9.1 bugfix July 2018 build 013d7b7c2542+ Fri, 06 Jul 2018 19:26:36 +0100
REM compiler GCC version 4.8.5 20150623 (Red Hat 4.8.5-39)
REM options -cpp -mtune=generic -march=x86-64 -g -O0
REM seed 18410864 -67478652 1750025014 -403258056 -30291497 301763288 -247382017 -901368943 1052805848 1701695406 540739363 -460841468
REM
REM C.POTCAR (d86ddea03c3ceb6dc662c8ad6801f873)
REM 
CELL 1.54180   15.00000   15.00000   15.00000   90.00000   90.00000   90.00000
LATT -1
SFAC C  
C      1  0.3082315385934  0.2136519748736  0.4435573395173 1.0
C      1  0.7619937491659  0.6733311437986  0.2926830812529 1.0
C      1  0.6402707784800  0.3172129570081  0.2332144161765 1.0
C      1  0.6861636834887  0.3385131080257  0.6016901944579 1.0
C      1  0.3291515591971  0.6354271999516  0.4652390414706 1.0
C      1  0.6713269196928  0.5740824791482  0.8561196700741 1.0
C      1  0.4056068342799  0.2541631734312  0.6139546118807 1.0
C      1  0.1398159171830  0.3711130192797  0.5519760076438 1.0
C      1  0.1515497307098  0.5202327845909  0.6199408113764 1.0
C      1  0.5032784017098  0.3797390621790  0.1880042935369 1.0
C      1  0.7150683802709  0.3982819882769  0.7924198833845 1.0
C      1  0.7738023285882  0.8084648212658  0.4803075141206 1.0
C      1  0.4735107485533  0.6869339987289  0.4352968967406 1.0
C      1  0.3537220578223  0.2442875526112  0.2891555073079 1.0
C      1  0.3467374581343  0.4371225474663  0.3648026700278 1.0
C      1  0.4346380908830  0.2704435775207  0.7074889019486 1.0
C      1  0.6264107294267  0.4954669917849  0.4374067159246 1.0
C      1  0.8146423048843  0.7657347339048  0.4075319599129 1.0
C      1  0.3896958548307  0.6126012009197  0.6682436063034 1.0
C      1  0.2860306544975  0.6138365822574  0.8269146875694 1.0
C      1  0.6480775890141  0.3249195738193  0.7984791760317 1.0
C      1  0.7363813328573  0.6642926933312  0.7215619515169 1.0
C      1  0.6884559872569  0.1702730372330  0.5613159008127 1.0
C      1  0.7650766216049  0.2325713226458  0.5856986513311 1.0
C      1  0.4323941703016  0.3764085087103  0.4732531042252 1.0
C      1  0.6725599755394  0.6430115906943  0.4541494586130 1.0
C      1  0.4707516517731  0.1694179434119  0.3922002722473 1.0
C      1  0.7515323206579  0.2455423931445  0.3343240196749 1.0
C      1  0.2283375560212  0.4004399935336  0.6913323503899 1.0
C      1  0.4960561811454  0.7344677832883  0.1629395213451 1.0
C      1  0.7940363155421  0.4588452663640  0.2950593196244 1.0
C      1  0.8005847480144  0.2724594253862  0.5079783697835 1.0
C      1  0.5403169709890  0.6431309558617  0.6112887968600 1.0
C      1  0.4388152038641  0.6245446573722  0.8714949565161 1.0
C      1  0.3343206760327  0.7464157485178  0.8003697756211 1.0
C      1  0.7274563303940  0.5970112539078  0.7911313400886 1.0
C      1  0.5679202264137  0.6867308710106  0.1510878249251 1.0
C      1  0.6274705018676  0.6639838233832  0.3754635465493 1.0
C      1  0.4935703673903  0.5836752447771  0.3140136886283 1.0
C      1  0.6628026772998  0.4112388956208  0.1966343397079 1.0
C      1  0.5257854200342  0.6534070703311  0.8909435479748 1.0
C      1  0.2627176577845  0.2457701236067  0.5252272794177 1.0
C      1  0.7756606629927  0.7662519092968  0.5660065463237 1.0
C      1  0.4954923162131  0.3866651788965  0.8197193637060 1.0
C      1  0.2875461488006  0.5181903882585  0.8120242606170 1.0
C      1  0.6524421316165  0.5453898848457  0.0868369032760 1.0
C      1  0.4486586420545  0.7477671834748  0.5122109745959 1.0
C      1  0.2843179709653  0.2504399315306  0.3564694362463 1.0
C      1  0.6101601680028  0.6192655135172  0.2165900021441 1.0
C      1  0.2734032079912  0.3719223326812  0.2086265126741 1.0
C      1  0.3497214507269  0.4232667337337  0.4565370979880 1.0
C      1  0.5529818103231  0.4887005619523  0.7038791086738 1.0
C      1  0.4014962635110  0.6335143152364  0.4150295538417 1.0
C      1  0.4333226221545  0.8633653267315  0.4100050305601 1.0
C      1  0.6457129718043  0.5233186491728  0.3250754898237 1.0
C      1  0.4768238815899  0.3673145203646  0.3819339441521 1.0
C      1  0.5097304122024  0.8933646215404  0.6545051365532 1.0
C      1  0.3268468703964  0.4549778096645  0.1862095961068 1.0
C      1  0.3937011957212  0.0924273387445  0.5124251316316 1.0
C      1  0.4142019493471  0.3957696253828  0.3177748222328 1.0
C      1  0.3464726864753  0.1528974929913  0.7440043215709 1.0
C      1  0.2726009234535  0.5348152263413  0.2516219500911 1.0
C      1  0.6162110460817  0.5681416238030  0.4927329381452 1.0
C      1  0.3767630540200  0.5840911262305  0.1057974881279 1.0
C      1  0.4971812848321  0.4945065069673  0.6060547701438 1.0
C      1  0.1143153604370  0.4865813422839  0.4276134759009 1.0
C      1  0.5054368506174  0.7272978535494  0.5933426224510 1.0
C      1  0.8437780915719  0.5300091142504  0.3190828471843 1.0
C      1  0.2905364148381  0.7145701423722  0.2856709475665 1.0
C      1  0.1667496183705  0.5741449256547  0.4314256200341 1.0
C      1  0.6435576110306  0.4955401863831  0.6980999154517 1.0
C      1  0.2892079323893  0.3296603789736  0.6893608196726 1.0
C      1  0.5123180102199  0.4788746578579  0.7980188744569 1.0
C      1  0.6628296149908  0.1793953372316  0.4647375748221 1.0
C      1  0.3629933379573  0.7746132097662  0.2691597693485 1.0
C      1  0.4105520494562  0.7354592026351  0.1922386288780 1.0
C      1  0.5561304995599  0.5678046512892  0.5649360477235 1.0
C      1  0.8187489684968  0.6179510797838  0.3518108919816 1.0
C      1  0.2776261855490  0.8260218013601  0.3921325987458 1.0
C      1  0.4722834026781  0.8461668505400  0.4892146845370 1.0
C      1  0.6000497869281  0.1888647969024  0.3054768364182 1.0
C      1  0.2451808119233  0.5483929229250  0.6536112752424 1.0
C      1  0.2880211398743  0.1667581541430  0.6845447993562 1.0
C      1  0.4582842838454  0.3161454265321  0.5487082846238 1.0
C      1  0.5211267239682  0.2215650431583  0.2565654947616 1.0
C      1  0.5460353252779  0.2996016067129  0.2081145157040 1.0
C      1  0.4982230284888  0.4165897742937  0.5391263727341 1.0
C      1  0.3665836706859  0.4738262054360  0.8400019283890 1.0
C      1  0.3186049645537  0.5277358858664  0.3430556584315 1.0
C      1  0.6180376308915  0.3295745787663  0.5444168387442 1.0
C      1  0.6328294334281  0.6254577575312  0.1206702570687 1.0
C      1  0.4433703347765  0.2067693668838  0.3076169798788 1.0
C      1  0.7409188993334  0.2873391572432  0.6735019626960 1.0
C      1  0.6395719659724  0.4647988669160  0.1193633865972 1.0
C      1  0.6968176536988  0.4475835295603  0.2861742473070 1.0
C      1  0.2552025190312  0.7607675787783  0.4619152186196 1.0
C      1  0.5338320617872  0.6579398512802  0.3718130095193 1.0
C      1  0.2725857543243  0.6782797976926  0.7610656785066 1.0
C      1  0.8694131518810  0.4514184652874  0.4974970855489 1.0
C      1  0.4414751299711  0.8351291050876  0.7019988416845 1.0
C      1  0.5006618038524  0.7536057382374  0.6901802893740 1.0
C      1  0.1968903447273  0.7187110573445  0.5317426306946 1.0
C      1  0.3979449159587  0.3852530951782  0.8139297004249 1.0
C      1  0.3481749991924  0.5058281222603  0.1068370664334 1.0
C      1  0.2895952309559  0.6357625703668  0.2269744186166 1.0
C      1  0.2686921145634  0.5593561828644  0.4374130895904 1.0
C      1  0.1847501404002  0.2939982607577  0.5091789852009 1.0
C      1  0.3690866719621  0.8364066508196  0.3503722503991 1.0
C      1  0.7990173387899  0.6321287168522  0.6574371198701 1.0
C      1  0.3566307154469  0.6554935031477  0.1639611297327 1.0
C      1  0.2088095045713  0.3160938551231  0.3454266346289 1.0
C      1  0.5680219289531  0.3709817020446  0.3889516832267 1.0
C      1  0.2472106406418  0.4866668387332  0.7340087006558 1.0
C      1  0.5403362640250  0.8762997691761  0.5636468172973 1.0
C      1  0.7761144490832  0.3722815137706  0.7264031294482 1.0
C      1  0.3570838360810  0.6691449780176  0.8641510569912 1.0
C      1  0.7465741036975  0.4103310373886  0.5785611027377 1.0
C      1  0.3905967492929  0.1553394736120  0.4469461617854 1.0
C      1  0.2869645612943  0.6429052575992  0.6690869226678 1.0
C      1  0.6489166799162  0.3644994656105  0.3301796192426 1.0
C      1  0.2405302460302  0.7486916652904  0.3606230707615 1.0
C      1  0.6990740262109  0.7922807073438  0.6167896653899 1.0
C      1  0.3008375547333  0.4848576835335  0.5029407060689 1.0
C      1  0.6803812987921  0.7439629296445  0.6978112911759 1.0
C      1  0.6206094224506  0.1593406265541  0.6260827796684 1.0
C      1  0.6380713282550  0.8503769304981  0.5551539217700 1.0
C      1  0.4108542040073  0.3903683776613  0.2194876746761 1.0
C      1  0.3454506935872  0.3111735242037  0.2207913412984 1.0
C      1  0.1873660513301  0.4835921359270  0.2790507586624 1.0
C      1  0.5884058475034  0.4050161832809  0.4810561081330 1.0
C      1  0.8439415809932  0.6247426850707  0.5068753832587 1.0
C      1  0.6793496256389  0.2298486841579  0.2732395442504 1.0
C      1  0.7149174065399  0.4909718089215  0.6256365441933 1.0
C      1  0.1386543940369  0.6414096974205  0.5080252113613 1.0
C      1  0.3356379263240  0.7177041120875  0.5202522013421 1.0
C      1  0.1117634417814  0.5830466929816  0.5717965606814 1.0
C      1  0.8149612436175  0.3787243395746  0.5109186072053 1.0
C      1  0.5219763645487  0.2316745472166  0.7547806107883 1.0
C      1  0.5628440461021  0.5372623358060  0.2567887451780 1.0
C      1  0.6768302277242  0.2535257682240  0.7405381821637 1.0
C      1  0.8622938279821  0.5313417558696  0.5402356466621 1.0
C      1  0.4185555451689  0.0722727554860  0.5898593320920 1.0
C      1  0.6001907811466  0.6178045155400  0.8935741325882 1.0
C      1  0.7972553645082  0.4420982504356  0.6629518249176 1.0
C      1  0.6927394916061  0.5001832159073  0.7878866096745 1.0
C      1  0.4076853612300  0.5743590534365  0.3437865653337 1.0
C      1  0.1579434899286  0.4219595660841  0.6265092586842 1.0
C      1  0.3167295742732  0.5069248606231  0.5928334428677 1.0
C      1  0.5539701254504  0.3146620423512  0.8097283841276 1.0
C      1  0.4708858197180  0.6605933873068  0.6783840915603 1.0
C      1  0.2069956042188  0.3848024150208  0.2728240883928 1.0
C      1  0.7050126563482  0.8347966025508  0.3149732602724 1.0
C      1  0.3019297781549  0.2488565516622  0.6219936645635 1.0
C      1  0.4021514851616  0.5303717620040  0.6250934704008 1.0
C      1  0.8146460869863  0.5343734555404  0.6322428336747 1.0
C      1  0.8895161077242  0.4520755195990  0.2864945224241 1.0
C      1  0.3677391780379  0.3297676126718  0.7471831861424 1.0
C      1  0.5930819429493  0.7857205357896  0.7267280528388 1.0
C      1  0.7679852961706  0.7635676223823  0.3206691002391 1.0
C      1  0.3764853975631  0.8134830882325  0.7588134052493 1.0
C      1  0.5376483640602  0.1842462980703  0.5875122707827 1.0
C      1  0.6880698575904  0.8568827677133  0.4746150541228 1.0
C      1  0.2683910871557  0.7047569852523  0.5924993750841 1.0
C      1  0.1563390046089  0.3242942085614  0.4222200820470 1.0
C      1  0.1374435543679  0.5226843554626  0.3461688011530 1.0
C      1  0.7274527996601  0.3240850677211  0.3756872298067 1.0
C      1  0.5801509235483  0.1666741226302  0.3982478187041 1.0
C      1  0.4529069636676  0.1576751070646  0.6277207285892 1.0
C      1  0.1138963761533  0.4031442735441  0.4636112778344 1.0
C      1  0.4416822228449  0.5305642769589  0.8436002374666 1.0
C      1  0.5425088339893  0.2672988771240  0.5488056964651 1.0
C      1  0.8544137575406  0.6767031387264  0.4218938922824 1.0
C      1  0.7662041847218  0.6197667122425  0.4434048254207 1.0
C      1  0.8173529841251  0.6831954829064  0.5823877143788 1.0
C      1  0.5850814934749  0.8763807961007  0.7132964103521 1.0
C      1  0.5656956523213  0.4552101662950  0.1912759340459 1.0
C      1  0.7410970679999  0.2349663994186  0.4323299626986 1.0
C      1  0.6708681872935  0.8693127387975  0.3829252946418 1.0
C      1  0.6720364308574  0.6296422968254  0.2932292243855 1.0
C      1  0.6099068354588  0.1972551348804  0.7136987745348 1.0
C      1  0.4407841883512  0.1713958216474  0.7320273331281 1.0
END
