TITL C-23239-2101-39 -7.39 3375.00 -1482.84447452 0 0 180 (Cs) n - 1
REM
REM Run started: at 2020.12.27 06:04:52 in /gpfs/home/chem/mssmkc/CARBON/AIRSS/Generating-Clusters/Str-Search/Higher-Symm/Only-C180
REM VASP from code version vasp.5.4.4.18Apr17-6-g9f103f2a35 (build Oct 11 2019 16:45:47) gamma-only
REM
REM
REM
REM
REM ./C.cell (73b75853f6e4503fb4b57bac71549d7d)
REM AIRSS Version 0.9.1 bugfix July 2018 build 013d7b7c2542+ Fri, 06 Jul 2018 19:26:36 +0100
REM compiler GCC version 6.3.0
REM options -cpp -iprefix /gpfs/warwick/csc/orac/software/Core/GCCcore/6.3.0/bin/../lib/gcc/x86_64-pc-linux-gnu/6.3.0/ -mtune=generic -march=x86-64 -g -O0
REM seed -1832483003 1789883332 -1409324388 447588927 245629900 84780220 -1176938120 -1205887888 -131063434 2043270761 -748771338 -281388070
REM
REM C.POTCAR (d86ddea03c3ceb6dc662c8ad6801f873)
REM 
CELL 1.54180   15.00000   15.00000   15.00000   90.00000   90.00000   90.00000
LATT -1
SFAC C  
C      1  0.1771327193838  0.6848065572364  0.4595553896095 1.0
C      1  0.1671855406780  0.3663991895610  0.3633818614273 1.0
C      1  0.1660787733196  0.4495614171855  0.6799339915738 1.0
C      1  0.8228632791966  0.6848093334206  0.4595531549136 1.0
C      1  0.8328136834671  0.3664034617642  0.3633809035470 1.0
C      1  0.8339227918139  0.4495656345931  0.6799292065841 1.0
C      1  0.8505766573737  0.3120938482023  0.5554412841380 1.0
C      1  0.8438493443272  0.6378876898112  0.6318352501683 1.0
C      1  0.8441669949347  0.5467483479445  0.3142169258449 1.0
C      1  0.1494249648457  0.3120907532471  0.5554440018367 1.0
C      1  0.1561483699458  0.6378862376166  0.6318395608509 1.0
C      1  0.1558324949458  0.5467436864539  0.3142190241867 1.0
C      1  0.7884490654345  0.6968013720099  0.6807387001798 1.0
C      1  0.7865220766831  0.5625647459208  0.2408366003159 1.0
C      1  0.7911154407948  0.2411437233125  0.5812821305321 1.0
C      1  0.2115507447586  0.6967975061269  0.6807426922566 1.0
C      1  0.2134763065235  0.5625600506190  0.2408389121696 1.0
C      1  0.2088879858426  0.2411414411118  0.5812837742133 1.0
C      1  0.6764768800738  0.6247720566032  0.6118863135229 1.0
C      1  0.6791928741155  0.5348085021535  0.3356847301644 1.0
C      1  0.6812874327438  0.3305711945458  0.5507456131150 1.0
C      1  0.3235229927430  0.6247694777495  0.6118875365905 1.0
C      1  0.3208070708621  0.5348054568784  0.3356869541429 1.0
C      1  0.3187151807892  0.3305694680341  0.5507459966588 1.0
C      1  0.4511235223111  0.8318793959581  0.4391862105279 1.0
C      1  0.4463123098682  0.2942347843879  0.2853198203173 1.0
C      1  0.4515419302378  0.3937073206704  0.8073442748205 1.0
C      1  0.5488704942113  0.8318790581108  0.4391867796628 1.0
C      1  0.5536898332370  0.2942364780845  0.2853192024232 1.0
C      1  0.5484609850494  0.3937079518800  0.8073439053843 1.0
C      1  0.6726575371337  0.5057983167068  0.8147192470672 1.0
C      1  0.6701940781629  0.7758292558812  0.3350683469771 1.0
C      1  0.6796301420990  0.2016051953632  0.3474140120157 1.0
C      1  0.3273439543547  0.5057965169325  0.8147202562850 1.0
C      1  0.3298013041646  0.7758260980209  0.3350697939851 1.0
C      1  0.3203723834848  0.2016028408114  0.3474138885448 1.0
C      1  0.5843894417717  0.5482385303860  0.3201963060431 1.0
C      1  0.5832326059255  0.3290043246637  0.5540954884610 1.0
C      1  0.5830609156913  0.6460977370929  0.6256288568033 1.0
C      1  0.4156103142993  0.5482370810040  0.3201968149540 1.0
C      1  0.4167697258174  0.3290037892578  0.5540969877782 1.0
C      1  0.4169386901124  0.6460966305399  0.6256294598120 1.0
C      1  0.4068547087384  0.7363989372791  0.6760086159462 1.0
C      1  0.4079243721583  0.5430441057616  0.2135396002140 1.0
C      1  0.4098362674168  0.2341578124139  0.6119181890678 1.0
C      1  0.5931427550656  0.7364002641855  0.6760087297495 1.0
C      1  0.5920747011704  0.5430454271070  0.2135390430609 1.0
C      1  0.5901659254431  0.2341591121017  0.6119170401192 1.0
C      1  0.9472842626394  0.4625278652322  0.5412438692327 1.0
C      1  0.9181511240139  0.5531654313273  0.5089870093426 1.0
C      1  0.9222934281184  0.4899323075669  0.4478256577280 1.0
C      1  0.0527183017493  0.4625242865887  0.5412420976174 1.0
C      1  0.0818450317957  0.5531558030246  0.5089880706428 1.0
C      1  0.0777068369225  0.4899300637901  0.4478294246712 1.0
C      1  0.5971185152495  0.7159029363499  0.2178376947833 1.0
C      1  0.5988776494316  0.1443696699235  0.4661372152927 1.0
C      1  0.5972697965619  0.6403357738252  0.8222091411405 1.0
C      1  0.4028776947660  0.7159010428963  0.2178381825632 1.0
C      1  0.4011235010876  0.1443695286224  0.4661380060068 1.0
C      1  0.4027306801800  0.6403352561284  0.8222098471383 1.0
C      1  0.8478002432093  0.6177923370449  0.5313769979640 1.0
C      1  0.8570928287046  0.4657267732163  0.3797361487530 1.0
C      1  0.8696487022449  0.4133149394441  0.5874910942400 1.0
C      1  0.1521991575469  0.6177897157806  0.5313817737165 1.0
C      1  0.1429116783709  0.4657226426202  0.3797370566583 1.0
C      1  0.1303511131070  0.4133129774576  0.5874929498120 1.0
C      1  0.1823766436328  0.6374844751554  0.3614559872844 1.0
C      1  0.1758947401979  0.3054422450499  0.4526886161274 1.0
C      1  0.1788009409928  0.5544473033566  0.6880481503134 1.0
C      1  0.8176219446509  0.6374885973413  0.3614542035111 1.0
C      1  0.8241066714675  0.3054455254183  0.4526864763190 1.0
C      1  0.8212007259861  0.5544503546288  0.6880463601677 1.0
C      1  0.6023933653829  0.8154334737245  0.5296017390644 1.0
C      1  0.6012974011408  0.3758264781455  0.2254999036918 1.0
C      1  0.6007475258359  0.3249068069891  0.7495885738857 1.0
C      1  0.3976021437391  0.8154315651192  0.5296011359638 1.0
C      1  0.3987031004555  0.3758251596814  0.2255016764912 1.0
C      1  0.3992555901800  0.3249059108605  0.7495888571283 1.0
C      1  0.6897844057532  0.1631007640444  0.4392422342366 1.0
C      1  0.6859543758495  0.6054544271878  0.8135158927394 1.0
C      1  0.6852498491688  0.7232729429788  0.2523636023731 1.0
C      1  0.3102168157898  0.1630992807362  0.4392435467940 1.0
C      1  0.3140469597626  0.6054515957702  0.8135163340109 1.0
C      1  0.3147466678508  0.7232691537771  0.2523646264920 1.0
C      1  0.6880011599915  0.4068195782528  0.2435644117859 1.0
C      1  0.6877810833732  0.3241902620144  0.7090381814695 1.0
C      1  0.6918761236573  0.7780707970792  0.5460816630460 1.0
C      1  0.3119981984195  0.4068177287248  0.2435650746979 1.0
C      1  0.3122211099007  0.3241881923821  0.7090398016886 1.0
C      1  0.3081199201555  0.7780680938216  0.5460822767254 1.0
C      1  0.5451941563503  0.5633745676307  0.8600404966313 1.0
C      1  0.5451873175685  0.7883736927621  0.2652048539684 1.0
C      1  0.5457311669765  0.1461910047449  0.3815062889169 1.0
C      1  0.4548072803227  0.5633745612235  0.8600409583990 1.0
C      1  0.4548074495555  0.7883725098840  0.2652063637919 1.0
C      1  0.4542705080398  0.1461910003519  0.3815064400134 1.0
C      1  0.6959914402934  0.2632856935568  0.6266775845649 1.0
C      1  0.7003078978456  0.7271859183719  0.6334224460225 1.0
C      1  0.6970381221230  0.5096164479657  0.2363165325907 1.0
C      1  0.3040117059698  0.2632838681392  0.6266774123773 1.0
C      1  0.2996911576719  0.7271834765817  0.6334234571223 1.0
C      1  0.3029610106128  0.5096140507567  0.2363205206013 1.0
C      1  0.5910285961709  0.8225157103091  0.3463029522589 1.0
C      1  0.5949085756972  0.1935829745399  0.3101323232322 1.0
C      1  0.5904909089218  0.4766991162904  0.8459906922821 1.0
C      1  0.4089660764664  0.8225131089615  0.3463039415580 1.0
C      1  0.4050943701657  0.1935816857025  0.3101318025383 1.0
C      1  0.4095109052354  0.4766982187584  0.8459913086093 1.0
C      1  0.5457974528280  0.2602676846065  0.6994123323435 1.0
C      1  0.5469029168508  0.8018179280533  0.6107592484763 1.0
C      1  0.5458722040948  0.4526922746976  0.1925540688550 1.0
C      1  0.4542057234016  0.2602663433929  0.6994132467539 1.0
C      1  0.4530937963987  0.8018165350798  0.6107590496956 1.0
C      1  0.4541274482766  0.4526917219159  0.1925551942345 1.0
C      1  0.5959344370960  0.5896265641538  0.4763376788019 1.0
C      1  0.6007159816686  0.4163455182375  0.4088812120940 1.0
C      1  0.6352701099218  0.4784638042186  0.5739498221725 1.0
C      1  0.4040644834714  0.5896240224508  0.4763380037941 1.0
C      1  0.3992832617585  0.4163455817336  0.4088798345830 1.0
C      1  0.3647308706275  0.4784628860943  0.5739509543768 1.0
C      1  0.5480862321895  0.7101956657517  0.7692351634125 1.0
C      1  0.5477732342348  0.6346803333302  0.1872411896238 1.0
C      1  0.5480548653953  0.1647941556214  0.5483917058947 1.0
C      1  0.4519128143168  0.7101954202869  0.7692348781515 1.0
C      1  0.4522250232901  0.6346791605924  0.1872410566694 1.0
C      1  0.4519474533240  0.1647935640062  0.5483922707378 1.0
C      1  0.2883416501294  0.4165694604245  0.5842778275988 1.0
C      1  0.3268811989483  0.5630234503835  0.5318940574968 1.0
C      1  0.3035472003201  0.4515769094927  0.3906946262331 1.0
C      1  0.7116601388936  0.4165713657465  0.5842767484353 1.0
C      1  0.6731185900171  0.5630261101045  0.5318917480338 1.0
C      1  0.6964521626111  0.4515807392404  0.3906951116180 1.0
C      1  0.5511957467070  0.4197928850843  0.5939631741786 1.0
C      1  0.5480167610740  0.6539941735471  0.5304060941046 1.0
C      1  0.5433245341036  0.4710262702586  0.3601836430812 1.0
C      1  0.4488060131941  0.4197926461051  0.5939637145341 1.0
C      1  0.4519811825829  0.6539928900319  0.5304059992764 1.0
C      1  0.4566766973818  0.4710262107800  0.3601834609059 1.0
C      1  0.7363374618077  0.3737795074256  0.3273942653222 1.0
C      1  0.7374490932104  0.4102981769118  0.6859706209872 1.0
C      1  0.7460921294215  0.7366496197021  0.4749429505492 1.0
C      1  0.2636640742355  0.3737813197101  0.3273991991776 1.0
C      1  0.2625529878199  0.4102951616164  0.6859720060391 1.0
C      1  0.2539031209974  0.7366491125925  0.4749444548360 1.0
C      1  0.2235255337001  0.4750034758904  0.4444827119779 1.0
C      1  0.2111384042982  0.4526528560782  0.5393077741187 1.0
C      1  0.2299187405576  0.5470031885491  0.5116530844381 1.0
C      1  0.7764778398262  0.4750055596886  0.4444790641701 1.0
C      1  0.7888620637578  0.4526559787432  0.5393055743622 1.0
C      1  0.7700810519113  0.5470066919455  0.5116503265210 1.0
C      1  0.3194635112064  0.4842972211607  0.7190483289680 1.0
C      1  0.3176889884674  0.7081668383409  0.4050578238773 1.0
C      1  0.3117013303726  0.2979262772971  0.3718435260142 1.0
C      1  0.6805377135862  0.4842996161189  0.7190471357393 1.0
C      1  0.6823060341873  0.7081702497298  0.4050555246185 1.0
C      1  0.6883010198606  0.2979274481533  0.3718428805783 1.0
C      1  0.4066532399638  0.3236036171277  0.3744098044027 1.0
C      1  0.4046063461515  0.4832429149947  0.6635663714420 1.0
C      1  0.4056364453450  0.6811704617347  0.4412176460106 1.0
C      1  0.5933487651016  0.3236040227467  0.3744093826513 1.0
C      1  0.5953952160929  0.4832439220558  0.6635653808799 1.0
C      1  0.5943606747940  0.6811725748928  0.4412175363010 1.0
C      1  0.7686459730821  0.2119594390985  0.4846355336356 1.0
C      1  0.7642436786438  0.6252760641511  0.7511772940602 1.0
C      1  0.7612142214592  0.6576567059780  0.2709783764917 1.0
C      1  0.2313563250788  0.2119598273378  0.4846358407978 1.0
C      1  0.2357586556244  0.6252722725487  0.7511786557561 1.0
C      1  0.2387817679484  0.6576536963344  0.2709780299186 1.0
C      1  0.2794479992057  0.5679664435053  0.6813420891999 1.0
C      1  0.2802342674170  0.6246036285612  0.3577516409852 1.0
C      1  0.2758125051626  0.2996875385651  0.4651350803302 1.0
C      1  0.7205515413758  0.5679690316682  0.6813413649829 1.0
C      1  0.7197634218711  0.6246069185441  0.3577507950563 1.0
C      1  0.7241906594460  0.2996883311489  0.4651345481594 1.0
C      1  0.4509073370016  0.6106403586652  0.3893667312507 1.0
C      1  0.4504767860119  0.3415267755412  0.4607564147139 1.0
C      1  0.4564015170448  0.5655498888878  0.6666593077230 1.0
C      1  0.5490932285999  0.6106410545890  0.3893672122989 1.0
C      1  0.5495232740003  0.3415273797984  0.4607560018504 1.0
C      1  0.5435996507036  0.5655503701344  0.6666590752871 1.0
END
