TITL C-234810-3968-8 -4.944 3375.00 -806.86928885 0 0 100 (C1) n - 1
REM
REM Run started: at 2020.11.21 12:51:02 in /rds/project/t2_vol4/rds-t2-cs072/BORA/CARBON/AIRSS/Generating-Clusters/Str-Search/Higher-Symm
REM VASP from code version vasp.5.4.4.18Apr17-6-g9f103f2a35 (build Oct 11 2019 16:45:47) gamma-only
REM
REM
REM
REM
REM ./C.cell (e5ae0387ce4d49c7c0135a1433873289)
REM AIRSS Version 0.9.1 bugfix July 2018 build 013d7b7c2542+ Fri, 06 Jul 2018 19:26:36 +0100
REM compiler GCC version 4.8.5 20150623 (Red Hat 4.8.5-39)
REM options -cpp -mtune=generic -march=x86-64 -g -O0
REM seed 1628262443 -798437806 14013385 1535510135 1415606484 635766589 -454193357 -1394703463 -390121237 1942639758 1054326347 -307628230
REM
REM C.POTCAR (d86ddea03c3ceb6dc662c8ad6801f873)
REM 
CELL 1.54180   15.00000   15.00000   15.00000   90.00000   90.00000   90.00000
LATT -1
SFAC C  
C      1  0.7483115887272  0.5148101170034  0.6531194853815 1.0
C      1  0.8319957417937  0.6395990982805  0.3991707723159 1.0
C      1  0.7895277091956  0.4219236937899  0.5200890016944 1.0
C      1  0.5495554789894  0.5612263443771  0.8257529723270 1.0
C      1  0.5843295068220  0.7379917677976  0.2969010241463 1.0
C      1  0.5710589755459  0.2352044721176  0.4223901593643 1.0
C      1  0.7240630269191  0.4611163240292  0.3196472510209 1.0
C      1  0.7453737034981  0.3074177639518  0.6724815474741 1.0
C      1  0.7025916439219  0.6928067815001  0.5909589893369 1.0
C      1  0.7594541670425  0.7010960521754  0.5305058320270 1.0
C      1  0.7825583214667  0.4158738541344  0.3587023794156 1.0
C      1  0.7825720981858  0.3706696502927  0.7131241701452 1.0
C      1  0.3924169708828  0.6284834819650  0.8131951983951 1.0
C      1  0.4494622257407  0.6949512670844  0.2029248245929 1.0
C      1  0.4149680104679  0.2262190550982  0.4442848740652 1.0
C      1  0.7685905805892  0.4618689904481  0.7236439207770 1.0
C      1  0.7545931561225  0.6703753657342  0.4428751521750 1.0
C      1  0.7747393707531  0.3757479720664  0.4437802242596 1.0
C      1  0.5230062024072  0.2553154616541  0.3276568658733 1.0
C      1  0.5344307734630  0.4709458354941  0.8497784565474 1.0
C      1  0.5552911121183  0.7758068945882  0.3845691104034 1.0
C      1  0.6468165435101  0.6676963326125  0.3148325959873 1.0
C      1  0.6585147256051  0.2276321267935  0.4786078132812 1.0
C      1  0.6203684357486  0.5773379237685  0.7615011971238 1.0
C      1  0.6248304575330  0.2277104079535  0.5746501226849 1.0
C      1  0.5959308701416  0.6562325479499  0.7110724471604 1.0
C      1  0.6402795736271  0.5918554802994  0.2583229919930 1.0
C      1  0.3943430556013  0.6574905113672  0.2641176066614 1.0
C      1  0.4280053483041  0.2608036555414  0.3509947240774 1.0
C      1  0.3482920488901  0.5499459270063  0.8430963284174 1.0
C      1  0.5187055253331  0.7999589816739  0.5401859627286 1.0
C      1  0.5489913137595  0.3854917128396  0.2195016907053 1.0
C      1  0.5422803222174  0.3163560087363  0.7751331727786 1.0
C      1  0.3502041098363  0.4572632043966  0.7120514993446 1.0
C      1  0.3274342256637  0.6498718684752  0.4050612546045 1.0
C      1  0.2734797556629  0.3554061796777  0.3192540699583 1.0
C      1  0.5276416556127  0.3885316447527  0.8360581729027 1.0
C      1  0.5274177824499  0.8303491828507  0.4519334232749 1.0
C      1  0.5494154033209  0.3019670217288  0.2532225853009 1.0
C      1  0.3497988982127  0.6473844522910  0.6486979818722 1.0
C      1  0.3258873030468  0.5948170507184  0.2468492835980 1.0
C      1  0.2990249921424  0.3346958012395  0.4634704842618 1.0
C      1  0.6725187781644  0.5038931526258  0.7186224579532 1.0
C      1  0.6665519070454  0.6639780060086  0.4083398145696 1.0
C      1  0.7038587747942  0.3082328293308  0.4447852687576 1.0
C      1  0.6479633847828  0.5008469767616  0.2905769966942 1.0
C      1  0.6599261107824  0.2752821199810  0.6479227627399 1.0
C      1  0.6185751216075  0.6797435358750  0.6204460133116 1.0
C      1  0.3875524770421  0.5007405740162  0.5825910760500 1.0
C      1  0.3132213769384  0.6009556348783  0.4825771211027 1.0
C      1  0.3661793928372  0.4094093835700  0.4432375278787 1.0
C      1  0.5229812185897  0.4574302440867  0.6720011031635 1.0
C      1  0.4645464783187  0.6471233812580  0.5224589552689 1.0
C      1  0.4983012962142  0.4464662662040  0.3622613009731 1.0
C      1  0.4822732078425  0.6495624442532  0.4280694706251 1.0
C      1  0.4145893871666  0.3997725176380  0.3589883139706 1.0
C      1  0.4376338215832  0.4707872710870  0.6639748725281 1.0
C      1  0.4858029861520  0.6385088030148  0.8170890589872 1.0
C      1  0.5382746969500  0.7003336372957  0.2164097756799 1.0
C      1  0.4992288117760  0.2079735504723  0.4847931812228 1.0
C      1  0.2573502441307  0.4558024188397  0.3221461870344 1.0
C      1  0.3013425871608  0.4728887996635  0.6350172637278 1.0
C      1  0.2210080557086  0.5694159567524  0.4584067658550 1.0
C      1  0.3310315903925  0.4809742981045  0.8005024797140 1.0
C      1  0.4116969458033  0.6611690462225  0.3625116617691 1.0
C      1  0.3663803857538  0.3300762873605  0.3120959976347 1.0
C      1  0.2155350660299  0.4958219938366  0.6066325173546 1.0
C      1  0.2363062343703  0.6681685891661  0.4218277112423 1.0
C      1  0.2224142918616  0.3250868983595  0.3988345116992 1.0
C      1  0.5462779025498  0.5350489404024  0.1462516645148 1.0
C      1  0.4896834273718  0.2071948948006  0.6594048397503 1.0
C      1  0.4925310748172  0.7755521770569  0.7027685014813 1.0
C      1  0.4983721107995  0.8169655317539  0.6298328120199 1.0
C      1  0.5483619907004  0.4509001972216  0.1487454412665 1.0
C      1  0.4950558773105  0.2440479852502  0.7339463683378 1.0
C      1  0.5643932341236  0.4453726355239  0.2974878850798 1.0
C      1  0.6070540003438  0.3358500700624  0.7076589716421 1.0
C      1  0.5505120328052  0.6953696518279  0.5451742499407 1.0
C      1  0.3422945429371  0.2608147167733  0.4847997298327 1.0
C      1  0.3551774169082  0.6592965958665  0.7298410307148 1.0
C      1  0.2970262786360  0.5203672465669  0.2682178882875 1.0
C      1  0.5293410050195  0.2062833907545  0.5733950101190 1.0
C      1  0.5227712454177  0.7006729196179  0.7513134124467 1.0
C      1  0.5784697578676  0.6127904792172  0.1896024216941 1.0
C      1  0.6157392926295  0.3277316020361  0.4374257491843 1.0
C      1  0.6056303375097  0.4332141823828  0.6906170014819 1.0
C      1  0.5786296773638  0.6846593480344  0.4462530496942 1.0
C      1  0.9026418829885  0.5983089420478  0.3908093668109 1.0
C      1  0.9743393262028  0.5448713781562  0.3921963649043 1.0
C      1  0.1421865269633  0.3588503453435  0.4171377060352 1.0
C      1  0.7431684950070  0.4893545751544  0.5606014767322 1.0
C      1  0.4174186725859  0.4623820106154  0.4980695324309 1.0
C      1  0.1163801606403  0.4445983038459  0.4057855559780 1.0
C      1  0.5012906619077  0.4825791901165  0.4532607018518 1.0
C      1  0.3779226813947  0.6078241076042  0.5634468762835 1.0
C      1  0.5829741832984  0.4989162169394  0.4926285886277 1.0
C      1  0.2007859687723  0.4948395997224  0.3903491015940 1.0
C      1  0.1833772779338  0.5408652108219  0.5450721467920 1.0
C      1  0.0355238293416  0.4910842152395  0.4039487631194 1.0
C      1  0.6600988871822  0.5093642563262  0.5192132033886 1.0
END
