TITL C-23647-8164-9 -6.97 3375.00 -1226.97155127 0 0 146 (C1) n - 1
REM
REM Run started: at 2020.12.21 07:12:27 in /rds/project/t2_vol4/rds-t2-cs072/BORA/CARBON/AIRSS/Generating-Clusters/Str-Search/Higher-Symm/C100-200
REM VASP from code version vasp.5.4.4.18Apr17-6-g9f103f2a35 (build Oct 11 2019 16:45:47) gamma-only
REM
REM
REM
REM
REM ./C.cell (533062f00bc710175b3da973d35f2034)
REM AIRSS Version 0.9.1 bugfix July 2018 build 013d7b7c2542+ Fri, 06 Jul 2018 19:26:36 +0100
REM compiler GCC version 4.8.5 20150623 (Red Hat 4.8.5-39)
REM options -cpp -mtune=generic -march=x86-64 -g -O0
REM seed 885028656 1355693232 -793236842 1229852649 867320588 -2096005062 -1069195174 -588407131 1652494874 1577971397 545294061 591535205
REM
REM C.POTCAR (d86ddea03c3ceb6dc662c8ad6801f873)
REM 
CELL 1.54180   15.00000   15.00000   15.00000   90.00000   90.00000   90.00000
LATT -1
SFAC C  
C      1  0.7940939531645  0.6666279658508  0.4113314548306 1.0
C      1  0.8068637694431  0.7015045109872  0.6046175958121 1.0
C      1  0.7049018023736  0.6640443617454  0.7367267614717 1.0
C      1  0.5309039635802  0.6985967004741  0.8220641081773 1.0
C      1  0.3695912608314  0.6648685759499  0.7805086545054 1.0
C      1  0.2223501794276  0.7014629867173  0.6570680997439 1.0
C      1  0.2187455821105  0.6411215044698  0.5012704650695 1.0
C      1  0.2356167712576  0.6911107657920  0.3110371764571 1.0
C      1  0.3680774594943  0.6545254173542  0.2164109594320 1.0
C      1  0.5067277493537  0.7196758002750  0.2055855296238 1.0
C      1  0.7090308780272  0.7030665899319  0.2679258352323 1.0
C      1  0.6643073006167  0.4967184843402  0.7746172027253 1.0
C      1  0.4842517676670  0.4857619921254  0.8245659245262 1.0
C      1  0.3084909015469  0.4966523319939  0.7656784495975 1.0
C      1  0.1950313207950  0.4871642552349  0.6323807890786 1.0
C      1  0.1806305822921  0.4841437700795  0.4393062530230 1.0
C      1  0.2550090389841  0.4762576523861  0.2830392772823 1.0
C      1  0.4241123611677  0.4942452942312  0.1864117684709 1.0
C      1  0.6017020244102  0.4852527023603  0.1903822776492 1.0
C      1  0.7478196389503  0.4831700388129  0.2893582065199 1.0
C      1  0.8206960197812  0.4976910392517  0.4586686954392 1.0
C      1  0.7901699843421  0.4873009990196  0.6345828546120 1.0
C      1  0.7373076846948  0.3035790357151  0.6052654858740 1.0
C      1  0.6389434702629  0.3036826804636  0.7349439399881 1.0
C      1  0.4888587728004  0.3029894502983  0.7829014468826 1.0
C      1  0.3330270524505  0.2982701980180  0.7287712268213 1.0
C      1  0.2193337107366  0.3099830373191  0.6237714596818 1.0
C      1  0.2321931556002  0.2927183262328  0.4709253905011 1.0
C      1  0.3169674732338  0.2960703991352  0.3315078994990 1.0
C      1  0.4306308093398  0.3129235046760  0.2243840289970 1.0
C      1  0.5820982779517  0.2943473643226  0.2298135294147 1.0
C      1  0.7216581132531  0.2984543952480  0.3267805333805 1.0
C      1  0.7969059460894  0.3113736634361  0.4622622997654 1.0
C      1  0.7932512066135  0.3555598547623  0.5431381932507 1.0
C      1  0.7044716610020  0.3466809899828  0.6820394122996 1.0
C      1  0.5705919654850  0.3529563591312  0.7787156645665 1.0
C      1  0.4031214071209  0.3443681140919  0.7712333546944 1.0
C      1  0.2601208171679  0.3534434121927  0.6961399033576 1.0
C      1  0.2013939201351  0.3495889647066  0.5404821716616 1.0
C      1  0.2497933790985  0.3332795739331  0.3862075752723 1.0
C      1  0.3670705211272  0.3613943562074  0.2764334167795 1.0
C      1  0.5123504925115  0.3514964485171  0.1987275800050 1.0
C      1  0.6631034309188  0.3368468760899  0.2608268997311 1.0
C      1  0.7813660472595  0.3548889044976  0.3795422392460 1.0
C      1  0.8087716197702  0.4479525054535  0.5453734150073 1.0
C      1  0.7102859567025  0.4498031941065  0.6891999254660 1.0
C      1  0.5703668070074  0.4506457114762  0.7809945403345 1.0
C      1  0.4015958604314  0.4484910139654  0.7726329383149 1.0
C      1  0.2500958085491  0.4468331705117  0.7060230939711 1.0
C      1  0.2073907424473  0.4475806334955  0.5337357927363 1.0
C      1  0.2215107269730  0.4285201683350  0.3669465080994 1.0
C      1  0.3485509160739  0.4538684639022  0.2503486662466 1.0
C      1  0.5129235155338  0.4453488929498  0.1838576615758 1.0
C      1  0.6727275967730  0.4343477106237  0.2430289825094 1.0
C      1  0.7906978624564  0.4490156605805  0.3730728251623 1.0
C      1  0.5346841013182  0.2131107000770  0.2645376160988 1.0
C      1  0.7046373822179  0.2193200056836  0.3836796635455 1.0
C      1  0.7444212981564  0.2332563795771  0.4685447072766 1.0
C      1  0.7017720464275  0.2251802831959  0.5527455424084 1.0
C      1  0.6034770165742  0.2170140677895  0.7210055115477 1.0
C      1  0.5131077768552  0.2156914735497  0.7543608351935 1.0
C      1  0.3319781468730  0.2146423199313  0.6745304155763 1.0
C      1  0.2652667495040  0.2279754514080  0.6086648619383 1.0
C      1  0.2774876353771  0.2161858443197  0.5145519219734 1.0
C      1  0.3769965977348  0.2191068822994  0.3352266469449 1.0
C      1  0.4404871483905  0.2303115903427  0.2629171192584 1.0
C      1  0.3521964382902  0.1610597086839  0.4919000610940 1.0
C      1  0.4044579586824  0.1662265062578  0.4110153294576 1.0
C      1  0.4967647630754  0.1410956143848  0.4126681008342 1.0
C      1  0.5550380757633  0.1608117910501  0.3360245736876 1.0
C      1  0.6315789156751  0.1642712202539  0.3905881072928 1.0
C      1  0.5806163638434  0.1466545218150  0.4714020128662 1.0
C      1  0.6166256915257  0.1730076979436  0.5583060749841 1.0
C      1  0.5768704251623  0.1649667700411  0.6438860993137 1.0
C      1  0.4853640355310  0.1566474299290  0.6844951837803 1.0
C      1  0.4002035150897  0.1516233042757  0.6470974579057 1.0
C      1  0.3956106162456  0.1147740281837  0.5603670450035 1.0
C      1  0.6438641258660  0.4780886901854  0.4348930861277 1.0
C      1  0.6468510384115  0.4816489054665  0.5309824070513 1.0
C      1  0.6299240616687  0.4786130905106  0.6290788787964 1.0
C      1  0.5417696708641  0.4795382434655  0.6829249906485 1.0
C      1  0.4369102923202  0.4766035892340  0.6760395743818 1.0
C      1  0.3694948985598  0.4838667880367  0.5991840594390 1.0
C      1  0.3098857439508  0.4762132657900  0.5166727841361 1.0
C      1  0.3499228267918  0.4800909815239  0.4190950057779 1.0
C      1  0.4019463952314  0.4380744103988  0.3418178505900 1.0
C      1  0.4903607450895  0.4792918903400  0.3370162173465 1.0
C      1  0.5839814408215  0.4735929720385  0.3586215408088 1.0
C      1  0.1780477152961  0.6510201663800  0.5908103805649 1.0
C      1  0.1859472207238  0.6117620747196  0.3402985473707 1.0
C      1  0.2796639811593  0.6414312220871  0.2418116956392 1.0
C      1  0.5202962125372  0.6293417117261  0.1733928896142 1.0
C      1  0.6850171595297  0.6215350564015  0.2178677652846 1.0
C      1  0.7734808815726  0.6529652019824  0.3213185314569 1.0
C      1  0.8432111123635  0.6216237622852  0.5616083135892 1.0
C      1  0.7817809153670  0.6527455022133  0.6840730574332 1.0
C      1  0.5800365589403  0.6184585235639  0.8379425337801 1.0
C      1  0.4452158667678  0.6537996081027  0.8339444670401 1.0
C      1  0.2224848254150  0.6240078115981  0.7189747185780 1.0
C      1  0.3006594590800  0.7520769941262  0.6535297051667 1.0
C      1  0.2570698128412  0.7292333364131  0.4675246316864 1.0
C      1  0.2734293125355  0.7451433899871  0.3763891931124 1.0
C      1  0.4207280760132  0.7315337122261  0.2435114980137 1.0
C      1  0.5641320297613  0.7766109620734  0.2530562870553 1.0
C      1  0.6505042552713  0.7695468544823  0.2902606814418 1.0
C      1  0.7547434044054  0.7444882703030  0.4559133018799 1.0
C      1  0.7569198055467  0.7560272767501  0.5493741070938 1.0
C      1  0.6487175794125  0.7410133479557  0.7166483224610 1.0
C      1  0.5633023467829  0.7535990500994  0.7535958528613 1.0
C      1  0.3681643660554  0.7402946788853  0.7173242276417 1.0
C      1  0.6154335410349  0.8051996149764  0.3768420408606 1.0
C      1  0.6656282041481  0.7921708716547  0.4527988426153 1.0
C      1  0.6666743558166  0.7939105158402  0.5533971576726 1.0
C      1  0.6183914953159  0.7870276114726  0.6311237900833 1.0
C      1  0.5258999017863  0.7896524407275  0.6708691931412 1.0
C      1  0.4355045892485  0.7831491529509  0.6544090742790 1.0
C      1  0.3632497294813  0.7852056375624  0.5843479047765 1.0
C      1  0.3390673006627  0.7775847204788  0.4949534974062 1.0
C      1  0.3610513657309  0.7841690602262  0.3941530731353 1.0
C      1  0.4299826241274  0.7852546107737  0.3304965881960 1.0
C      1  0.5245520059733  0.8102691503109  0.3332643257172 1.0
C      1  0.7515388788370  0.5732380523210  0.2682929704599 1.0
C      1  0.8299756774197  0.5945521796186  0.4720495913476 1.0
C      1  0.8206332825475  0.5720579230143  0.6424768153732 1.0
C      1  0.6602554427838  0.5902405741971  0.7908954503703 1.0
C      1  0.4951911821884  0.5703863907026  0.8538370391599 1.0
C      1  0.2976877427455  0.5939182195139  0.7665371460900 1.0
C      1  0.1746138942851  0.5733233805157  0.6507446032406 1.0
C      1  0.1770474392576  0.5792595757228  0.4275832462853 1.0
C      1  0.2255996081227  0.5610698942939  0.2683843829269 1.0
C      1  0.4320975974522  0.5872913206225  0.1795432775959 1.0
C      1  0.6046054141249  0.5816627501919  0.1832971099913 1.0
C      1  0.3104242965534  0.5828689054102  0.5151195373270 1.0
C      1  0.3556026179529  0.5731152341590  0.4269167939369 1.0
C      1  0.4375573341982  0.6150051321580  0.4049518862558 1.0
C      1  0.4959229634090  0.5764344300144  0.3415719141089 1.0
C      1  0.5906867036992  0.5726966268946  0.3588657025860 1.0
C      1  0.6507412275180  0.5768916259801  0.4307108051142 1.0
C      1  0.6561501776323  0.5788059329854  0.5282425984247 1.0
C      1  0.6165979684944  0.5803348769852  0.6133696875430 1.0
C      1  0.5346784868000  0.5790422044462  0.6642534437915 1.0
C      1  0.4412787235963  0.5791060605614  0.6594222527752 1.0
C      1  0.3650715583335  0.5761376367949  0.6001832704580 1.0
C      1  0.4942652548342  0.6121167077940  0.4812455488587 1.0
C      1  0.5077685215743  0.4424594691130  0.5084370452590 1.0
C      1  0.4969153198602  0.5285522029106  0.5090276606129 1.0
END
