TITL C-23239-2101-20 -8.511 3375.00 -1483.58259205 0 0 180 (C1) n - 1
REM
REM Run started: at 2020.12.26 09:01:43 in /gpfs/home/chem/mssmkc/CARBON/AIRSS/Generating-Clusters/Str-Search/Higher-Symm/Only-C180
REM VASP from code version vasp.5.4.4.18Apr17-6-g9f103f2a35 (build Oct 11 2019 16:45:47) gamma-only
REM
REM
REM
REM
REM ./C.cell (73b75853f6e4503fb4b57bac71549d7d)
REM AIRSS Version 0.9.1 bugfix July 2018 build 013d7b7c2542+ Fri, 06 Jul 2018 19:26:36 +0100
REM compiler GCC version 6.3.0
REM options -cpp -iprefix /gpfs/warwick/csc/orac/software/Core/GCCcore/6.3.0/bin/../lib/gcc/x86_64-pc-linux-gnu/6.3.0/ -mtune=generic -march=x86-64 -g -O0
REM seed -307862179 860871457 1995928401 1534301136 1389065252 -1425012766 -810524324 1616250548 1891900009 246398359 1187903323 967366104
REM
REM C.POTCAR (d86ddea03c3ceb6dc662c8ad6801f873)
REM 
CELL 1.54180   15.00000   15.00000   15.00000   90.00000   90.00000   90.00000
LATT -1
SFAC C  
C      1  0.2795643119919  0.3395764610520  0.5908883112795 1.0
C      1  0.4015563598367  0.2674772273612  0.6355550004785 1.0
C      1  0.5559436165666  0.2465376770327  0.6371623446378 1.0
C      1  0.6628520961184  0.3183207115215  0.5542269558566 1.0
C      1  0.7292905607233  0.4471982185254  0.5166378935739 1.0
C      1  0.7354014891812  0.5978315096086  0.5193084621916 1.0
C      1  0.6346053633313  0.7105141781635  0.5133177072691 1.0
C      1  0.4792708446872  0.7505877838182  0.5116484601154 1.0
C      1  0.3933210657778  0.6977282212866  0.4727032759719 1.0
C      1  0.2748729996466  0.6005132159551  0.4791853719926 1.0
C      1  0.2207779182116  0.4696132550338  0.5315398388099 1.0
C      1  0.4538228339077  0.3338791291153  0.2579089273464 1.0
C      1  0.5469939874053  0.3507901897215  0.2668367851286 1.0
C      1  0.5874170104546  0.4020738770095  0.3301998980151 1.0
C      1  0.5634714497713  0.5427052743430  0.3658682576347 1.0
C      1  0.5997739821778  0.6071528471083  0.3127136189766 1.0
C      1  0.5500859575132  0.6777464908459  0.2805183586662 1.0
C      1  0.4561106432013  0.6861020792196  0.2636703737098 1.0
C      1  0.3764851410634  0.6384331224048  0.2615801379406 1.0
C      1  0.3297995123777  0.5585924808983  0.2325227490000 1.0
C      1  0.3402604076910  0.4678640676597  0.2065034385219 1.0
C      1  0.3758669494776  0.3867170035191  0.2338834873763 1.0
C      1  0.4391786831325  0.1819108241445  0.8779237541599 1.0
C      1  0.5734328744138  0.2260438666232  0.7370297910258 1.0
C      1  0.7548702813672  0.3005279748313  0.8051435727852 1.0
C      1  0.8934822186134  0.4569061518146  0.8680897591756 1.0
C      1  0.8275377947174  0.6916286232835  0.9016054378838 1.0
C      1  0.6752057897110  0.7642998361501  0.9074357747753 1.0
C      1  0.5151679166570  0.8370690528176  0.8280505346665 1.0
C      1  0.3938965309473  0.7341088137976  0.7609394270288 1.0
C      1  0.2551793454339  0.6724459030853  0.7415989422320 1.0
C      1  0.1560161349042  0.4845556525019  0.7570619175369 1.0
C      1  0.2169349615887  0.2708853907715  0.8729599563803 1.0
C      1  0.6940721907907  0.5869089013134  0.2655441143387 1.0
C      1  0.5999116918271  0.7358119663788  0.2167639444305 1.0
C      1  0.5325415715989  0.7385146934452  0.1443112257379 1.0
C      1  0.3130623529268  0.6931269715515  0.2020777493332 1.0
C      1  0.2624460397414  0.6156777608712  0.1847024599532 1.0
C      1  0.3010197698950  0.4402240318514  0.1071110518632 1.0
C      1  0.3447619571795  0.3100130017196  0.1756056080495 1.0
C      1  0.4238411869143  0.2592754266855  0.2052308732641 1.0
C      1  0.6180327287005  0.3175819892363  0.1928188191728 1.0
C      1  0.6811931887682  0.4132992224275  0.3085810775539 1.0
C      1  0.7354086907302  0.4375434844294  0.2106182083806 1.0
C      1  0.8505179072376  0.9059347771859  0.4420442619348 1.0
C      1  0.5542252740116  0.9516500361374  0.6304639816642 1.0
C      1  0.2842859915362  0.9024939025286  0.5327537524025 1.0
C      1  0.0999904016695  0.7672176002110  0.5003542558225 1.0
C      1  0.0169926185838  0.4535744435451  0.5418829953719 1.0
C      1  0.0590663343170  0.2243727081887  0.6235877025893 1.0
C      1  0.2817251704587  0.0278773059718  0.6441130006707 1.0
C      1  0.5990252490043  0.0353862825569  0.6257639884990 1.0
C      1  0.7810807655779  0.0510772298597  0.4690490364944 1.0
C      1  0.9572129034561  0.3726160224236  0.5491171286698 1.0
C      1  0.9504795104635  0.6891753202130  0.4520091847301 1.0
C      1  0.3107521940861  0.2551212576491  0.6114391992845 1.0
C      1  0.4666007040294  0.2032606519118  0.6287093067851 1.0
C      1  0.6397947088608  0.2314825356646  0.5775609960533 1.0
C      1  0.7365184292350  0.3551614715218  0.5083621845551 1.0
C      1  0.7899238652083  0.5185409022028  0.4967686598367 1.0
C      1  0.7242693581588  0.6905161520389  0.4963057367870 1.0
C      1  0.5769818108422  0.7799102165822  0.4859716996780 1.0
C      1  0.4507614267487  0.8371991300574  0.5487615356887 1.0
C      1  0.3025592986963  0.6839864292385  0.4408202334749 1.0
C      1  0.1896126926795  0.5540330376847  0.4888646419297 1.0
C      1  0.2014888268574  0.3759103985899  0.5457689090698 1.0
C      1  0.5352955227451  0.5490915077241  0.8742791824376 1.0
C      1  0.4515765012546  0.5925840276292  0.8284667567080 1.0
C      1  0.3681313790448  0.5551822027135  0.8150609828844 1.0
C      1  0.3186721730502  0.4711675582453  0.8281861238047 1.0
C      1  0.3447409093247  0.3874060113256  0.8515879410166 1.0
C      1  0.4317953267590  0.3466298924400  0.8495004079032 1.0
C      1  0.5189428596357  0.3721803253789  0.8253827647047 1.0
C      1  0.6588145689352  0.4298447706067  0.8402962796061 1.0
C      1  0.7250503104088  0.4919811530259  0.8600899432288 1.0
C      1  0.7001150780647  0.5820536344155  0.8739556167573 1.0
C      1  0.6157210835850  0.6154237589733  0.8728588304761 1.0
C      1  0.0388934269934  0.7992797261410  0.5498555826255 1.0
C      1  0.0317832006340  0.4397847126592  0.6441032277089 1.0
C      1  0.0113434070304  0.2740505588818  0.6696868057248 1.0
C      1  0.2040570318643  0.9888276106081  0.6802032164573 1.0
C      1  0.5319331472470  0.9684909364470  0.7226660177737 1.0
C      1  0.8500385428494  0.0015826331131  0.4331143603685 1.0
C      1  0.9829394033512  0.3592462854540  0.6439724889100 1.0
C      1  0.9648991418141  0.7781218813269  0.4877099699447 1.0
C      1  0.9200937855897  0.8487335397170  0.4538659405206 1.0
C      1  0.5635032564186  0.0603330062034  0.7142596371398 1.0
C      1  0.2502274725870  0.9492469475779  0.6072092792723 1.0
C      1  0.1256060655403  0.2294619814209  0.5556171320728 1.0
C      1  0.3390790530064  0.0937446085723  0.6013032552198 1.0
C      1  0.6568973855828  0.0637517867241  0.5602828407278 1.0
C      1  0.7696943426219  0.1496614220048  0.4924932130469 1.0
C      1  0.8900823365735  0.3816108932799  0.4770642149336 1.0
C      1  0.8647354894815  0.6996868231829  0.4083478054937 1.0
C      1  0.7668447802783  0.8533905811597  0.4554500539843 1.0
C      1  0.5228093710589  0.9091983121917  0.5470899275985 1.0
C      1  0.2429062549189  0.8786834748287  0.4563068927941 1.0
C      1  0.1436685065199  0.7038086504605  0.4511520442118 1.0
C      1  0.0498086775763  0.3702030511360  0.4893599925561 1.0
C      1  0.3175032001088  0.7515614918035  0.7288815063772 1.0
C      1  0.2250273718671  0.7493612589897  0.7049668458266 1.0
C      1  0.0941644118436  0.4696094317664  0.7049523409534 1.0
C      1  0.1338525307291  0.2516070208452  0.8673966175174 1.0
C      1  0.5037837236761  0.1430111225890  0.8437565387773 1.0
C      1  0.5611465903899  0.1372283571767  0.7686831485345 1.0
C      1  0.8360217792041  0.3105931550915  0.8193445398716 1.0
C      1  0.8909011384851  0.3767198656112  0.8447166500199 1.0
C      1  0.8535301079227  0.7763863523930  0.9121956777528 1.0
C      1  0.7590688438599  0.7731813457145  0.9137346862318 1.0
C      1  0.5115099335123  0.9096768197887  0.7900329606937 1.0
C      1  0.1116516642426  0.6128591046012  0.4712083450070 1.0
C      1  0.1289450107000  0.3234745481012  0.5191956672967 1.0
C      1  0.2783368396535  0.1706318863286  0.5801000178379 1.0
C      1  0.4367211381146  0.1174834144018  0.6180049518582 1.0
C      1  0.6892681632652  0.1541795190080  0.5499967200496 1.0
C      1  0.8156601524434  0.3143214249725  0.4803796913493 1.0
C      1  0.8777715706200  0.4875558281333  0.4788046845493 1.0
C      1  0.7779056061099  0.7518832858923  0.4415701610605 1.0
C      1  0.6001615391790  0.8700948970767  0.4944344046003 1.0
C      1  0.3821499763820  0.8963069277520  0.5323535767184 1.0
C      1  0.2278538432269  0.7350505961045  0.4137642102950 1.0
C      1  0.7961746048371  0.6066571173115  0.8867086228857 1.0
C      1  0.6033158563475  0.7112482714336  0.8825098568271 1.0
C      1  0.5233717250492  0.7464038221037  0.8483272622420 1.0
C      1  0.4568869413700  0.6897198905987  0.8112881279101 1.0
C      1  0.2808370807496  0.5930643732923  0.7804909310340 1.0
C      1  0.2365596449765  0.5111851653998  0.7928215462081 1.0
C      1  0.3025980308002  0.2994681263245  0.8715972391459 1.0
C      1  0.3923331725595  0.2609570759571  0.8735235926762 1.0
C      1  0.5841723255821  0.3032919406928  0.7970048264780 1.0
C      1  0.6689145629697  0.3364558035132  0.8132560938993 1.0
C      1  0.8206458443681  0.5152490528694  0.8739573784561 1.0
C      1  0.5785284680573  0.2261045292015  0.1820565401499 1.0
C      1  0.7061934573198  0.3500991521735  0.2368817649114 1.0
C      1  0.7342595679639  0.4929976061232  0.2920204593810 1.0
C      1  0.7393904124523  0.6806952283800  0.2784390426275 1.0
C      1  0.6872012868122  0.7393604836558  0.2330791564420 1.0
C      1  0.4437024570738  0.7482152102952  0.1857876266314 1.0
C      1  0.3564116321796  0.7608304199165  0.1544605868409 1.0
C      1  0.2092338891275  0.5764547766023  0.1182719703094 1.0
C      1  0.2261326102150  0.5001118971324  0.0903970662564 1.0
C      1  0.2990803350966  0.3389250687309  0.1036928158348 1.0
C      1  0.4970271868603  0.2079316981911  0.1735359046516 1.0
C      1  0.1936174972513  0.1712600721363  0.5514969386559 1.0
C      1  0.4215301275402  0.0550573340622  0.5538293460904 1.0
C      1  0.7058534816477  0.0013920031562  0.5043809025137 1.0
C      1  0.8229657644152  0.2227176396342  0.4718040966165 1.0
C      1  0.9668467990627  0.5258406961262  0.4932612467430 1.0
C      1  0.7984563579301  0.7031000340036  0.3503637829634 1.0
C      1  0.6907938422361  0.9061740455557  0.4859988654562 1.0
C      1  0.4419949361859  0.9718297631634  0.5277006283083 1.0
C      1  0.2363450965434  0.8256226148707  0.3913245781187 1.0
C      1  0.0097610939743  0.6080026315763  0.4718264870050 1.0
C      1  0.9737391110977  0.3298561290442  0.4460383886285 1.0
C      1  0.6395966619361  0.4488746187113  0.0750001273000 1.0
C      1  0.6996564817460  0.4860911901491  0.1397120073898 1.0
C      1  0.6738425283980  0.5721365021908  0.1640373917576 1.0
C      1  0.6116562048105  0.6000537362892  0.0936840442764 1.0
C      1  0.5399707052459  0.6658849921466  0.0850119726702 1.0
C      1  0.4741303790039  0.6230577862924  0.0265751335944 1.0
C      1  0.4288437460336  0.5422764524152  0.0224462987287 1.0
C      1  0.3850665121241  0.4629956248909  0.0506031904845 1.0
C      1  0.4434362905260  0.3912234903989  0.0428962675837 1.0
C      1  0.5161163124342  0.3541092292978  0.0607445188350 1.0
C      1  0.5983185992195  0.3672129055266  0.1004131248859 1.0
C      1  0.5281721922214  0.3488123310585  0.6201669946725 1.0
C      1  0.6036101604938  0.3902008126401  0.5837173410499 1.0
C      1  0.6477409515200  0.4723545054966  0.5595829526758 1.0
C      1  0.6500683469831  0.5660785286447  0.5583813035591 1.0
C      1  0.5884032727903  0.6375956885344  0.5559573122800 1.0
C      1  0.4984284453029  0.6573983483286  0.5531881877254 1.0
C      1  0.4156932460540  0.6225590495335  0.5263577948598 1.0
C      1  0.3457145323593  0.5611256129779  0.5270286347477 1.0
C      1  0.3147449201778  0.4807698449002  0.5596322033577 1.0
C      1  0.3519114437343  0.4041121655171  0.5980872118896 1.0
C      1  0.4330228302736  0.3581141100969  0.6247044956399 1.0
C      1  0.5658127967569  0.4546468530538  0.8426312076154 1.0
C      1  0.5950742106932  0.5248795756614  0.0374751250222 1.0
C      1  0.5480352734764  0.4647202184523  0.3905209816874 1.0
C      1  0.5179698837600  0.5450578609589  0.9784125848086 1.0
END
