TITL C-23795-7880-7 -10.905 3375.00 -1963.72995602 0 0 239 (C1) n - 1
REM
REM Run started: at 2020.11.22 11:11:56 in /rds/project/t2_vol4/rds-t2-cs072/BORA/CARBON/AIRSS/Generating-Clusters/Str-Search/Higher-Symm
REM VASP from code version vasp.5.4.4.18Apr17-6-g9f103f2a35 (build Oct 11 2019 16:45:47) gamma-only
REM
REM
REM
REM
REM ./C.cell (e5ae0387ce4d49c7c0135a1433873289)
REM AIRSS Version 0.9.1 bugfix July 2018 build 013d7b7c2542+ Fri, 06 Jul 2018 19:26:36 +0100
REM compiler GCC version 4.8.5 20150623 (Red Hat 4.8.5-39)
REM options -cpp -mtune=generic -march=x86-64 -g -O0
REM seed 1239833169 1852006795 147946520 -1792212974 1832076458 -351563765 1571355818 -1943130658 338464359 980954362 -1294653925 178011569
REM
REM C.POTCAR (d86ddea03c3ceb6dc662c8ad6801f873)
REM 
CELL 1.54180   15.00000   15.00000   15.00000   90.00000   90.00000   90.00000
LATT -1
SFAC C  
C      1  0.3685205937477  0.4665256015748  0.1674691211186 1.0
C      1  0.7385935155409  0.5587453672011  0.0895394116303 1.0
C      1  0.3635163341278  0.4611851228304  0.8238322368037 1.0
C      1  0.7133481936540  0.5596621105193  0.9042465846848 1.0
C      1  0.5620868963954  0.8581655038679  0.7197356017329 1.0
C      1  0.4348740895447  0.1460510726626  0.7151597761154 1.0
C      1  0.5645328863662  0.8373743766795  0.2807335021930 1.0
C      1  0.4356584100717  0.1460583802277  0.2776059326760 1.0
C      1  0.6018167482859  0.6839257158251  0.4019215426878 1.0
C      1  0.3714608703729  0.2794080581883  0.3982134081052 1.0
C      1  0.5993097519098  0.6780014362761  0.5869986940854 1.0
C      1  0.3708346618539  0.2791174552522  0.5946298146941 1.0
C      1  0.5440815369298  0.6809559585258  0.7833478250405 1.0
C      1  0.4727274884898  0.3292339639931  0.8059049670678 1.0
C      1  0.5337005165069  0.6538100501140  0.1760326829662 1.0
C      1  0.4770536987609  0.3347445130180  0.1897359941970 1.0
C      1  0.4085376536054  0.5498547617190  0.3935270298337 1.0
C      1  0.5601906048421  0.4903766449178  0.4519147651492 1.0
C      1  0.3918736021975  0.5602936483885  0.6103873676910 1.0
C      1  0.5999246109535  0.4508568970658  0.6387493863318 1.0
C      1  0.7353308524375  0.2490148680796  0.1637415795055 1.0
C      1  0.2878231669694  0.7332479781458  0.1232260004996 1.0
C      1  0.7333385915285  0.2496016808610  0.8385320361836 1.0
C      1  0.2836555197649  0.7299857783930  0.8690151982545 1.0
C      1  0.2791662936121  0.4189870998655  0.1786647852975 1.0
C      1  0.7932344248802  0.5941347808265  0.1605435357321 1.0
C      1  0.2731996107076  0.4182746385164  0.8110611551178 1.0
C      1  0.7599913859079  0.5871041568991  0.8268469188217 1.0
C      1  0.3944632335777  0.1280097945723  0.6260302048785 1.0
C      1  0.6075149655963  0.8640207814768  0.6288663185386 1.0
C      1  0.3938201372590  0.1264905765637  0.3646459452934 1.0
C      1  0.6084402321451  0.8546966473319  0.3676435232844 1.0
C      1  0.6790289255431  0.6433901650967  0.9564815365493 1.0
C      1  0.3192337972915  0.3983559430200  0.8990312335152 1.0
C      1  0.6966704848707  0.6371894179142  0.0484544542596 1.0
C      1  0.3283497586208  0.4021202124278  0.0922415809953 1.0
C      1  0.1725447748558  0.4307667364811  0.3848893428503 1.0
C      1  0.8091884068159  0.5760151800697  0.3977737782464 1.0
C      1  0.1741411789638  0.4255521855284  0.6052121982624 1.0
C      1  0.8178448720371  0.5834953155440  0.6070419156600 1.0
C      1  0.6337856302016  0.8078808446893  0.8714730915283 1.0
C      1  0.3494516231109  0.2197853183848  0.8679375816988 1.0
C      1  0.6590038144527  0.8071562112594  0.1232250582924 1.0
C      1  0.3564606549627  0.2245055440204  0.1243872695855 1.0
C      1  0.5016136097026  0.5865583231676  0.0951382611542 1.0
C      1  0.5130468206971  0.4005011448193  0.1078807209602 1.0
C      1  0.4998554163626  0.5551980532947  0.8737709581034 1.0
C      1  0.5040514184153  0.3876106139087  0.8914659768941 1.0
C      1  0.7082839650626  0.6464317944258  0.7664266916335 1.0
C      1  0.3019845081104  0.3473932743491  0.7461801334594 1.0
C      1  0.7720251005020  0.6825510274726  0.1831348244847 1.0
C      1  0.3068637070622  0.3499508575407  0.2462466338820 1.0
C      1  0.3845598277900  0.1905766587001  0.7881698748073 1.0
C      1  0.6078303454769  0.8520112227674  0.8039650708014 1.0
C      1  0.3882159835829  0.1939722968426  0.2050442376338 1.0
C      1  0.6174614637605  0.7993850726553  0.2066345617244 1.0
C      1  0.7381237770537  0.6128124810609  0.4532246583907 1.0
C      1  0.2356519010358  0.3839020203651  0.4462074034163 1.0
C      1  0.7423165233598  0.6168075608601  0.5522543996641 1.0
C      1  0.2374800528130  0.3830711021776  0.5433607803893 1.0
C      1  0.6849133020902  0.6950042547966  0.4485879999325 1.0
C      1  0.2880213642168  0.3016306718329  0.4463948546825 1.0
C      1  0.6843631564270  0.6970927107009  0.5472758297893 1.0
C      1  0.2886855592409  0.3011431855897  0.5439220189286 1.0
C      1  0.4465009344366  0.4700860005016  0.2437624564363 1.0
C      1  0.5306158407782  0.5188021117544  0.2481719954336 1.0
C      1  0.4438591043095  0.4671415710086  0.7521517688329 1.0
C      1  0.5210058252775  0.5293402734259  0.7738454048099 1.0
C      1  0.1709052589567  0.5442202846844  0.7764856570215 1.0
C      1  0.8295289819581  0.4525188703154  0.7731609272168 1.0
C      1  0.1686760306556  0.5331385607330  0.1986389250601 1.0
C      1  0.8274029775737  0.4508848761872  0.2338443284760 1.0
C      1  0.3795061344119  0.5093034709304  0.3038584923359 1.0
C      1  0.6164343332796  0.4865592078830  0.2709893355001 1.0
C      1  0.3797615603658  0.5045616011332  0.6898248189921 1.0
C      1  0.6127710878663  0.4930722567182  0.7294202090107 1.0
C      1  0.7408142349559  0.7790995016735  0.5596064586891 1.0
C      1  0.2418590252455  0.2132497190285  0.5547129986611 1.0
C      1  0.7438288995302  0.7754517236580  0.4345142235689 1.0
C      1  0.2422632237011  0.2128795816219  0.4357986600672 1.0
C      1  0.6758444999044  0.3716848946065  0.9447995029755 1.0
C      1  0.3543669248071  0.5937053561290  0.9362898378916 1.0
C      1  0.6814777665232  0.3740151376680  0.0567049213723 1.0
C      1  0.3474738388790  0.5988892429663  0.0427967542879 1.0
C      1  0.5143812185324  0.6170209638455  0.7126470639104 1.0
C      1  0.4760669666499  0.3761770877277  0.7142996005140 1.0
C      1  0.5190333992817  0.6144734995445  0.2741540548601 1.0
C      1  0.4783302714924  0.3781931597477  0.2854743462080 1.0
C      1  0.4578044643512  0.8297336203524  0.3894851420599 1.0
C      1  0.5385582168767  0.1492750805383  0.3946455190553 1.0
C      1  0.4607655802546  0.8241973827539  0.6057111872685 1.0
C      1  0.5377799766918  0.1532463074149  0.5989289147116 1.0
C      1  0.3298513204848  0.7881748419209  0.1700285795507 1.0
C      1  0.6798900730291  0.1986135286263  0.2012576041941 1.0
C      1  0.3312614699123  0.7785713718007  0.8203479717834 1.0
C      1  0.6786985597067  0.2017594373378  0.7964123908060 1.0
C      1  0.7473511431456  0.3314933467403  0.8787619854591 1.0
C      1  0.2716720779207  0.6377694640185  0.8889245872236 1.0
C      1  0.7524320050151  0.3293611451636  0.1229436414256 1.0
C      1  0.2681641811697  0.6463122950582  0.0905713710710 1.0
C      1  0.4277331500790  0.6382706534324  0.3359634128490 1.0
C      1  0.5647989523106  0.3544441178843  0.3301023273727 1.0
C      1  0.4293574110589  0.6406966692625  0.6581193754671 1.0
C      1  0.5633585669742  0.3628655453330  0.6646913209027 1.0
C      1  0.2676119610115  0.6332057428780  0.4474120433848 1.0
C      1  0.6801835456325  0.3748247620488  0.4640879902931 1.0
C      1  0.2683385935575  0.6347499062506  0.5376015450024 1.0
C      1  0.6977554181887  0.3757098004679  0.5501133681086 1.0
C      1  0.3833340562771  0.7878212532701  0.5487671225983 1.0
C      1  0.6001807366200  0.2153811980420  0.5541008524278 1.0
C      1  0.3823677473961  0.7865653988362  0.4414658731097 1.0
C      1  0.5983471393553  0.2145098808596  0.4397447326087 1.0
C      1  0.7861693582599  0.4144211223892  0.1521472821488 1.0
C      1  0.2040825345672  0.6045694810204  0.1430924415052 1.0
C      1  0.7810387982608  0.4172363549498  0.8510965936707 1.0
C      1  0.2092562391351  0.5878210132439  0.8475669591322 1.0
C      1  0.6510134181571  0.7174122551999  0.9001609718192 1.0
C      1  0.3524887237309  0.3057422136280  0.8998963492266 1.0
C      1  0.6975084209532  0.7090985483568  0.1213257431857 1.0
C      1  0.3615754217480  0.3093528737845  0.0914555408701 1.0
C      1  0.7326990780292  0.4640233620426  0.0892050478954 1.0
C      1  0.3763618424278  0.4958318561028  0.0763534136000 1.0
C      1  0.7207004028309  0.4647299367338  0.9106336284546 1.0
C      1  0.3722726364570  0.4898651865336  0.9147205750055 1.0
C      1  0.2592733444363  0.6398588985172  0.6874451873485 1.0
C      1  0.7382857331758  0.3583474870240  0.6896139549324 1.0
C      1  0.2624550683993  0.6461577472950  0.2938663497525 1.0
C      1  0.7309301188206  0.3637898306623  0.3217756612130 1.0
C      1  0.6166598010301  0.7085049819221  0.1796488011058 1.0
C      1  0.3843574218735  0.2962015443386  0.1989758552486 1.0
C      1  0.6296293786736  0.6833867332072  0.8114383979940 1.0
C      1  0.3786932177826  0.2927177193020  0.7950345858365 1.0
C      1  0.2102225950361  0.8113053882746  0.5481833685499 1.0
C      1  0.7699725334930  0.1893503747754  0.5482513641804 1.0
C      1  0.2113240085305  0.8149677849514  0.4493475021113 1.0
C      1  0.7690990032781  0.1920286565132  0.4498614383963 1.0
C      1  0.5282102800805  0.1625063140770  0.2930437789204 1.0
C      1  0.4720331729075  0.8236015122085  0.2865264747265 1.0
C      1  0.5269501632166  0.1650278572209  0.7004248712046 1.0
C      1  0.4720129538719  0.8295827237752  0.7095515115959 1.0
C      1  0.4415531302530  0.6296748456101  0.8874004765226 1.0
C      1  0.5845912920804  0.3408390342949  0.8980119577321 1.0
C      1  0.4281545441874  0.6422754778049  0.0864377152946 1.0
C      1  0.5912235478683  0.3497802610513  0.1036864437330 1.0
C      1  0.5212222767875  0.6981683523142  0.5392761240234 1.0
C      1  0.4553349124817  0.3159414255937  0.5499053437812 1.0
C      1  0.5221537763374  0.6980820183316  0.4485427006933 1.0
C      1  0.4545204589518  0.3158366628215  0.4438052718306 1.0
C      1  0.6981758456530  0.8364323686682  0.6259527563903 1.0
C      1  0.3198521228222  0.1909736246983  0.6159543579915 1.0
C      1  0.7026866507381  0.8344584723347  0.3697275340233 1.0
C      1  0.3213790130929  0.1911680934171  0.3755850222986 1.0
C      1  0.4207321712164  0.7806040843420  0.7872433493379 1.0
C      1  0.5861755812191  0.2036602232611  0.7735058097301 1.0
C      1  0.4196216206441  0.7801421513811  0.2063139482407 1.0
C      1  0.5869152133800  0.2051073720065  0.2220350132747 1.0
C      1  0.3342352298398  0.4223324801711  0.6608024827993 1.0
C      1  0.6673059086081  0.5744068697505  0.6957800451674 1.0
C      1  0.3346936987751  0.4234855719801  0.3296539254392 1.0
C      1  0.6567491800865  0.5562043693647  0.3232150346387 1.0
C      1  0.8251545889128  0.5484687424224  0.7688435203335 1.0
C      1  0.1857473167149  0.4493900872199  0.7692104785065 1.0
C      1  0.8279140552651  0.5460729945055  0.2360183975991 1.0
C      1  0.1896907961384  0.4437541866244  0.2169409895880 1.0
C      1  0.2228869173179  0.3053801607409  0.7028621573501 1.0
C      1  0.7776725259188  0.6955776783779  0.7115078456471 1.0
C      1  0.2266417593561  0.3064730999360  0.2878761712212 1.0
C      1  0.7919443086213  0.6983424973118  0.2783593466916 1.0
C      1  0.5568542800634  0.2788154384383  0.1688066449670 1.0
C      1  0.4546096208312  0.7092548930610  0.1544645563091 1.0
C      1  0.5529107647937  0.2729685192953  0.8286827955785 1.0
C      1  0.4645477985469  0.7081079372932  0.8316388174228 1.0
C      1  0.9534837075196  0.4821668298854  0.5541021916698 1.0
C      1  0.0420624331673  0.5292314955902  0.5573838582920 1.0
C      1  0.9527708418810  0.4844462645942  0.4482989042528 1.0
C      1  0.0383082129811  0.5388267287603  0.4523851600551 1.0
C      1  0.9342420513338  0.3852078204481  0.5512882008395 1.0
C      1  0.0573124340532  0.6260840091096  0.5675692431356 1.0
C      1  0.9339747873466  0.3865235407667  0.4502042397902 1.0
C      1  0.0473568283631  0.6386409762833  0.4706473909999 1.0
C      1  0.4418155195589  0.7162645334903  0.4000370104122 1.0
C      1  0.5461310590045  0.2964236433692  0.4046664156201 1.0
C      1  0.4427120129897  0.7184501431937  0.5910214129136 1.0
C      1  0.5442581008247  0.2917835691491  0.5912337550930 1.0
C      1  0.8176895138241  0.2825116522545  0.5595064257162 1.0
C      1  0.1663185006906  0.7375860226466  0.5984859097445 1.0
C      1  0.8133740734202  0.2868030104313  0.4466393294809 1.0
C      1  0.1558542928753  0.7479119283853  0.4039261232204 1.0
C      1  0.2568510602625  0.7015013616044  0.6124867088135 1.0
C      1  0.7288497630953  0.3059148991839  0.6073159862766 1.0
C      1  0.2463589815951  0.7011862730076  0.3757560850100 1.0
C      1  0.7222784257321  0.3118098437784  0.4036404382417 1.0
C      1  0.1164819746008  0.4778660876989  0.4509405588821 1.0
C      1  0.8724393226889  0.5384223273740  0.4566961316310 1.0
C      1  0.1174265265084  0.4707699078251  0.5426381132496 1.0
C      1  0.8752376899395  0.5396063226123  0.5467059207546 1.0
C      1  0.3152994354673  0.5434803643938  0.4418814523342 1.0
C      1  0.6531385541861  0.4710767554375  0.4637477629050 1.0
C      1  0.3134378372089  0.5446016420420  0.5478610939835 1.0
C      1  0.6707574882994  0.4675058121091  0.5707680677692 1.0
C      1  0.6428396457718  0.3942709041491  0.2929241712521 1.0
C      1  0.3454350885506  0.6074000285725  0.2861660194581 1.0
C      1  0.6486089242927  0.3966812573590  0.7147942702704 1.0
C      1  0.3457628251383  0.5995654558233  0.6994478451543 1.0
C      1  0.7075484690126  0.5345731267313  0.4042087750970 1.0
C      1  0.2720925246269  0.4599396016433  0.3976402833288 1.0
C      1  0.7202665492793  0.5436391966703  0.6139935717882 1.0
C      1  0.2726658562892  0.4590079878865  0.5921046015064 1.0
C      1  0.6905489067951  0.2160959807361  0.5897285219895 1.0
C      1  0.2946512238704  0.7896482987236  0.5861218506692 1.0
C      1  0.6896423213944  0.2181034299445  0.4090217518680 1.0
C      1  0.2905826668804  0.7874336580966  0.4070080023622 1.0
C      1  0.8203266404109  0.3885282817569  0.3132576878522 1.0
C      1  0.1916489375275  0.6134699549783  0.2365141696476 1.0
C      1  0.8267086395551  0.3860181740395  0.6946573657911 1.0
C      1  0.1726474252963  0.6124115404172  0.7003103221020 1.0
C      1  0.5418536961482  0.8581446112404  0.4430836874739 1.0
C      1  0.4594707858767  0.1231606184612  0.4410673084834 1.0
C      1  0.5432830462576  0.8571512187029  0.5515267782861 1.0
C      1  0.4591178836797  0.1238942065879  0.5512263825860 1.0
C      1  0.2301370215322  0.2249570831172  0.6556850222679 1.0
C      1  0.7628627734033  0.7739827152179  0.6574831926996 1.0
C      1  0.2328074185203  0.2264006621735  0.3348865510487 1.0
C      1  0.7672663645896  0.7731594626139  0.3375113515963 1.0
C      1  0.8723115577831  0.3472394548730  0.3933925218748 1.0
C      1  0.0820588987675  0.7047605534372  0.4213536155037 1.0
C      1  0.8778332210497  0.3434039038045  0.6113908553334 1.0
C      1  0.1115927227727  0.6672647828980  0.6314909250078 1.0
C      1  0.6012018610961  0.6313645135831  0.3259151785388 1.0
C      1  0.4090592330298  0.3608581545065  0.3579461251108 1.0
C      1  0.5925708066060  0.6232608495155  0.6568296094338 1.0
C      1  0.4082454114989  0.3589711052335  0.6371711390907 1.0
C      1  0.8350929754426  0.6179660070012  0.6966401043306 1.0
C      1  0.1663341072428  0.3884379558736  0.6979399895925 1.0
C      1  0.8252218090149  0.6116230686189  0.3085415143176 1.0
C      1  0.1691366148027  0.3889550791053  0.2914830625727 1.0
C      1  0.4788234068731  0.4869206127872  0.0558415860378 1.0
C      1  0.4731231468877  0.4755465432671  0.9350587074466 1.0
C      1  0.4839671969247  0.5140303160278  0.4390143271031 1.0
END
