TITL C-23239-2101-2 -7.886 3375.00 -1408.66881986 0 0 180 (T23) n - 1
REM
REM Run started: at 2020.12.25 12:33:24 in /gpfs/home/chem/mssmkc/CARBON/AIRSS/Generating-Clusters/Str-Search/Higher-Symm/Only-C180
REM VASP from code version vasp.5.4.4.18Apr17-6-g9f103f2a35 (build Oct 11 2019 16:45:47) gamma-only
REM
REM
REM
REM
REM ./C.cell (73b75853f6e4503fb4b57bac71549d7d)
REM AIRSS Version 0.9.1 bugfix July 2018 build 013d7b7c2542+ Fri, 06 Jul 2018 19:26:36 +0100
REM compiler GCC version 6.3.0
REM options -cpp -iprefix /gpfs/warwick/csc/orac/software/Core/GCCcore/6.3.0/bin/../lib/gcc/x86_64-pc-linux-gnu/6.3.0/ -mtune=generic -march=x86-64 -g -O0
REM seed -1615603902 1216015925 1403887809 1828022901 -957208731 -48793811 -1619608420 -665859011 1552194571 -297687117 1721616989 1103509971
REM
REM C.POTCAR (d86ddea03c3ceb6dc662c8ad6801f873)
REM 
CELL 1.54180   15.00000   15.00000   15.00000   90.00000   90.00000   90.00000
LATT -1
SFAC C  
C      1  0.4373746312200  0.6041389120070  0.2881983503581 1.0
C      1  0.2881960870955  0.4373743729148  0.6041376755545 1.0
C      1  0.6041386859708  0.2881977547867  0.4373742492557 1.0
C      1  0.5626261864033  0.6041374355044  0.7118044714446 1.0
C      1  0.4373746283447  0.3958622283833  0.7118035188268 1.0
C      1  0.5626261363577  0.3958626737519  0.2881950157607 1.0
C      1  0.7118051485997  0.4373758989316  0.3958618473521 1.0
C      1  0.2881950936091  0.5626262268747  0.3958624696972 1.0
C      1  0.7118050936523  0.5626241063446  0.6041380815992 1.0
C      1  0.3958623246437  0.2881955601141  0.5626253890332 1.0
C      1  0.6041386755661  0.7118021203714  0.5626255246126 1.0
C      1  0.3958621465142  0.7118049556914  0.4373760736599 1.0
C      1  0.4430407725017  0.5098187708077  0.0557975931645 1.0
C      1  0.0557935082969  0.4430445366111  0.5098170352676 1.0
C      1  0.5098156645901  0.0557900055523  0.4430460285738 1.0
C      1  0.5569516098029  0.5098148243327  0.9442131434309 1.0
C      1  0.4430410643344  0.4901804875658  0.9442022395838 1.0
C      1  0.5569515684078  0.4901848214023  0.0557868574336 1.0
C      1  0.9442071488058  0.4430445902973  0.4901813233564 1.0
C      1  0.0557936428409  0.5569552266105  0.4901812284067 1.0
C      1  0.9442070582235  0.5569555063706  0.5098183073651 1.0
C      1  0.4901815785284  0.0557940210171  0.5569567207511 1.0
C      1  0.5098180111881  0.9442065653234  0.5569570841798 1.0
C      1  0.4901833507884  0.9442102231450  0.4430462677100 1.0
C      1  0.3599331398925  0.8567556414746  0.5464080204028 1.0
C      1  0.5464066617768  0.3599315808719  0.8567552783133 1.0
C      1  0.8567557808409  0.5464088319850  0.3599325629886 1.0
C      1  0.6400664321362  0.8567537913019  0.4535950279588 1.0
C      1  0.3599307844076  0.1432435474825  0.4535930709401 1.0
C      1  0.6400662659701  0.1432457940422  0.5464050510277 1.0
C      1  0.4535919426100  0.3599304626610  0.1432425030324 1.0
C      1  0.5464045078195  0.6400669870306  0.1432466403242 1.0
C      1  0.4535925988753  0.6400677387796  0.8567556875665 1.0
C      1  0.1432447760997  0.5464071716683  0.6400671109378 1.0
C      1  0.8567559706298  0.4535912697256  0.6400672416144 1.0
C      1  0.1432426061778  0.4535912014648  0.3599294775812 1.0
C      1  0.6702491494986  0.6783847769242  0.4949733484354 1.0
C      1  0.4949733013518  0.6702478098029  0.6783869259723 1.0
C      1  0.6783864887000  0.4949724545845  0.6702476724116 1.0
C      1  0.3297526780816  0.6783863542129  0.5050273871082 1.0
C      1  0.6702491068820  0.3216150849645  0.5050265000872 1.0
C      1  0.3297522161347  0.3216136402284  0.4949726514373 1.0
C      1  0.5050268918296  0.6702494460294  0.3216159426658 1.0
C      1  0.4949731646706  0.3297524433830  0.3216125750990 1.0
C      1  0.5050270025627  0.3297518659792  0.6783853596801 1.0
C      1  0.3216128844286  0.4949733297318  0.3297521258782 1.0
C      1  0.6783864720427  0.5050275415042  0.3297521521918 1.0
C      1  0.3216142667722  0.5050268594545  0.6702480436647 1.0
C      1  0.7175999765835  0.5902305752608  0.2000480686075 1.0
C      1  0.2000486411497  0.7176007025859  0.5902304816306 1.0
C      1  0.5902304624171  0.2000478421998  0.7175995169236 1.0
C      1  0.2823990347276  0.5902298457253  0.7999517624866 1.0
C      1  0.7176007038119  0.4097695345981  0.7999515832704 1.0
C      1  0.2823991118947  0.4097702966796  0.2000479146541 1.0
C      1  0.7999518525980  0.7176010808677  0.4097702331910 1.0
C      1  0.2000485594344  0.2823986033351  0.4097693672748 1.0
C      1  0.7999517216455  0.2823988184185  0.5902297009634 1.0
C      1  0.4097698587508  0.2000482180354  0.2823992468461 1.0
C      1  0.5902306131213  0.7999520692845  0.2824001815975 1.0
C      1  0.4097702258654  0.7999518175148  0.7176006928691 1.0
C      1  0.3413001041139  0.3200810115407  0.3978060212958 1.0
C      1  0.3978061790834  0.3413001333832  0.3200805079279 1.0
C      1  0.3200807439071  0.3978063031076  0.3412996692410 1.0
C      1  0.6587003614012  0.3200818549922  0.6021931885049 1.0
C      1  0.3413002678976  0.6799189927581  0.6021940460526 1.0
C      1  0.6587005152365  0.6799179502464  0.3978066172937 1.0
C      1  0.6021940930411  0.3412998652417  0.6799183355206 1.0
C      1  0.3978063705782  0.6587000355308  0.6799193366732 1.0
C      1  0.6021939900452  0.6587002911469  0.3200825759233 1.0
C      1  0.6799191143687  0.3978059619695  0.6586999030694 1.0
C      1  0.3200811020217  0.6021937972622  0.6587001460747 1.0
C      1  0.6799187588676  0.6021941965045  0.3413000994312 1.0
C      1  0.4793424755675  0.6810388899226  0.4160799543326 1.0
C      1  0.4160768066288  0.4793407244495  0.6810369067818 1.0
C      1  0.6810375726869  0.4160791030058  0.4793413239441 1.0
C      1  0.5206596798820  0.6810366306277  0.5839241302886 1.0
C      1  0.4793408175027  0.3189627794250  0.5839227643042 1.0
C      1  0.5206597398124  0.3189634363522  0.4160755783569 1.0
C      1  0.5839234925806  0.4793410338347  0.3189628995013 1.0
C      1  0.4160759056587  0.5206598706007  0.3189633925433 1.0
C      1  0.5839236131813  0.5206589400883  0.6810368102993 1.0
C      1  0.3189631291764  0.4160763669178  0.5206591583267 1.0
C      1  0.6810377242947  0.5839207411383  0.5206586002388 1.0
C      1  0.3189630696395  0.5839235170822  0.4793407893410 1.0
C      1  0.5250286058029  0.3959005535542  0.5424981334585 1.0
C      1  0.5424982564969  0.5250288280505  0.3959006423629 1.0
C      1  0.3959008099914  0.5424984973227  0.5250289191873 1.0
C      1  0.4749713362509  0.3959009116272  0.4575006461644 1.0
C      1  0.5250290084005  0.6040988904626  0.4575026374538 1.0
C      1  0.4749710478108  0.6040984163042  0.5424996416132 1.0
C      1  0.4575012470764  0.5250286189587  0.6040989011089 1.0
C      1  0.5424987544006  0.4749711696213  0.6040990200337 1.0
C      1  0.4575007507944  0.4749714274443  0.3959009660119 1.0
C      1  0.6040983570972  0.5424984240774  0.4749712895672 1.0
C      1  0.3959008576013  0.4575011583739  0.4749711423414 1.0
C      1  0.6040983788849  0.4575014657646  0.5250286358067 1.0
C      1  0.1779618770774  0.5203456087134  0.3001806413705 1.0
C      1  0.3001825934164  0.1779634926954  0.5203479643323 1.0
C      1  0.5203458960990  0.3001811469716  0.1779613213999 1.0
C      1  0.8220364051177  0.5203470938052  0.6998141766753 1.0
C      1  0.1779650841241  0.4796510587581  0.6998142104554 1.0
C      1  0.8220363622973  0.4796529400316  0.3001857876988 1.0
C      1  0.6998120992829  0.1779673434219  0.4796482678489 1.0
C      1  0.3001861990509  0.8220361655267  0.4796523732059 1.0
C      1  0.6998123031459  0.8220321123159  0.5203514715590 1.0
C      1  0.4796508395115  0.3001848986500  0.8220335384202 1.0
C      1  0.5203465124565  0.6998173441995  0.8220378905611 1.0
C      1  0.4796478906264  0.6998134938449  0.1779691650292 1.0
C      1  0.8239752914625  0.6427450090446  0.3544783113345 1.0
C      1  0.3544786086243  0.8239753415752  0.6427444810664 1.0
C      1  0.6427439469241  0.3544772155185  0.8239749104052 1.0
C      1  0.1760248313468  0.6427439370355  0.6455217449403 1.0
C      1  0.8239754531118  0.3572550130278  0.6455214113787 1.0
C      1  0.1760245462403  0.3572547837068  0.3544774865140 1.0
C      1  0.6455222359472  0.8239752383912  0.3572570964410 1.0
C      1  0.3544778490540  0.1760245676680  0.3572557980925 1.0
C      1  0.6455218746835  0.1760248638794  0.6427426136348 1.0
C      1  0.3572553404676  0.3544783631478  0.1760244683703 1.0
C      1  0.6427427899687  0.6455228706840  0.1760253813694 1.0
C      1  0.3572556879518  0.6455210769434  0.8239754450806 1.0
C      1  0.2442543505690  0.7361338446572  0.4887423951190 1.0
C      1  0.4887419867236  0.2442530246860  0.7361322237274 1.0
C      1  0.7361335636547  0.4887425693865  0.2442542511384 1.0
C      1  0.7557464615674  0.7361315008107  0.5112580257208 1.0
C      1  0.2442529718684  0.2638667012413  0.5112574811544 1.0
C      1  0.7557462309251  0.2638680554452  0.4887419290290 1.0
C      1  0.5112574000290  0.2442531955884  0.2638661059657 1.0
C      1  0.4887420471416  0.7557469062834  0.2638690608520 1.0
C      1  0.5112575425120  0.7557466529604  0.7361335924820 1.0
C      1  0.2638668056833  0.4887421890390  0.7557465363504 1.0
C      1  0.7361336791128  0.5112572763466  0.7557456876987 1.0
C      1  0.2638664648077  0.5112575584270  0.2442526790160 1.0
C      1  0.5661082261089  0.0951433628716  0.5168519683130 1.0
C      1  0.5168512329567  0.5661099528632  0.0951464101113 1.0
C      1  0.0951435602713  0.5168525282268  0.5661085802301 1.0
C      1  0.4338890182050  0.0951452464786  0.4831478860967 1.0
C      1  0.5661087095146  0.9048552934324  0.4831486824574 1.0
C      1  0.4338913898491  0.9048572626953  0.5168528396811 1.0
C      1  0.4831472674569  0.5661087281824  0.9048574963810 1.0
C      1  0.5168516435143  0.4338896539981  0.9048539726221 1.0
C      1  0.4831467172527  0.4338897140567  0.0951430015094 1.0
C      1  0.9048569334769  0.5168533978154  0.4338910801603 1.0
C      1  0.0951438905665  0.4831467128539  0.4338882596387 1.0
C      1  0.9048573916583  0.4831466747480  0.5661088031677 1.0
C      1  0.7155053972623  0.3840172868056  0.2435640316367 1.0
C      1  0.2435648245902  0.7155072733108  0.3840161777409 1.0
C      1  0.3840177371038  0.2435618613670  0.7155036589144 1.0
C      1  0.2844963393703  0.3840179669800  0.7564387770812 1.0
C      1  0.7155050382479  0.6159826204427  0.7564362321275 1.0
C      1  0.2844976595318  0.6159825514036  0.2435611350844 1.0
C      1  0.7564393944487  0.7155035431716  0.6159814266392 1.0
C      1  0.2435619028864  0.2844964207336  0.6159821760318 1.0
C      1  0.7564396255659  0.2844962334245  0.3840185756873 1.0
C      1  0.6159824814152  0.2435615667465  0.2844970089439 1.0
C      1  0.3840189307564  0.7564397812596  0.2844966007270 1.0
C      1  0.6159822676074  0.7564387059732  0.7155027432513 1.0
C      1  0.6271430629274  0.3357358638899  0.2404749890971 1.0
C      1  0.2404756100308  0.6271432740073  0.3357355133883 1.0
C      1  0.3357352624733  0.2404716672563  0.6271402903497 1.0
C      1  0.3728610237545  0.3357349951165  0.7595299557862 1.0
C      1  0.6271422949520  0.6642646464708  0.7595258160291 1.0
C      1  0.3728634473758  0.6642669043773  0.2404675893703 1.0
C      1  0.7595297303414  0.6271398677534  0.6642633581024 1.0
C      1  0.2404709165298  0.3728602750978  0.6642653650458 1.0
C      1  0.7595302485717  0.3728602488500  0.3357368052940 1.0
C      1  0.6642665942015  0.2404680630763  0.3728624894401 1.0
C      1  0.3357370921668  0.7595302418284  0.3728604611044 1.0
C      1  0.6642664494331  0.7595320403946  0.6271371188703 1.0
C      1  0.7175360322693  0.2484977070717  0.6397743643440 1.0
C      1  0.6397756262045  0.7175363974534  0.2484989697520 1.0
C      1  0.2484976437118  0.6397750454519  0.7175362921808 1.0
C      1  0.2824641663348  0.2484976542606  0.3602238021054 1.0
C      1  0.7175361514993  0.7515023152156  0.3602256971180 1.0
C      1  0.2824639386620  0.7515020471989  0.6397764160434 1.0
C      1  0.3602248594338  0.7175364290066  0.7515026173901 1.0
C      1  0.6397759948900  0.2824631519575  0.7515012286782 1.0
C      1  0.3602237425145  0.2824636452415  0.2484976845476 1.0
C      1  0.7515018484501  0.6397763495412  0.2824633927740 1.0
C      1  0.2484975530539  0.3602248335479  0.2824631872659 1.0
C      1  0.7515024017580  0.3602238984706  0.7175362118621 1.0
END
