TITL C-230839-5919-9 -5.715 3375.00 -1062.64799082 0 0 129 (C1) n - 1
REM
REM Run started: at 2021.01.02 22:29:37 in /rds/project/t2_vol4/rds-t2-cs072/BORA/CARBON/AIRSS/Generating-Clusters/Str-Search/Higher-Symm/C100-200
REM VASP from code version vasp.5.4.4.18Apr17-6-g9f103f2a35 (build Oct 11 2019 16:45:47) gamma-only
REM
REM
REM
REM
REM ./C.cell (533062f00bc710175b3da973d35f2034)
REM AIRSS Version 0.9.1 bugfix July 2018 build 013d7b7c2542+ Fri, 06 Jul 2018 19:26:36 +0100
REM compiler GCC version 4.8.5 20150623 (Red Hat 4.8.5-39)
REM options -cpp -mtune=generic -march=x86-64 -g -O0
REM seed -909931664 -2076017228 -719992305 1196265980 -708544779 7775386 -488794232 -946641762 -1069417335 -92552633 1160206080 1520044091
REM
REM C.POTCAR (d86ddea03c3ceb6dc662c8ad6801f873)
REM 
CELL 1.54180   15.00000   15.00000   15.00000   90.00000   90.00000   90.00000
LATT -1
SFAC C  
C      1  0.4176147402677  0.4534486876179  0.7682149692399 1.0
C      1  0.2317834469901  0.4531075909198  0.6052622219847 1.0
C      1  0.2453670709642  0.4559491662903  0.3592557510893 1.0
C      1  0.4476830790200  0.4475004979679  0.2187736941743 1.0
C      1  0.6879969915757  0.4564778745685  0.2826224028133 1.0
C      1  0.7901478248569  0.4589633130319  0.5081982608397 1.0
C      1  0.6669336400757  0.4475845697050  0.7285163872290 1.0
C      1  0.2186754236389  0.3914688739872  0.4371646882794 1.0
C      1  0.3663413692998  0.3886892585734  0.2479409207876 1.0
C      1  0.6137666275359  0.3868635847281  0.2429419230154 1.0
C      1  0.7770019108848  0.3993123889817  0.4187110977109 1.0
C      1  0.7363455808024  0.3953791133419  0.6656642419990 1.0
C      1  0.4961701174150  0.3848672646229  0.7760530879927 1.0
C      1  0.2754754085410  0.3921838178908  0.6752626669379 1.0
C      1  0.3877590289218  0.6818386167744  0.7209046788425 1.0
C      1  0.2204608583434  0.6756721181706  0.5562563899051 1.0
C      1  0.2982953850060  0.6818058127291  0.3376017653831 1.0
C      1  0.4966918178866  0.6709958937047  0.2168754860623 1.0
C      1  0.6878234793687  0.6856568599470  0.3419623254400 1.0
C      1  0.7608361474679  0.6800183949461  0.5595425374111 1.0
C      1  0.6145607073268  0.6726404191938  0.7425108130406 1.0
C      1  0.3725766337493  0.2006502339607  0.5249136201990 1.0
C      1  0.3949543313642  0.2010615275116  0.4308610861431 1.0
C      1  0.4835707717575  0.1981063441780  0.3825002751117 1.0
C      1  0.5699700366946  0.1892761010991  0.4193989598990 1.0
C      1  0.6826173601919  0.1706403135909  0.5567251067431 1.0
C      1  0.5228188914911  0.1861978588546  0.6096357534451 1.0
C      1  0.4298451654306  0.1960610136508  0.6052231503468 1.0
C      1  0.5409160037301  0.7724225944299  0.3494066496877 1.0
C      1  0.6353660570664  0.7796874165046  0.4838486980345 1.0
C      1  0.6492762643189  0.7853045558636  0.6219828246358 1.0
C      1  0.5137224227106  0.7752445763559  0.6398245096502 1.0
C      1  0.3630232706420  0.7723872120864  0.5765160568609 1.0
C      1  0.3431688062107  0.7687040421175  0.4808185710177 1.0
C      1  0.4438803318779  0.7722141092882  0.3482175035722 1.0
C      1  0.3590866509384  0.7498622638608  0.3862036243305 1.0
C      1  0.4944720459802  0.7426637858780  0.2741696533733 1.0
C      1  0.6267167932901  0.7535709549924  0.3915291542696 1.0
C      1  0.7043476662877  0.7546522306360  0.5523704332108 1.0
C      1  0.5945917701763  0.7492248018127  0.6924617004623 1.0
C      1  0.4204948508042  0.7495329141061  0.6508009733473 1.0
C      1  0.2790420295770  0.7450724705409  0.5448845939326 1.0
C      1  0.2120964706368  0.6115820736994  0.4766499409683 1.0
C      1  0.3402751639336  0.6122924867891  0.2654903929701 1.0
C      1  0.5753608394133  0.6077806862021  0.2263501813119 1.0
C      1  0.7528728545804  0.6195102632090  0.3950479765485 1.0
C      1  0.7466175146272  0.6123382015535  0.6393123206041 1.0
C      1  0.5413404815522  0.6072194730507  0.7717335198243 1.0
C      1  0.3068518113356  0.6141069816142  0.6974475695815 1.0
C      1  0.5891716456474  0.3049997951307  0.2849839356239 1.0
C      1  0.7197452343417  0.3230387162490  0.4291239861743 1.0
C      1  0.7197938421078  0.3147803349145  0.6109231181648 1.0
C      1  0.4831749939398  0.2984792053469  0.7338441944045 1.0
C      1  0.3074816482945  0.3082993439203  0.6458227268618 1.0
C      1  0.2618463774080  0.3086493460990  0.4489159756328 1.0
C      1  0.3827073966060  0.3050613606199  0.2904693841693 1.0
C      1  0.3992867952096  0.3415876670278  0.4333692435761 1.0
C      1  0.4839550713086  0.3396350843715  0.3864614743171 1.0
C      1  0.5701271010599  0.3313684742443  0.4288620601038 1.0
C      1  0.6800061795589  0.3374484590473  0.5199999936695 1.0
C      1  0.5506937079072  0.3256920551119  0.6018333610296 1.0
C      1  0.4509364138941  0.3379993876047  0.6024000583589 1.0
C      1  0.3854232378426  0.3415530970243  0.5296087775841 1.0
C      1  0.6272851921788  0.4322241479962  0.5119700996510 1.0
C      1  0.5672515668707  0.4281067636105  0.5923558107438 1.0
C      1  0.4646661713127  0.4376950605930  0.6020835246358 1.0
C      1  0.3889886205355  0.4417371606221  0.5357900249045 1.0
C      1  0.3970417741255  0.4424793108905  0.4382755375471 1.0
C      1  0.4835324232580  0.4403820108570  0.3891872420542 1.0
C      1  0.5804902990633  0.4324754706270  0.4232958947199 1.0
C      1  0.6111752354088  0.4950264036989  0.6531379711635 1.0
C      1  0.4447968392345  0.4985772194179  0.6781456239264 1.0
C      1  0.3183795042496  0.5017340241689  0.5685795013848 1.0
C      1  0.3281079077368  0.5030620135473  0.4031438442575 1.0
C      1  0.4663968753965  0.4977951430328  0.3098325741250 1.0
C      1  0.6269573262916  0.4957368578120  0.3567335076295 1.0
C      1  0.6948701216535  0.5032068075593  0.5095539795604 1.0
C      1  0.6674255927556  0.6327473290434  0.2622355041237 1.0
C      1  0.7977587140916  0.6309858567380  0.4868164309171 1.0
C      1  0.6959409381421  0.6198985706778  0.7306764964671 1.0
C      1  0.4412566487190  0.6285515935985  0.7823153011788 1.0
C      1  0.2236719745691  0.6223926865658  0.6361398383591 1.0
C      1  0.2257839281847  0.6309275031718  0.3759856281211 1.0
C      1  0.4191225973838  0.6179121160476  0.2000460769750 1.0
C      1  0.6669040076774  0.5568508300386  0.5907955876774 1.0
C      1  0.5304896475460  0.5533549016331  0.6817588049831 1.0
C      1  0.3708804492713  0.5572087846639  0.6350722636916 1.0
C      1  0.3062042325732  0.5606765265102  0.4853854693239 1.0
C      1  0.3889239643078  0.5575386041240  0.3415051742151 1.0
C      1  0.5502061568549  0.5539007354191  0.3163557185013 1.0
C      1  0.6730730156593  0.5566057939319  0.4265480808687 1.0
C      1  0.3154587419474  0.4439466378320  0.7471061180896 1.0
C      1  0.1852538728897  0.4407038750877  0.5131184148498 1.0
C      1  0.2888192074467  0.4432916162653  0.2660186500630 1.0
C      1  0.5480598870270  0.4357463010838  0.1925682444687 1.0
C      1  0.7753572773152  0.4518351629726  0.3399504672317 1.0
C      1  0.7923133546248  0.4488823642458  0.6137007772158 1.0
C      1  0.5805152104472  0.4330391705406  0.7907740405984 1.0
C      1  0.5479558052760  0.5282350706957  0.1660339651636 1.0
C      1  0.7857904692335  0.5479966379629  0.3280439885495 1.0
C      1  0.8175780450509  0.5427876963249  0.6186460876752 1.0
C      1  0.5922228879348  0.5276165352253  0.8156284838961 1.0
C      1  0.3079395179368  0.5396204097458  0.7677180735351 1.0
C      1  0.1598415208315  0.5331282694855  0.5182456894823 1.0
C      1  0.2706036931025  0.5391009592738  0.2508724546059 1.0
C      1  0.5536673848045  0.2561653198244  0.6746538378036 1.0
C      1  0.4036051837660  0.2750938584970  0.6695007451623 1.0
C      1  0.3067711604813  0.2790555380126  0.5433248914862 1.0
C      1  0.3388956890702  0.2760032075891  0.3855319668121 1.0
C      1  0.4826251708788  0.2751073169363  0.3104626349854 1.0
C      1  0.6326228060899  0.2762251258422  0.3736264932957 1.0
C      1  0.7196867737848  0.2211489869054  0.6142817064055 1.0
C      1  0.5929078155316  0.6106508515740  0.5500104457862 1.0
C      1  0.5165841068397  0.6088288139793  0.6002683899721 1.0
C      1  0.4282784309628  0.6103287769990  0.5734174342096 1.0
C      1  0.3908165872300  0.6144355987313  0.4899278980218 1.0
C      1  0.4373681796255  0.6118138568963  0.4099805010354 1.0
C      1  0.5272782818693  0.6088129899067  0.3964943144823 1.0
C      1  0.5951735163077  0.6083974653081  0.4588348075894 1.0
C      1  0.8334784936669  0.5504935140274  0.5249757898993 1.0
C      1  0.6800608223589  0.5374099268827  0.7760303189526 1.0
C      1  0.3937032630293  0.5479933418864  0.8080338630113 1.0
C      1  0.1815666020783  0.5414800430368  0.6132622678236 1.0
C      1  0.2118191057195  0.5490188795478  0.3247013284922 1.0
C      1  0.4506843481717  0.5356089871621  0.1661965721444 1.0
C      1  0.7230434719391  0.5540920042797  0.2572553585258 1.0
C      1  0.5745193430265  0.8052940878826  0.5645508580121 1.0
C      1  0.5900859556037  0.1888614438910  0.5228906414649 1.0
C      1  0.5916946993637  0.2923375992212  0.5195050675647 1.0
END
