TITL C-23795-7880-3 -9.164 3375.00 -1818.18694082 0 0 220 (C1) n - 1
REM
REM Run started: at 2020.11.22 03:57:24 in /rds/project/t2_vol4/rds-t2-cs072/BORA/CARBON/AIRSS/Generating-Clusters/Str-Search/Higher-Symm
REM VASP from code version vasp.5.4.4.18Apr17-6-g9f103f2a35 (build Oct 11 2019 16:45:47) gamma-only
REM
REM
REM
REM
REM ./C.cell (e5ae0387ce4d49c7c0135a1433873289)
REM AIRSS Version 0.9.1 bugfix July 2018 build 013d7b7c2542+ Fri, 06 Jul 2018 19:26:36 +0100
REM compiler GCC version 4.8.5 20150623 (Red Hat 4.8.5-39)
REM options -cpp -mtune=generic -march=x86-64 -g -O0
REM seed -6763077 1787859159 1079773739 -39258196 -1128243999 851904117 -574088144 -475794281 -1784411383 -749906579 -349670096 1792872322
REM
REM C.POTCAR (d86ddea03c3ceb6dc662c8ad6801f873)
REM 
CELL 1.54180   15.00000   15.00000   15.00000   90.00000   90.00000   90.00000
LATT -1
SFAC C  
C      1  0.3871793121903  0.3994471096251  0.4315817451415 1.0
C      1  0.6452626566758  0.4414528959170  0.4401857536685 1.0
C      1  0.4860184227074  0.6524024080572  0.4214661854881 1.0
C      1  0.3918636905554  0.6024711351637  0.4267985492336 1.0
C      1  0.6510642165614  0.5458137370438  0.4440147645320 1.0
C      1  0.4820815529854  0.3458734058723  0.4264636494441 1.0
C      1  0.5237543322963  0.7395915972047  0.5598881604879 1.0
C      1  0.2668844909380  0.4097769476889  0.5510179432823 1.0
C      1  0.7029032505203  0.3546264030590  0.5832733113194 1.0
C      1  0.4804680587867  0.2721377379725  0.5561457423198 1.0
C      1  0.2720475937816  0.6052309025766  0.5475228322754 1.0
C      1  0.7075608459071  0.6415851951957  0.5803934824072 1.0
C      1  0.4600248704401  0.2839712812733  0.6500124345530 1.0
C      1  0.6916954098218  0.6265787028385  0.6916187610460 1.0
C      1  0.2887246578488  0.6037307323992  0.6549538646787 1.0
C      1  0.4791096049480  0.7272193127130  0.6480029059045 1.0
C      1  0.6882917410932  0.3770370146996  0.6921311042850 1.0
C      1  0.2841829630315  0.4117043566569  0.6575128026691 1.0
C      1  0.7913754663399  0.7330178385839  0.3515571872137 1.0
C      1  0.1401725767687  0.6304085352318  0.3313968807056 1.0
C      1  0.5633692343739  0.1352742796396  0.3452032438996 1.0
C      1  0.7750408528470  0.2406534470192  0.3366441572779 1.0
C      1  0.1362683333643  0.3819983338467  0.3370154722302 1.0
C      1  0.5788956683850  0.8655654086182  0.3320181401163 1.0
C      1  0.3524569400506  0.5550281583584  0.5083368759601 1.0
C      1  0.5340071384083  0.3467179100198  0.5136371272059 1.0
C      1  0.6275216647561  0.6004065009965  0.5302713611820 1.0
C      1  0.3500086322270  0.4534012672570  0.5099797036723 1.0
C      1  0.5386108050991  0.6519949149431  0.5086740740428 1.0
C      1  0.6247005875372  0.3936305938018  0.5332845211583 1.0
C      1  0.4697966925724  0.5989221172233  0.8082509100507 1.0
C      1  0.3802894701068  0.4556081741549  0.7858524222772 1.0
C      1  0.5556741423277  0.4507006329831  0.7836967317230 1.0
C      1  0.4657728371393  0.4106161754938  0.8090704646682 1.0
C      1  0.3830922154983  0.5571324636002  0.7839818447458 1.0
C      1  0.5581473851473  0.5545078297213  0.7808925024227 1.0
C      1  0.3549220955027  0.6959435937298  0.4446931734025 1.0
C      1  0.4337187194962  0.2630973772874  0.4567216321686 1.0
C      1  0.7489782546570  0.5298883187656  0.4685898105079 1.0
C      1  0.3456560973244  0.3105812731974  0.4556718405811 1.0
C      1  0.4376152051122  0.7396793385847  0.4318273981605 1.0
C      1  0.7440250688320  0.4381310079770  0.4545893083363 1.0
C      1  0.4169206581767  0.4520143005274  0.5865346432644 1.0
C      1  0.5789123047621  0.4507475977924  0.6099800812384 1.0
C      1  0.5032572092132  0.5744248274967  0.5541889641870 1.0
C      1  0.4182746471329  0.5545230812535  0.5855491417716 1.0
C      1  0.5800081266646  0.5520073896288  0.6096355436266 1.0
C      1  0.5018144976533  0.4293525143627  0.5544464114287 1.0
C      1  0.3776586630359  0.8067810452805  0.2389886739491 1.0
C      1  0.2936445139184  0.2357993206769  0.2501031191820 1.0
C      1  0.8304543370056  0.4416764207134  0.2461300557530 1.0
C      1  0.3652093505296  0.1930965766774  0.2477644921450 1.0
C      1  0.3043513801846  0.7674989882015  0.2425182805145 1.0
C      1  0.8324139498703  0.5250107925367  0.2553959409479 1.0
C      1  0.8777071185346  0.7195952172823  0.5830718045043 1.0
C      1  0.1378774605770  0.7280259926352  0.5790497592722 1.0
C      1  0.4923672004137  0.0481061838807  0.5809158936088 1.0
C      1  0.8886919601123  0.2747517637412  0.5711630044074 1.0
C      1  0.1277410210090  0.2936903367050  0.5844710449772 1.0
C      1  0.4974058232223  0.9409226896339  0.5823883241095 1.0
C      1  0.2648762451788  0.1795485512364  0.7161036975137 1.0
C      1  0.8913211623640  0.4533052737937  0.7179603432380 1.0
C      1  0.3496757969137  0.8800169276120  0.7263755613706 1.0
C      1  0.2754865274760  0.8363522188194  0.7176273344431 1.0
C      1  0.8927204954697  0.5422151965310  0.7221693445358 1.0
C      1  0.3400244560693  0.1357919583719  0.7196628868511 1.0
C      1  0.2734807790228  0.3181789115207  0.5128793825270 1.0
C      1  0.7771782894797  0.3602265387610  0.5076572195710 1.0
C      1  0.4856994175606  0.8038829108270  0.4906918353599 1.0
C      1  0.2816556656097  0.6947383221662  0.5056967627319 1.0
C      1  0.7838134154358  0.5965362681172  0.5333557003830 1.0
C      1  0.4843506788138  0.1885814356610  0.5044864657917 1.0
C      1  0.5904560602733  0.6065336389017  0.6955278307090 1.0
C      1  0.3711431797954  0.5542346603179  0.6717782095223 1.0
C      1  0.5385753473296  0.3075674697925  0.7127950877554 1.0
C      1  0.5866533526841  0.3998465635618  0.6969384416290 1.0
C      1  0.3691084525618  0.4565099071397  0.6730032553976 1.0
C      1  0.5474031948090  0.7005362255595  0.7152745796590 1.0
C      1  0.5394182054234  0.1791695489351  0.2636342680068 1.0
C      1  0.7630585582133  0.6860248204596  0.2736487062814 1.0
C      1  0.2054208229775  0.6239859999040  0.2606495648269 1.0
C      1  0.5536536757054  0.8148875330968  0.2551469143583 1.0
C      1  0.7488839690438  0.2859390373694  0.2557614860126 1.0
C      1  0.2002467950105  0.3833815694016  0.2648556074844 1.0
C      1  0.7350178269542  0.7947196260024  0.4025282168138 1.0
C      1  0.1073127753937  0.5595313146506  0.3855960723823 1.0
C      1  0.6289773984321  0.1674124013978  0.4093799146461 1.0
C      1  0.7161747882961  0.2110252674453  0.4071637848341 1.0
C      1  0.1050925767139  0.4572382235312  0.3872913761218 1.0
C      1  0.6439015686420  0.8387601284056  0.3956653265117 1.0
C      1  0.5775357092237  0.2618193254009  0.2449124352522 1.0
C      1  0.6720518894719  0.6821664898140  0.2496265297983 1.0
C      1  0.2602514683027  0.5492622486207  0.2498397642875 1.0
C      1  0.5921162954339  0.7293311090767  0.2444581678117 1.0
C      1  0.6590405635911  0.3040493870804  0.2434407458490 1.0
C      1  0.2576571761059  0.4555417008606  0.2508968647065 1.0
C      1  0.9414990386659  0.5182679594195  0.4627481724923 1.0
C      1  0.2586226686085  0.8428720173556  0.4608373009796 1.0
C      1  0.3297836351725  0.1193766705253  0.4721092137262 1.0
C      1  0.9180714776613  0.4271503085866  0.4481134896747 1.0
C      1  0.2468973207022  0.1670604950318  0.4728636379623 1.0
C      1  0.3425572534100  0.8848475875492  0.4617097368387 1.0
C      1  0.0798462060094  0.4650092108209  0.6628407353797 1.0
C      1  0.7696884637328  0.1440624304639  0.6529018184297 1.0
C      1  0.6815230369663  0.8925590874281  0.6688974194829 1.0
C      1  0.0811206338003  0.5627246767612  0.6635413999656 1.0
C      1  0.7682405218367  0.8508726671413  0.6690279383480 1.0
C      1  0.6753548458054  0.1130179489309  0.6445212408065 1.0
C      1  0.6318663700750  0.1869506603353  0.5841033727762 1.0
C      1  0.6980727935665  0.7377066057584  0.5496907357567 1.0
C      1  0.1939202399668  0.5545447918350  0.5164712662837 1.0
C      1  0.6171327255944  0.7772630400656  0.5487099280671 1.0
C      1  0.7050590413186  0.2557268338902  0.5798494478298 1.0
C      1  0.1926540811062  0.4639926124730  0.5181119965541 1.0
C      1  0.2224719121353  0.4576235626865  0.7332543068626 1.0
C      1  0.6945977118200  0.2803800947109  0.7254878206709 1.0
C      1  0.6188716922338  0.7656613357203  0.7328279562105 1.0
C      1  0.2250340035491  0.5634054352863  0.7317915982671 1.0
C      1  0.7021815688044  0.7213205896328  0.7298094628293 1.0
C      1  0.6110859632637  0.2414668303155  0.7256136247080 1.0
C      1  0.3017121742524  0.3312828854395  0.7190000984553 1.0
C      1  0.7150513974921  0.4531993512958  0.7521913433191 1.0
C      1  0.4073352845245  0.7132408664192  0.7063757509014 1.0
C      1  0.3110483687878  0.6846213390268  0.7128589689857 1.0
C      1  0.7176384274728  0.5465639646311  0.7505506897025 1.0
C      1  0.3957558830011  0.2981838334490  0.7146092403513 1.0
C      1  0.0741732692203  0.3577006853617  0.5389032128196 1.0
C      1  0.8450282093486  0.2014136415544  0.5296612138937 1.0
C      1  0.5858819856570  0.9351122663109  0.5293638383451 1.0
C      1  0.0799252936760  0.6669573968589  0.5352243003555 1.0
C      1  0.8515054483292  0.7979759034641  0.5392280430967 1.0
C      1  0.5810096636715  0.0526065144436  0.5271209726947 1.0
C      1  0.9022379066474  0.6091592450858  0.4387037128087 1.0
C      1  0.1957850003399  0.7853089373477  0.4176103231303 1.0
C      1  0.4043015976542  0.0873080983062  0.4218457840975 1.0
C      1  0.8933571766255  0.3490433026440  0.4093765099566 1.0
C      1  0.1869478356158  0.2259241857755  0.4261048582126 1.0
C      1  0.4206380779202  0.9152187566730  0.4138952335386 1.0
C      1  0.8158699578412  0.1187166434501  0.5757140905794 1.0
C      1  0.6703232819554  0.9455299731940  0.5874769296077 1.0
C      1  0.0340914941692  0.4364311536319  0.5832270488320 1.0
C      1  0.8155490278995  0.8738930637401  0.5859935597781 1.0
C      1  0.6666400872620  0.0434195352781  0.5793037088726 1.0
C      1  0.0368454477201  0.5945111036988  0.5844581885365 1.0
C      1  0.4638634695646  0.3258039728309  0.7778432214558 1.0
C      1  0.6498906177620  0.5383412744808  0.8226364933691 1.0
C      1  0.2978291846993  0.6098038128017  0.7873931875498 1.0
C      1  0.4698605173038  0.6829979591791  0.7747241001648 1.0
C      1  0.6492649915151  0.4447814300004  0.8384335682781 1.0
C      1  0.2921519115681  0.4085568191868  0.7908943074223 1.0
C      1  0.1446140134321  0.6176500037892  0.7031557903862 1.0
C      1  0.5926103333532  0.1553797305919  0.6783033983515 1.0
C      1  0.7833252516779  0.7649931235476  0.7073509269256 1.0
C      1  0.1399156301191  0.4068911690545  0.7046653743934 1.0
C      1  0.6029237293870  0.8576389946741  0.7068612280980 1.0
C      1  0.7695028061674  0.2395569315470  0.6730288549762 1.0
C      1  0.7652928879285  0.7824294603984  0.4938680946140 1.0
C      1  0.1194795953877  0.5978963226296  0.4745027020672 1.0
C      1  0.5846225392967  0.1526636681178  0.4984789293476 1.0
C      1  0.7581347083388  0.2470426909222  0.4925433394935 1.0
C      1  0.1171645688898  0.4220280598138  0.4769772926792 1.0
C      1  0.5916133527236  0.8460194268948  0.4813341770593 1.0
C      1  0.8612585152659  0.6525907298335  0.3663793947601 1.0
C      1  0.1756880041768  0.7273784596509  0.3462092452155 1.0
C      1  0.4638629981869  0.1074554720950  0.3526491561893 1.0
C      1  0.8513967671343  0.3049892936432  0.3409417360845 1.0
C      1  0.1673079856431  0.2826365271588  0.3537748619368 1.0
C      1  0.4789890732537  0.8931990702717  0.3432578765275 1.0
C      1  0.4211644486909  0.5451104889267  0.0807720979109 1.0
C      1  0.5051624919298  0.4022592565990  0.0815483835855 1.0
C      1  0.5887185657503  0.5463463405203  0.0824557438996 1.0
C      1  0.4184399226446  0.4538050877735  0.0807535472422 1.0
C      1  0.5102456187764  0.5930480667158  0.0813563730800 1.0
C      1  0.5854670121551  0.4457653439401  0.0827390409356 1.0
C      1  0.4591958633951  0.8416224601372  0.2625794238074 1.0
C      1  0.2231455496089  0.2890408795626  0.2738528856954 1.0
C      1  0.8217962735614  0.3512652740794  0.2603756343149 1.0
C      1  0.4450819369416  0.1541555073936  0.2696986262951 1.0
C      1  0.2313533225795  0.7178889775185  0.2666234162150 1.0
C      1  0.8269004637733  0.6127915110169  0.2826888841903 1.0
C      1  0.8774061865940  0.3539106629218  0.5072692849314 1.0
C      1  0.4344012434591  0.8883852324023  0.5109014529673 1.0
C      1  0.2027456573489  0.2503038817969  0.5223751071234 1.0
C      1  0.8630621947315  0.6401628021959  0.5255023253729 1.0
C      1  0.4259786819882  0.1065233691857  0.5170775367673 1.0
C      1  0.2131976920773  0.7641482616341  0.5148463945924 1.0
C      1  0.1491657057694  0.3113531124781  0.6777712896557 1.0
C      1  0.8571945843884  0.2909584061349  0.6610744090711 1.0
C      1  0.5123007731549  0.8967677914419  0.6781765956243 1.0
C      1  0.1582251787227  0.7106592353415  0.6724600618179 1.0
C      1  0.8586074196566  0.7075716798940  0.6779631251367 1.0
C      1  0.5022295294111  0.1036445059864  0.6687937176198 1.0
C      1  0.4238553378693  0.1136268385550  0.7123403625400 1.0
C      1  0.8788376152117  0.6247575450390  0.7149042195533 1.0
C      1  0.2392057124129  0.7546057668458  0.7069209599923 1.0
C      1  0.4340085213427  0.8969165377493  0.7225879475226 1.0
C      1  0.8757564173860  0.3722641590341  0.7011978235274 1.0
C      1  0.2282602349645  0.2630366443383  0.7119300711311 1.0
C      1  0.3998802380873  0.5923181320447  0.1649774459958 1.0
C      1  0.4733397190074  0.3609990873415  0.1651035786868 1.0
C      1  0.6413458889081  0.5405499138793  0.1664749288114 1.0
C      1  0.3938044500280  0.4064965831368  0.1645185746440 1.0
C      1  0.4811447370613  0.6350495876860  0.1653729199302 1.0
C      1  0.6379424486224  0.4490555150579  0.1665342356195 1.0
C      1  0.5023928500661  0.3923819213840  0.3366495233164 1.0
C      1  0.5996363643916  0.5472968599641  0.3416598862876 1.0
C      1  0.4150907790945  0.5519722899594  0.3361690810932 1.0
C      1  0.5093557310421  0.6010182841143  0.3351653385145 1.0
C      1  0.5951477624199  0.4423660279684  0.3422752819676 1.0
C      1  0.4117466996600  0.4451953188819  0.3377170094667 1.0
C      1  0.6276707220956  0.5928960161557  0.2473604598548 1.0
C      1  0.3603473189361  0.5530272292905  0.2448854477123 1.0
C      1  0.5266894588614  0.3474542199203  0.2450327854747 1.0
C      1  0.6210840784090  0.3960981871966  0.2463250824906 1.0
C      1  0.3569864047403  0.4467897689421  0.2453773473152 1.0
C      1  0.5362420872952  0.6464041916933  0.2443300882444 1.0
C      1  0.9977501362604  0.5175242736091  0.5395862110686 1.0
C      1  0.7634806907622  0.0407634186154  0.5409281736543 1.0
C      1  0.7647399308111  0.9493321615334  0.5489873200450 1.0
C      1  0.5090161347192  0.5011112653874  0.4862277982613 1.0
END
