TITL C-232802-9822-1 -7.91 3375.00 -1394.45862855 0 0 169 (C1) n - 1
REM
REM Run started: at 2020.12.19 11:28:44 in /rds/project/t2_vol4/rds-t2-cs072/BORA/CARBON/AIRSS/Generating-Clusters/Str-Search/Higher-Symm/C100-200
REM VASP from code version vasp.5.4.4.18Apr17-6-g9f103f2a35 (build Oct 11 2019 16:45:47) gamma-only
REM
REM
REM
REM
REM ./C.cell (533062f00bc710175b3da973d35f2034)
REM AIRSS Version 0.9.1 bugfix July 2018 build 013d7b7c2542+ Fri, 06 Jul 2018 19:26:36 +0100
REM compiler GCC version 4.8.5 20150623 (Red Hat 4.8.5-39)
REM options -cpp -mtune=generic -march=x86-64 -g -O0
REM seed 748647932 -1592205444 983561719 1635476357 903006760 -652141238 616323494 -1661502638 -341595603 1167480151 447439409 -1054980796
REM
REM C.POTCAR (d86ddea03c3ceb6dc662c8ad6801f873)
REM 
CELL 1.54180   15.00000   15.00000   15.00000   90.00000   90.00000   90.00000
LATT -1
SFAC C  
C      1  0.7007781715594  0.5862448655859  0.2418249852397 1.0
C      1  0.5301817445822  0.5905288276981  0.1743438199496 1.0
C      1  0.3489743155668  0.5940163329451  0.2098547251681 1.0
C      1  0.2164368993947  0.5951927926338  0.3365969407974 1.0
C      1  0.1741955644588  0.5947118052935  0.5150586643088 1.0
C      1  0.2356414118344  0.5921168160643  0.6888326333981 1.0
C      1  0.3799502821304  0.5869428373889  0.8019705706027 1.0
C      1  0.5627750518812  0.5818128788037  0.8189780505879 1.0
C      1  0.7255321634114  0.5806938296895  0.7341946327697 1.0
C      1  0.8161525774109  0.5814887832027  0.5749716992049 1.0
C      1  0.8071614854870  0.5830079610935  0.3908758247353 1.0
C      1  0.4853685427637  0.9770200881626  0.3602079052535 1.0
C      1  0.4168804589809  0.9221695504779  0.4001005134065 1.0
C      1  0.3839840941160  0.9272964937672  0.4750763227244 1.0
C      1  0.3909494088364  0.9805905536517  0.5535083066419 1.0
C      1  0.4413837822935  0.9487919515946  0.6264253909880 1.0
C      1  0.5154893915948  0.9110094402659  0.6406812223117 1.0
C      1  0.6030099247125  0.8969055369194  0.6389074703869 1.0
C      1  0.6483155843267  0.8879351783874  0.5652470848950 1.0
C      1  0.6780839555643  0.8966385420609  0.4849027197977 1.0
C      1  0.6300943331685  0.9114204957666  0.4115503839613 1.0
C      1  0.5741511127242  0.9448232516440  0.3586182495478 1.0
C      1  0.4685608528260  0.2552521306418  0.7872290773269 1.0
C      1  0.6285237899203  0.2519889163368  0.7574101784930 1.0
C      1  0.7431338712349  0.2491942578202  0.6295909731695 1.0
C      1  0.8017044309882  0.2614070920409  0.4811319455008 1.0
C      1  0.7231612787145  0.2514548632385  0.3423189547772 1.0
C      1  0.5885347687167  0.2573249399019  0.2340251173921 1.0
C      1  0.4349573421456  0.2705046792834  0.1929494273894 1.0
C      1  0.3128671207716  0.2599670723279  0.2939743997390 1.0
C      1  0.2301712127806  0.2599232098652  0.4417715864940 1.0
C      1  0.2054902578691  0.2707614771958  0.5981587224746 1.0
C      1  0.3161453390627  0.2585876594087  0.7123656682642 1.0
C      1  0.3567974689580  0.4069336238545  0.2292554850517 1.0
C      1  0.2396411493313  0.3977461538942  0.3500926876866 1.0
C      1  0.1945299859890  0.4068815204951  0.5122896664051 1.0
C      1  0.2500490455636  0.4058178279999  0.6742592690355 1.0
C      1  0.3852601523828  0.3949578122587  0.7749197997828 1.0
C      1  0.5545341712049  0.3962849758134  0.7933672709926 1.0
C      1  0.7043396404883  0.3885410517194  0.7120473909395 1.0
C      1  0.7914026878727  0.3962865374104  0.5677786943644 1.0
C      1  0.7821539765381  0.3975978924137  0.3968995774037 1.0
C      1  0.6789237454787  0.3911073381101  0.2635304539777 1.0
C      1  0.5243931255974  0.4052467956941  0.1950083577434 1.0
C      1  0.5215654350242  0.3134170661961  0.1880608224175 1.0
C      1  0.3552901752434  0.3149187862476  0.2233797650121 1.0
C      1  0.2523589071465  0.3015879213661  0.3571860546179 1.0
C      1  0.1902629520521  0.3145974878576  0.5140252707751 1.0
C      1  0.2428966042373  0.3139472826649  0.6758654190163 1.0
C      1  0.3848222138664  0.3001923391600  0.7685245762653 1.0
C      1  0.5540357831073  0.3044295163710  0.7966999035675 1.0
C      1  0.7004590903050  0.2936081396379  0.7068191687794 1.0
C      1  0.7969972906627  0.3043780735952  0.5673449702554 1.0
C      1  0.7857458438540  0.3055500450277  0.3966699194593 1.0
C      1  0.6695419762550  0.2952206174454  0.2724155440151 1.0
C      1  0.7691524543651  0.7492033814519  0.7076929583814 1.0
C      1  0.8385025826171  0.7500750698509  0.5303890441899 1.0
C      1  0.8018536364876  0.7525104854808  0.3437485751881 1.0
C      1  0.6702991964125  0.7560624673314  0.2069312295822 1.0
C      1  0.4852466358758  0.7605872010713  0.1642781887635 1.0
C      1  0.3062817339454  0.7640096534182  0.2277964934948 1.0
C      1  0.1895900873487  0.7647700053839  0.3772377294165 1.0
C      1  0.1736669315925  0.7633251269505  0.5662756991008 1.0
C      1  0.2624227767694  0.7599162689118  0.7344812164117 1.0
C      1  0.4266641126018  0.7541059322162  0.8295370771922 1.0
C      1  0.6157673800250  0.7498270320915  0.8196503584857 1.0
C      1  0.7474757381119  0.7540188910086  0.2674084582303 1.0
C      1  0.5829867612114  0.7584716337710  0.1728616332232 1.0
C      1  0.3934651597821  0.7623465291411  0.1828270480235 1.0
C      1  0.2384663670379  0.7645300652678  0.2925557566938 1.0
C      1  0.1679708839609  0.7646530641258  0.4684078899713 1.0
C      1  0.2049519918948  0.7620123055234  0.6546175597000 1.0
C      1  0.3357131208244  0.7570096545155  0.7928280342765 1.0
C      1  0.5197679427590  0.7515259403037  0.8389446130553 1.0
C      1  0.6989161838453  0.7493956993608  0.7764010941899 1.0
C      1  0.8153586002010  0.7496880661225  0.6260955795085 1.0
C      1  0.8334093008606  0.7508238313612  0.4367855259629 1.0
C      1  0.3007274627527  0.5570919038246  0.2930812271895 1.0
C      1  0.2214325507112  0.5573155912326  0.4314384499937 1.0
C      1  0.2303452173659  0.5577659218619  0.5924635204214 1.0
C      1  0.3245072530416  0.5531532096543  0.7230337559908 1.0
C      1  0.4727501666585  0.5484526920485  0.7823250530440 1.0
C      1  0.6310219805465  0.5453579524999  0.7513475755584 1.0
C      1  0.7456803067398  0.5454934098619  0.6404124998102 1.0
C      1  0.7831741796768  0.5477145185448  0.4840299631004 1.0
C      1  0.7303509761896  0.5483257075903  0.3318759263873 1.0
C      1  0.6049147210997  0.5516538319627  0.2338701212427 1.0
C      1  0.4441488455640  0.5569842652412  0.2191229181564 1.0
C      1  0.5497535724478  0.1239365141750  0.3381182081946 1.0
C      1  0.4695697610913  0.0684137630221  0.3586978998937 1.0
C      1  0.3843400332583  0.1186548159557  0.3769570203497 1.0
C      1  0.3403627472993  0.1203982710287  0.4618210260790 1.0
C      1  0.3745450071390  0.0724943496042  0.5442781422794 1.0
C      1  0.3941326601525  0.1244315009008  0.6259999528784 1.0
C      1  0.4752089903745  0.1198518867041  0.6741288157984 1.0
C      1  0.5743028793165  0.1199424328871  0.6562812161497 1.0
C      1  0.6278931674562  0.1269890777029  0.5799336406592 1.0
C      1  0.5819958854215  0.1245329293069  0.4946003395823 1.0
C      1  0.6170456107769  0.1303085577692  0.4043140232046 1.0
C      1  0.3375783178457  0.4310102805452  0.5529889992432 1.0
C      1  0.3932419344379  0.4292785567615  0.6289099924840 1.0
C      1  0.4813614439716  0.4272607125933  0.6624537505152 1.0
C      1  0.5736453936999  0.4256130487028  0.6446624499973 1.0
C      1  0.6423635874427  0.4243954886767  0.5802864940908 1.0
C      1  0.6643064947759  0.4249908161309  0.4889342647946 1.0
C      1  0.6319947105424  0.4272650026211  0.4006349454159 1.0
C      1  0.5580254961398  0.4288729359905  0.3420227217273 1.0
C      1  0.4644213462786  0.4305447450537  0.3327637067175 1.0
C      1  0.3814655221558  0.4331195865483  0.3769622641714 1.0
C      1  0.3340179140251  0.4335331324750  0.4587766317366 1.0
C      1  0.4697942485235  0.6931271733066  0.3366871230452 1.0
C      1  0.3862197486036  0.6940950819493  0.3793844883601 1.0
C      1  0.3395923980402  0.6942601144046  0.4607176591026 1.0
C      1  0.3455128314839  0.6934637953913  0.5543755703693 1.0
C      1  0.4002458368382  0.6914735255219  0.6306870655523 1.0
C      1  0.4869096038296  0.6893548087382  0.6666379469853 1.0
C      1  0.5790641760546  0.6877474473838  0.6487579212794 1.0
C      1  0.6458583692240  0.6867265159313  0.5827701215923 1.0
C      1  0.6676323535103  0.6877699357601  0.4914878154380 1.0
C      1  0.6371281391743  0.6889652093439  0.4026877370817 1.0
C      1  0.5632239711150  0.6910596418907  0.3448083623557 1.0
C      1  0.7716239009894  0.4442658913823  0.4835157228492 1.0
C      1  0.7179790093647  0.4432009901460  0.3384895026930 1.0
C      1  0.5984208083592  0.4464666422644  0.2441909723982 1.0
C      1  0.4442994186842  0.4531211278673  0.2278659618493 1.0
C      1  0.3077403201891  0.4514258999298  0.3012831095134 1.0
C      1  0.2320234686772  0.4516136263384  0.4334884548312 1.0
C      1  0.2373345398299  0.4536104431413  0.5884978693307 1.0
C      1  0.3296149461311  0.4483919967985  0.7128233785331 1.0
C      1  0.4717008845910  0.4437223399082  0.7690370443809 1.0
C      1  0.6237394552098  0.4406900343787  0.7392441882311 1.0
C      1  0.7334537481710  0.4407825144450  0.6331945755974 1.0
C      1  0.8406031692599  0.6690423240549  0.5812891633913 1.0
C      1  0.8306475430718  0.6707997640896  0.3841650224876 1.0
C      1  0.7169164376131  0.6742214542974  0.2240855269635 1.0
C      1  0.5340627861348  0.6788718698320  0.1524783219100 1.0
C      1  0.3405749547480  0.6828243083287  0.1907092229158 1.0
C      1  0.1987052359108  0.6841440576189  0.3262415708599 1.0
C      1  0.1535672036022  0.6835171895831  0.5170390839749 1.0
C      1  0.2192089574606  0.6806533850048  0.7030252257611 1.0
C      1  0.3732215179319  0.6749011468970  0.8247821955912 1.0
C      1  0.5691662963144  0.6694690615210  0.8432544487732 1.0
C      1  0.7435490624735  0.6683072803934  0.7520945447653 1.0
C      1  0.3241591019438  0.1848818680313  0.6507844156554 1.0
C      1  0.4937694699355  0.1718895452140  0.7543797317344 1.0
C      1  0.5893860875815  0.1699199015797  0.7374249115192 1.0
C      1  0.7118279741907  0.1750388014284  0.5755950965641 1.0
C      1  0.7471268094077  0.1866448385455  0.4847614480462 1.0
C      1  0.7001339725108  0.1771705645851  0.3995896952951 1.0
C      1  0.5381247504670  0.1816851484784  0.2655114094102 1.0
C      1  0.4440273308220  0.1924919103400  0.2419336863851 1.0
C      1  0.3698419956598  0.1827569051322  0.3057388341171 1.0
C      1  0.2719283008369  0.1843244912828  0.4856299780556 1.0
C      1  0.2563542804635  0.1951598195419  0.5813694001324 1.0
C      1  0.4831845141170  0.5884451996238  0.6834883000549 1.0
C      1  0.5852016978245  0.5863524039409  0.6635188839350 1.0
C      1  0.6596036642290  0.5859117130180  0.5907945718030 1.0
C      1  0.6839383029918  0.5869289383970  0.4894040833152 1.0
C      1  0.6499914249191  0.5881200627471  0.3909681526910 1.0
C      1  0.5680236507854  0.5901791848576  0.3269715071766 1.0
C      1  0.4641950872132  0.5931040091520  0.3175503251020 1.0
C      1  0.3714298630539  0.5937173972371  0.3653101200491 1.0
C      1  0.3196215243643  0.5937599573755  0.4554784701875 1.0
C      1  0.3258272040157  0.5935305502121  0.5595057623967 1.0
C      1  0.3868413904603  0.5909646349529  0.6441870778987 1.0
C      1  0.4900007884965  0.2655989791887  0.4999803836337 1.0
C      1  0.4955523682975  0.4383542517946  0.4953249726244 1.0
C      1  0.5119507426679  0.1846878162878  0.5006601670940 1.0
C      1  0.4894296037166  0.3525335786839  0.4973050811991 1.0
END
