TITL C-23239-2101-7 -7.674 3375.00 -1484.21675860 0 0 180 (C2v) n - 1
REM
REM Run started: at 2020.12.25 17:42:22 in /gpfs/home/chem/mssmkc/CARBON/AIRSS/Generating-Clusters/Str-Search/Higher-Symm/Only-C180
REM VASP from code version vasp.5.4.4.18Apr17-6-g9f103f2a35 (build Oct 11 2019 16:45:47) gamma-only
REM
REM
REM
REM
REM ./C.cell (73b75853f6e4503fb4b57bac71549d7d)
REM AIRSS Version 0.9.1 bugfix July 2018 build 013d7b7c2542+ Fri, 06 Jul 2018 19:26:36 +0100
REM compiler GCC version 6.3.0
REM options -cpp -iprefix /gpfs/warwick/csc/orac/software/Core/GCCcore/6.3.0/bin/../lib/gcc/x86_64-pc-linux-gnu/6.3.0/ -mtune=generic -march=x86-64 -g -O0
REM seed -1264747321 -899381193 2070095900 -33428992 47380918 -1289772423 -1805955392 -1590386408 -1811544219 287306090 -167835584 353183113
REM
REM C.POTCAR (d86ddea03c3ceb6dc662c8ad6801f873)
REM 
CELL 1.54180   15.00000   15.00000   15.00000   90.00000   90.00000   90.00000
LATT -1
SFAC C  
C      1  0.1292574443328  0.4500483827968  0.6581910191973 1.0
C      1  0.8239604341154  0.4497617097600  0.7439933466836 1.0
C      1  0.5489091754718  0.4499644968317  0.0955112650075 1.0
C      1  0.1292574717111  0.5499514667451  0.6581910528025 1.0
C      1  0.8239604127736  0.5502382287355  0.7439933662552 1.0
C      1  0.5489091925885  0.5500350131068  0.0955113216132 1.0
C      1  0.8707425508033  0.4500483992576  0.6581911005454 1.0
C      1  0.1760395573060  0.4497617015855  0.7439932691212 1.0
C      1  0.4510912069666  0.4499643582446  0.0955111961610 1.0
C      1  0.8707424915842  0.5499515000270  0.6581911165538 1.0
C      1  0.1760395928260  0.5502381992728  0.7439932884228 1.0
C      1  0.4510911591016  0.5500349782395  0.0955112680767 1.0
C      1  0.2830464765019  0.2910840508298  0.5685516683381 1.0
C      1  0.6666534104249  0.2919480678252  0.6550569520343 1.0
C      1  0.5498820480637  0.2943590247434  0.2777887787494 1.0
C      1  0.2830460129085  0.7089157522082  0.5685506430930 1.0
C      1  0.6666531714911  0.7080525692501  0.6550569944949 1.0
C      1  0.5498821291857  0.7056406972999  0.2777887268612 1.0
C      1  0.7169535238037  0.2910840371095  0.5685517804599 1.0
C      1  0.3333465848145  0.2919480623880  0.6550568301163 1.0
C      1  0.4501181008155  0.2943589609352  0.2777886510855 1.0
C      1  0.7169535117761  0.7089156731058  0.5685514900780 1.0
C      1  0.3333467098889  0.7080530520538  0.6550563954831 1.0
C      1  0.4501179455552  0.7056406591519  0.2777886569694 1.0
C      1  0.5457488276574  0.2129523634441  0.7430046553467 1.0
C      1  0.6845879726179  0.2104624130157  0.3383464236151 1.0
C      1  0.2701830900607  0.2077640972644  0.4178346317816 1.0
C      1  0.5457487754160  0.7870483087160  0.7430044312734 1.0
C      1  0.6845879827206  0.7895373045277  0.3383462070914 1.0
C      1  0.2701814597493  0.7922360113681  0.4178319560906 1.0
C      1  0.4542511001266  0.2129523699255  0.7430046501215 1.0
C      1  0.3154121819174  0.2104624248443  0.3383463904059 1.0
C      1  0.7298169793034  0.2077640305122  0.4178347356177 1.0
C      1  0.4542511424209  0.7870483352930  0.7430044187241 1.0
C      1  0.3154121822803  0.7895371397075  0.3383448985982 1.0
C      1  0.7298168131390  0.7922358138549  0.4178345871534 1.0
C      1  0.5525159358976  0.2940006826417  0.4140725377340 1.0
C      1  0.3993593696065  0.2933040743040  0.4979024415288 1.0
C      1  0.5482038065551  0.2937719360024  0.5890572401617 1.0
C      1  0.5525158987577  0.7059991424993  0.4140724813541 1.0
C      1  0.3993589264373  0.7066959812202  0.4979017603072 1.0
C      1  0.5482036721860  0.7062284837096  0.5890570969060 1.0
C      1  0.4474842190942  0.2940007093044  0.4140725196531 1.0
C      1  0.6006407634150  0.2933040551782  0.4979024089410 1.0
C      1  0.4517962108171  0.2937719273279  0.5890572803068 1.0
C      1  0.4474841986359  0.7059988594368  0.4140724233381 1.0
C      1  0.6006408307936  0.7066961445709  0.4979023902345 1.0
C      1  0.4517959911854  0.7062286764063  0.5890568351560 1.0
C      1  0.5961470935827  0.1433475250861  0.5020109341934 1.0
C      1  0.4528700284327  0.1437601084598  0.4157119141622 1.0
C      1  0.4505646738255  0.1436529829124  0.5844227228916 1.0
C      1  0.5961463203785  0.8566536959864  0.5020099419774 1.0
C      1  0.4528701897773  0.8562398943377  0.4157110986294 1.0
C      1  0.4505643938330  0.8563478762670  0.5844215780752 1.0
C      1  0.4038529827928  0.1433475278702  0.5020108060802 1.0
C      1  0.5471301321582  0.1437600809243  0.4157119211986 1.0
C      1  0.5494352746393  0.1436529625439  0.5844227916035 1.0
C      1  0.4038529991347  0.8566531376270  0.5020088077129 1.0
C      1  0.5471300088277  0.8562398062579  0.4157112059074 1.0
C      1  0.5494345015358  0.8563481584167  0.5844219584954 1.0
C      1  0.6852282416924  0.3610140951632  0.3422220909421 1.0
C      1  0.2709690023383  0.3581395686473  0.4198979671980 1.0
C      1  0.5446830306836  0.3631658467406  0.7391436805221 1.0
C      1  0.6852283445982  0.6389855134783  0.3422219743865 1.0
C      1  0.2709690426268  0.6418601574425  0.4198978532258 1.0
C      1  0.5446830393017  0.6368343001025  0.7391437902598 1.0
C      1  0.3147718229742  0.3610141696844  0.3422220086394 1.0
C      1  0.7290310514238  0.3581395509302  0.4198980758934 1.0
C      1  0.4553168739382  0.3631658377065  0.7391436799412 1.0
C      1  0.3147717297836  0.6389855064047  0.3422219135861 1.0
C      1  0.7290310075115  0.6418602847216  0.4198980060984 1.0
C      1  0.4553168338803  0.6368343373766  0.7391437664469 1.0
C      1  0.5882095663893  0.3677180195262  0.6503249789936 1.0
C      1  0.5863626818108  0.3676552609118  0.3488750352707 1.0
C      1  0.3256020464731  0.3660958361518  0.5017237719404 1.0
C      1  0.5882093397852  0.6322827673540  0.6503248273801 1.0
C      1  0.5863626152294  0.6323446178119  0.3488750817878 1.0
C      1  0.3256020035547  0.6339040096650  0.5017236613210 1.0
C      1  0.4117904222713  0.3677180172160  0.6503249227240 1.0
C      1  0.4136374571211  0.3676551508893  0.3488751290801 1.0
C      1  0.6743979782202  0.3660958100534  0.5017238324447 1.0
C      1  0.4117905489814  0.6322828004474  0.6503246862818 1.0
C      1  0.4136375071009  0.6323445992311  0.3488750083237 1.0
C      1  0.6743980088202  0.6339040193357  0.5017237498148 1.0
C      1  0.2047165285391  0.2802998843019  0.4254073721045 1.0
C      1  0.5846446599841  0.2883934707695  0.7958949291022 1.0
C      1  0.7126853828184  0.2858382339670  0.2787882663611 1.0
C      1  0.2047163409678  0.7196997032578  0.4254067537573 1.0
C      1  0.5846448308214  0.7116067159584  0.7958944103175 1.0
C      1  0.7126853811316  0.7141614296582  0.2787879695415 1.0
C      1  0.7952835562895  0.2802998485986  0.4254075570051 1.0
C      1  0.4153552420085  0.2883934545255  0.7958949352373 1.0
C      1  0.2873149129539  0.2858383245755  0.2787880190513 1.0
C      1  0.7952833203229  0.7197001913975  0.4254072695816 1.0
C      1  0.4153550982776  0.7116067524337  0.7958944368332 1.0
C      1  0.2873147835279  0.7141612901151  0.2787876243275 1.0
C      1  0.5463712739599  0.3180069240884  0.1790218256141 1.0
C      1  0.2001158602932  0.3146738314419  0.6221509375754 1.0
C      1  0.7536717904218  0.3155896761143  0.7022238233214 1.0
C      1  0.5463712092742  0.6819924332421  0.1790216975364 1.0
C      1  0.2001158659171  0.6853260564470  0.6221509018653 1.0
C      1  0.7536711396468  0.6844098579798  0.7022235864116 1.0
C      1  0.4536290197230  0.3180070604630  0.1790216952701 1.0
C      1  0.7998841536431  0.3146738190797  0.6221510535244 1.0
C      1  0.2463282305307  0.3155896888727  0.7022237090321 1.0
C      1  0.4536290262111  0.6819924050153  0.1790216802256 1.0
C      1  0.7998840961836  0.6853261900529  0.6221510470843 1.0
C      1  0.2463288696891  0.6844099388928  0.7022233881991 1.0
C      1  0.5869591330103  0.7850817194894  0.6513991652526 1.0
C      1  0.5856065569740  0.7850193026773  0.3491676223702 1.0
C      1  0.3274220722374  0.7870282816909  0.5002918412916 1.0
C      1  0.5869591877201  0.2149194035801  0.6513993738302 1.0
C      1  0.5856065453573  0.2149803530245  0.3491678450592 1.0
C      1  0.3274222374897  0.2129740702941  0.5002939614300 1.0
C      1  0.4130405950324  0.7850816984635  0.6513990160043 1.0
C      1  0.4143934584886  0.7850193197315  0.3491673387030 1.0
C      1  0.6725772821974  0.7870261931036  0.5002938281411 1.0
C      1  0.4130407703127  0.2149194166364  0.6513993291987 1.0
C      1  0.4143936141475  0.2149803667890  0.3491678914825 1.0
C      1  0.6725778095095  0.2129740692745  0.5002940728996 1.0
C      1  0.8971332912734  0.3764433811683  0.5048999046162 1.0
C      1  0.3010065250460  0.3789619708744  0.1412560870703 1.0
C      1  0.2881348414324  0.3790635971507  0.8527566009719 1.0
C      1  0.8971331986542  0.6235565867557  0.5048996526610 1.0
C      1  0.3010064855924  0.6210373710966  0.1412561494770 1.0
C      1  0.2881349872217  0.6209364129259  0.8527566132649 1.0
C      1  0.1028667375992  0.3764433778516  0.5048998311612 1.0
C      1  0.6989939631721  0.3789620200746  0.1412563104325 1.0
C      1  0.7118650909072  0.3790636136315  0.8527566748892 1.0
C      1  0.1028668535646  0.6235565357325  0.5048996286934 1.0
C      1  0.6989938231558  0.6210374031445  0.1412562064516 1.0
C      1  0.7118649515669  0.6209364057219  0.8527566737982 1.0
C      1  0.7144960700842  0.5409710994344  0.9024001409020 1.0
C      1  0.7422759516378  0.5409910196251  0.1166008625810 1.0
C      1  0.0841330705662  0.5406587801898  0.4697364162630 1.0
C      1  0.7144961288011  0.4590289140753  0.9024000669187 1.0
C      1  0.7422758971211  0.4590084248408  0.1166007042244 1.0
C      1  0.0841330072059  0.4593408890716  0.4697362256490 1.0
C      1  0.2855038274316  0.5409710877990  0.9024000475155 1.0
C      1  0.2577244504537  0.5409909784049  0.1166007621718 1.0
C      1  0.9158669503053  0.5406588353242  0.4697365518946 1.0
C      1  0.2855037592976  0.4590288950653  0.9023999765100 1.0
C      1  0.2577245237898  0.4590083553550  0.1166005257426 1.0
C      1  0.9158669689859  0.4593408668832  0.4697363701830 1.0
C      1  0.5522748057374  0.4473099995521  0.4058870842257 1.0
C      1  0.3914761128548  0.4469846286894  0.5020302106932 1.0
C      1  0.5560705114058  0.4473352735216  0.5921161623081 1.0
C      1  0.5522748249668  0.5526897857896  0.4058870327721 1.0
C      1  0.3914761945280  0.5530152805520  0.5020300275821 1.0
C      1  0.5560704223762  0.5526649068489  0.5921159775256 1.0
C      1  0.4477253445322  0.4473100112530  0.4058871125606 1.0
C      1  0.6085239588303  0.4469846358331  0.5020302465367 1.0
C      1  0.4439294799871  0.4473352647678  0.5921161221425 1.0
C      1  0.4477252914747  0.5526897472589  0.4058870193402 1.0
C      1  0.6085238769186  0.5530153146696  0.5020300941332 1.0
C      1  0.4439295740108  0.5526649196368  0.5921159354758 1.0
C      1  0.6006477168344  0.6205685430589  0.1285217585302 1.0
C      1  0.1324858220093  0.6217705099064  0.5984821692269 1.0
C      1  0.7705645928188  0.6213245455509  0.7731005909959 1.0
C      1  0.6006477831436  0.3794309971941  0.1285217694878 1.0
C      1  0.1324860078758  0.3782295655777  0.5984820439947 1.0
C      1  0.7705646492383  0.3786754548975  0.7731005532960 1.0
C      1  0.3993525911702  0.6205684945247  0.1285217555623 1.0
C      1  0.8675141109915  0.6217705688442  0.5984822028212 1.0
C      1  0.2294354074525  0.6213245569545  0.7731004811193 1.0
C      1  0.3993525326570  0.3794309568893  0.1285216332051 1.0
C      1  0.8675140009979  0.3782295589307  0.5984821399415 1.0
C      1  0.2294353305167  0.3786754269235  0.7731004690669 1.0
C      1  0.8729101734521  0.6960058158337  0.4567678676340 1.0
C      1  0.2725145067507  0.6857140902733  0.1974447742311 1.0
C      1  0.3524872320455  0.6841152568855  0.8500129088967 1.0
C      1  0.8729100617149  0.3039940219650  0.4567679913381 1.0
C      1  0.2725145898934  0.3142852124268  0.1974448634921 1.0
C      1  0.3524870097220  0.3158847634079  0.8500130017594 1.0
C      1  0.1270896126713  0.6960057910302  0.4567679130161 1.0
C      1  0.7274857306047  0.6857142055924  0.1974449906073 1.0
C      1  0.6475126822033  0.6841152205615  0.8500128771800 1.0
C      1  0.1270901227209  0.3039940904993  0.4567679443485 1.0
C      1  0.7274858112175  0.3142854111297  0.1974449938998 1.0
C      1  0.6475128921650  0.3158848143094  0.8500129693935 1.0
END
