TITL C-23913-6648-4 -1.336 3375.00 -207.82742715 0 0 26 (C1) n - 1
REM
REM Run started: at 2020.11.22 05:02:50 in /rds/project/t2_vol4/rds-t2-cs072/BORA/CARBON/AIRSS/Generating-Clusters/Str-Search/Higher-Symm
REM VASP from code version vasp.5.4.4.18Apr17-6-g9f103f2a35 (build Oct 11 2019 16:45:47) gamma-only
REM
REM
REM
REM
REM ./C.cell (e5ae0387ce4d49c7c0135a1433873289)
REM AIRSS Version 0.9.1 bugfix July 2018 build 013d7b7c2542+ Fri, 06 Jul 2018 19:26:36 +0100
REM compiler GCC version 4.8.5 20150623 (Red Hat 4.8.5-39)
REM options -cpp -mtune=generic -march=x86-64 -g -O0
REM seed -1483336478 1077777081 -523865621 -1180904325 232124873 1350385726 -1513962335 -1413941954 545033426 3073790 825849708 1084438359
REM
REM C.POTCAR (d86ddea03c3ceb6dc662c8ad6801f873)
REM 
CELL 1.54180   15.00000   15.00000   15.00000   90.00000   90.00000   90.00000
LATT -1
SFAC C  
C      1  0.4539357478262  0.4023882441472  0.6208540694309 1.0
C      1  0.4502076869253  0.5784200271493  0.5935484337121 1.0
C      1  0.4777658138170  0.6698661278626  0.4472425976308 1.0
C      1  0.4512472076292  0.5115271666287  0.3779330084709 1.0
C      1  0.4537268407424  0.3503756578486  0.4535273333477 1.0
C      1  0.5650749601211  0.4204741359238  0.3050512332619 1.0
C      1  0.5888970337192  0.2971755143854  0.5174667891744 1.0
C      1  0.5749941676828  0.4619765183095  0.6946864481243 1.0
C      1  0.5783544238495  0.6771567494849  0.6023868647726 1.0
C      1  0.6040115596283  0.6520764114170  0.3640512922434 1.0
C      1  0.4316393200667  0.6232193337965  0.5127199272794 1.0
C      1  0.4318519902156  0.5942251826378  0.4190070990173 1.0
C      1  0.4174960601360  0.4362204210148  0.4263557506046 1.0
C      1  0.4135085935857  0.3603510458704  0.5421215001066 1.0
C      1  0.4170887053516  0.4885014386729  0.5951630371483 1.0
C      1  0.6033387944184  0.7029391688260  0.5267669728512 1.0
C      1  0.5798289038864  0.5876952205469  0.3163008494849 1.0
C      1  0.5744939684532  0.3561098588298  0.3585126511037 1.0
C      1  0.5892162225621  0.3239392107815  0.5958561141166 1.0
C      1  0.5643426563345  0.5447833653918  0.7048258444650 1.0
C      1  0.5318275954455  0.6068747038937  0.6432149837453 1.0
C      1  0.5716171177828  0.6969508953864  0.4392631401974 1.0
C      1  0.5332687581299  0.5064255504331  0.3212859643881 1.0
C      1  0.5436061520712  0.3178054822382  0.4364246493326 1.0
C      1  0.5444672669720  0.3861736247143  0.6518521685798 1.0
C      1  0.3759132526475  0.4450430438089  0.5161979774102 1.0
END
