TITL C-231038-7775-35 -3.077 3375.00 -524.09371612 0 0 66 (C2) n - 1
REM
REM Run started: at 2020.11.30 23:32:12 in /rds/project/t2_vol4/rds-t2-cs072/BORA/CARBON/AIRSS/Generating-Clusters/Str-Search/Higher-Symm/C10-100
REM VASP from code version vasp.5.4.4.18Apr17-6-g9f103f2a35 (build Oct 11 2019 16:45:47) gamma-only
REM
REM
REM
REM
REM ./C.cell (f39ce9773e2efe3fa5bbdf770a4156b8)
REM AIRSS Version 0.9.1 bugfix July 2018 build 013d7b7c2542+ Fri, 06 Jul 2018 19:26:36 +0100
REM compiler GCC version 4.8.5 20150623 (Red Hat 4.8.5-39)
REM options -cpp -mtune=generic -march=x86-64 -g -O0
REM seed 489891804 -224067023 -1429089607 -171003871 770473809 1070234573 -33978996 1725825481 -2033218423 -1816254671 -324492128 -498742732
REM
REM C.POTCAR (d86ddea03c3ceb6dc662c8ad6801f873)
REM 
CELL 1.54180   15.00000   15.00000   15.00000   90.00000   90.00000   90.00000
LATT -1
SFAC C  
C      1  0.5491715610159  0.2878592342182  0.4375648820555 1.0
C      1  0.5491712214944  0.7121407370242  0.5624350965369 1.0
C      1  0.4468432722673  0.2882840342253  0.4378029070349 1.0
C      1  0.4468429779964  0.7117157592263  0.5621970460912 1.0
C      1  0.5388617669135  0.6986087472907  0.4102064562968 1.0
C      1  0.5388621070605  0.3013912091662  0.5897935242964 1.0
C      1  0.4560524099585  0.6984090042346  0.4104397549681 1.0
C      1  0.4560525303966  0.3015909974556  0.5895600381042 1.0
C      1  0.3861856591076  0.4111862423361  0.2700860315519 1.0
C      1  0.3861853422847  0.5888137092624  0.7299140011803 1.0
C      1  0.6146285188863  0.4105832725701  0.2666534268277 1.0
C      1  0.6146282374583  0.5894168622082  0.7333464220826 1.0
C      1  0.5682635809510  0.5140568924365  0.4549741471228 1.0
C      1  0.5682637232657  0.4859429084654  0.5450261620376 1.0
C      1  0.4180417353485  0.5150449963639  0.4566798696336 1.0
C      1  0.4180418097427  0.4849551859231  0.5433202874991 1.0
C      1  0.3996601826047  0.4961807983003  0.7336057737705 1.0
C      1  0.3996602270705  0.5038191421883  0.2663941856073 1.0
C      1  0.6160510401423  0.4980449662396  0.7477212831682 1.0
C      1  0.6160508558896  0.5019552321088  0.2522789010959 1.0
C      1  0.5456895345967  0.6592762671895  0.7274001162822 1.0
C      1  0.5456898342795  0.3407237677440  0.2725996623407 1.0
C      1  0.4531052612301  0.6587987331145  0.7258656626781 1.0
C      1  0.4531055368654  0.3412012063931  0.2741342603125 1.0
C      1  0.4002246532293  0.6986352483714  0.6492628685567 1.0
C      1  0.4002249865492  0.3013645602903  0.3507370588452 1.0
C      1  0.5961682630418  0.6976693652753  0.6489419574845 1.0
C      1  0.5961685371854  0.3023306564621  0.3510580184743 1.0
C      1  0.3375399395893  0.6201753853151  0.6524766802328 1.0
C      1  0.3375403454053  0.3798245297036  0.3475233247431 1.0
C      1  0.6584254424992  0.6198470545201  0.6519262524195 1.0
C      1  0.6584255627690  0.3801531605298  0.3480737250006 1.0
C      1  0.3066090426182  0.5710432021942  0.5782932920570 1.0
C      1  0.3066093235134  0.4289567319267  0.4217066284587 1.0
C      1  0.6856901036413  0.5705116602928  0.5762630547530 1.0
C      1  0.6856901533501  0.4294885025026  0.4237370978640 1.0
C      1  0.3670334243799  0.7826888314365  0.5214130797538 1.0
C      1  0.3670334636703  0.2173110936196  0.4785868042779 1.0
C      1  0.6279049861741  0.7822245334621  0.5204527827938 1.0
C      1  0.6279058029603  0.2177755371485  0.4795471060212 1.0
C      1  0.6592696576687  0.4663809294299  0.5829438901415 1.0
C      1  0.6592694713469  0.5336190219507  0.4170563296430 1.0
C      1  0.3311960200226  0.4630531012423  0.5853290949305 1.0
C      1  0.3311959534894  0.5369468215515  0.4146709063090 1.0
C      1  0.6395570244057  0.4395369416883  0.6778929370388 1.0
C      1  0.6395567964241  0.5604629630598  0.3221072221173 1.0
C      1  0.3659685983382  0.4331966470134  0.6778272099636 1.0
C      1  0.3659685161465  0.5668031869512  0.3221728015181 1.0
C      1  0.3225913523088  0.3916497378231  0.5108795458211 1.0
C      1  0.3225910554545  0.6083502460048  0.4891203533750 1.0
C      1  0.6709644081862  0.3923108160772  0.5114981986897 1.0
C      1  0.6709642992075  0.6076893692835  0.4885019167286 1.0
C      1  0.5598101928380  0.4225297709610  0.7246375454926 1.0
C      1  0.5598099198642  0.5774706250302  0.2753624039852 1.0
C      1  0.4706845655009  0.4446245383805  0.6861172040127 1.0
C      1  0.4706843474428  0.5553754629538  0.3138829937632 1.0
C      1  0.3795342809633  0.7900975755393  0.6099633502291 1.0
C      1  0.3795341941545  0.2099023110829  0.3900364806875 1.0
C      1  0.6163166973518  0.7912654651067  0.6095394097182 1.0
C      1  0.6163175038626  0.2087344715315  0.3904605747322 1.0
C      1  0.6084784425929  0.3117691095895  0.5208285793136 1.0
C      1  0.6084782458633  0.6882309889985  0.4791713439490 1.0
C      1  0.3870418447821  0.3125006830793  0.5202822925670 1.0
C      1  0.3870416434539  0.6874992032520  0.4797175714758 1.0
C      1  0.4922111408003  0.4773971341525  0.5942961288016 1.0
C      1  0.4922110701273  0.5226029195310  0.4057040846847 1.0
END
