TITL C-23239-2101-1 -8.013 3375.00 -1474.07195970 0 0 180 (C1) n - 1
REM
REM Run started: at 2020.12.25 12:15:38 in /gpfs/home/chem/mssmkc/CARBON/AIRSS/Generating-Clusters/Str-Search/Higher-Symm/Only-C180
REM VASP from code version vasp.5.4.4.18Apr17-6-g9f103f2a35 (build Oct 11 2019 16:45:47) gamma-only
REM
REM
REM
REM
REM ./C.cell (73b75853f6e4503fb4b57bac71549d7d)
REM AIRSS Version 0.9.1 bugfix July 2018 build 013d7b7c2542+ Fri, 06 Jul 2018 19:26:36 +0100
REM compiler GCC version 6.3.0
REM options -cpp -iprefix /gpfs/warwick/csc/orac/software/Core/GCCcore/6.3.0/bin/../lib/gcc/x86_64-pc-linux-gnu/6.3.0/ -mtune=generic -march=x86-64 -g -O0
REM seed -55320982 179819521 1103672693 -710321897 -1097644073 682330331 412067944 -1395026747 -2118811463 1038035623 1591095686 1110481952
REM
REM C.POTCAR (d86ddea03c3ceb6dc662c8ad6801f873)
REM 
CELL 1.54180   15.00000   15.00000   15.00000   90.00000   90.00000   90.00000
LATT -1
SFAC C  
C      1  0.7870699986823  0.6520950942835  0.6812202524155 1.0
C      1  0.7896763645992  0.5014130908802  0.7320940692080 1.0
C      1  0.7727349642840  0.3571860636136  0.6727500641794 1.0
C      1  0.7668647928880  0.2764658569741  0.5385605059681 1.0
C      1  0.7630161455721  0.3053521392364  0.3844589123023 1.0
C      1  0.7650819248463  0.4262241519850  0.2856227055803 1.0
C      1  0.7718038990712  0.5826030563662  0.2850971511022 1.0
C      1  0.7647735773460  0.7040672055495  0.3879077722768 1.0
C      1  0.7665822585948  0.7277118789986  0.5434278943393 1.0
C      1  0.6776178192891  0.2866794079182  0.2396809042573 1.0
C      1  0.6877011674187  0.4986615984279  0.1578729837918 1.0
C      1  0.7036797323902  0.7197685847642  0.2267103739554 1.0
C      1  0.6783794406084  0.8416514670573  0.4498302305397 1.0
C      1  0.6963291610020  0.7982245080318  0.6782238852998 1.0
C      1  0.6899142138732  0.6084552098706  0.8158225079902 1.0
C      1  0.6997408274930  0.3904326922133  0.8215684050558 1.0
C      1  0.6900138142398  0.2100932572219  0.6754206974661 1.0
C      1  0.6826793149377  0.1667732127497  0.4373326942577 1.0
C      1  0.1814587046455  0.5963094470386  0.4080875732371 1.0
C      1  0.1710624624639  0.6354295630926  0.4916392647466 1.0
C      1  0.1723553831750  0.6032620969047  0.5856544196119 1.0
C      1  0.1640118550981  0.5238090658481  0.6309219754032 1.0
C      1  0.1717641836970  0.4256312427735  0.6140244144665 1.0
C      1  0.1712597796599  0.3529604182586  0.5528016178434 1.0
C      1  0.1615085118865  0.3553954127728  0.4583999027456 1.0
C      1  0.1704550650221  0.4175210203548  0.3806555964553 1.0
C      1  0.1827427143209  0.5070934376287  0.3616042468014 1.0
C      1  0.4419569469355  0.6735641314746  0.2499245285028 1.0
C      1  0.4023247905080  0.7830841242467  0.4319625728322 1.0
C      1  0.4259176906864  0.7660212565192  0.6066923567206 1.0
C      1  0.4096068506426  0.6447186922155  0.7441859083564 1.0
C      1  0.4265110682004  0.4383926982936  0.7787431306799 1.0
C      1  0.4074097123447  0.2695995429181  0.6774820748681 1.0
C      1  0.4179380141770  0.2175073530410  0.5068091444264 1.0
C      1  0.4103388441565  0.3022011516651  0.3273287374232 1.0
C      1  0.4256772094802  0.5011836491207  0.2253792874761 1.0
C      1  0.2841251909447  0.4937415081580  0.8587510772011 1.0
C      1  0.3324047469129  0.2854203287411  0.7519872761031 1.0
C      1  0.2232224563188  0.1859404218075  0.5628658680047 1.0
C      1  0.2729222446026  0.1666081691056  0.3362554287783 1.0
C      1  0.2752482635557  0.3404839870793  0.1834900976331 1.0
C      1  0.2894952395585  0.5622795245794  0.1183977718780 1.0
C      1  0.3146407932402  0.7738373318395  0.3807823802203 1.0
C      1  0.2647542848726  0.8675237683597  0.5616112417725 1.0
C      1  0.3104220562602  0.6916466003396  0.7559467344045 1.0
C      1  0.1640962384845  0.2803704261977  0.3970668376990 1.0
C      1  0.1717779934588  0.3378092885621  0.3199680333252 1.0
C      1  0.2126621701686  0.5491177234141  0.2759948646853 1.0
C      1  0.2204446853085  0.6351077363808  0.3266338411566 1.0
C      1  0.1815159765851  0.7288883815175  0.5264639039978 1.0
C      1  0.1963419949447  0.6942939960505  0.6151949939673 1.0
C      1  0.1854950727479  0.5076298552601  0.7268640898837 1.0
C      1  0.2043990832911  0.4165599159737  0.7015802425979 1.0
C      1  0.1851105306600  0.2654425492064  0.5924623632067 1.0
C      1  0.7468330659785  0.5042269470085  0.2305543860343 1.0
C      1  0.7525848687777  0.6782147973759  0.2927207005150 1.0
C      1  0.7405188134936  0.7705980737948  0.4567447745054 1.0
C      1  0.7548583072979  0.7351378488164  0.6416241627421 1.0
C      1  0.7597773439969  0.5918245668911  0.7527586792306 1.0
C      1  0.7594792668190  0.4123111879539  0.7527026975241 1.0
C      1  0.7481985392445  0.2692813364004  0.6330603373429 1.0
C      1  0.7425785283116  0.2374366286853  0.4509175425596 1.0
C      1  0.7399474715488  0.3320840911566  0.2936420414947 1.0
C      1  0.2216725084290  0.5465067384190  0.8015004317307 1.0
C      1  0.2826066693108  0.3758684875998  0.7430835941349 1.0
C      1  0.2275897210418  0.2037531856526  0.6545953920390 1.0
C      1  0.2096431682767  0.2013263308426  0.4001728670182 1.0
C      1  0.2147802855084  0.3016226467374  0.2481827554459 1.0
C      1  0.2373644879919  0.5174025115007  0.1898158506974 1.0
C      1  0.2940126446298  0.6947057324499  0.3339245275071 1.0
C      1  0.2099070905053  0.8138505166878  0.5016843664583 1.0
C      1  0.2721971991655  0.7342494129329  0.6698608546823 1.0
C      1  0.9738554425820  0.6107572122489  0.5130271595523 1.0
C      1  0.9360423842459  0.5916612246026  0.5926184659272 1.0
C      1  0.9372029229479  0.4995761724389  0.6238925630995 1.0
C      1  0.9767231270741  0.4361272931830  0.5734307870394 1.0
C      1  0.9870957059031  0.3897433629560  0.5019497858178 1.0
C      1  0.9813595656211  0.4094589699148  0.4173469334728 1.0
C      1  0.9915824679529  0.4555549284680  0.3428179404924 1.0
C      1  0.9839639050750  0.5380611685004  0.3734338131347 1.0
C      1  0.9890682743098  0.6053212025452  0.4287729036956 1.0
C      1  0.3807071224479  0.2833732819904  0.5735485421812 1.0
C      1  0.3334181607174  0.2696573563806  0.4828731627793 1.0
C      1  0.3722530883093  0.3258715391953  0.4082387911209 1.0
C      1  0.3896767799947  0.5481302636941  0.2965998898166 1.0
C      1  0.3780975013177  0.6473829666296  0.3176403462887 1.0
C      1  0.3860534789050  0.7297084011680  0.5230676612932 1.0
C      1  0.3479972095438  0.6971677658834  0.6112502210890 1.0
C      1  0.3851147400502  0.6088620784571  0.6503312595973 1.0
C      1  0.3711441325484  0.4228459264446  0.7084923089244 1.0
C      1  0.8004494049830  0.5511295984735  0.3723511423893 1.0
C      1  0.7976962476501  0.6240514326092  0.4330886683701 1.0
C      1  0.7980178954260  0.6398851027330  0.5246375983158 1.0
C      1  0.8320766298495  0.5984113887599  0.6078051433770 1.0
C      1  0.8339242819399  0.4995562128938  0.6411784413898 1.0
C      1  0.8019243137078  0.4138497973697  0.6029079941331 1.0
C      1  0.7995363174116  0.3671111944830  0.5225082556551 1.0
C      1  0.7976238004132  0.3845482619692  0.4306675770203 1.0
C      1  0.7975081706546  0.4570336058168  0.3720481945646 1.0
C      1  0.5134063913602  0.2396951905337  0.4919411706194 1.0
C      1  0.5097393831913  0.3191463941071  0.3278078057950 1.0
C      1  0.5210168640297  0.4785435276833  0.2437137453607 1.0
C      1  0.5348795247207  0.6574549876337  0.2750939632396 1.0
C      1  0.5089814654593  0.7691103602121  0.4237175932610 1.0
C      1  0.5237725438177  0.7510955772972  0.6035674639266 1.0
C      1  0.5145951857256  0.6346347657536  0.7326561730674 1.0
C      1  0.5199960173948  0.4533817154629  0.7597706180942 1.0
C      1  0.5099705884891  0.2952245000614  0.6698827128094 1.0
C      1  0.2900376036631  0.1934904401901  0.7256822213171 1.0
C      1  0.2706751172455  0.1855575048640  0.4753072588569 1.0
C      1  0.2677237965525  0.2167418598633  0.2526428900925 1.0
C      1  0.2782614096607  0.4282651371427  0.1575460922410 1.0
C      1  0.3256373060848  0.6461238733692  0.1014318759632 1.0
C      1  0.2660961097148  0.8405189296853  0.4261626668036 1.0
C      1  0.2852268689292  0.8418311851629  0.6519771845272 1.0
C      1  0.2752541396647  0.6283150429087  0.8122255544128 1.0
C      1  0.2905794126949  0.3969513068835  0.8421403932154 1.0
C      1  0.4396902832999  0.8469967998015  0.6634753313484 1.0
C      1  0.4297573041696  0.6035927752795  0.8375226514190 1.0
C      1  0.4445195125300  0.3823705946740  0.8548466463843 1.0
C      1  0.4384792687122  0.1775291515835  0.7074426354607 1.0
C      1  0.4245308695502  0.1367242108217  0.4486533967582 1.0
C      1  0.4201724422754  0.2631971259342  0.2382811638755 1.0
C      1  0.4336820124727  0.4826459367172  0.1323797626788 1.0
C      1  0.4613767828196  0.7063386751079  0.1641055370501 1.0
C      1  0.4206292450809  0.8784070120161  0.4569423579760 1.0
C      1  0.5148754074601  0.2660110644647  0.2421312101436 1.0
C      1  0.5287399077015  0.4717464548611  0.1420252483295 1.0
C      1  0.5553153680202  0.7074057846726  0.1873941922003 1.0
C      1  0.5150359197851  0.8694404425172  0.4395469330091 1.0
C      1  0.5369712458049  0.8347443182297  0.6586953398769 1.0
C      1  0.5227489276517  0.6248026821016  0.8332911049809 1.0
C      1  0.5376446526849  0.4013772226381  0.8477647978147 1.0
C      1  0.5298361995069  0.2023686984278  0.7075952915222 1.0
C      1  0.5211812226074  0.1453130474176  0.4517504678839 1.0
C      1  0.6012140494493  0.4319404501713  0.6193842099920 1.0
C      1  0.6032333819821  0.3700446992462  0.5477854588618 1.0
C      1  0.6045623517120  0.3751554303375  0.4560838961198 1.0
C      1  0.5914776694960  0.4507625740856  0.3948828578688 1.0
C      1  0.6128232514419  0.5450309785333  0.3709363972069 1.0
C      1  0.6096022688341  0.6253119207090  0.4170547448560 1.0
C      1  0.6092713757344  0.6491354053094  0.5072231509748 1.0
C      1  0.6114166830028  0.6089837834937  0.5920754896814 1.0
C      1  0.6046906723358  0.5234904001705  0.6356332301430 1.0
C      1  0.6276060800572  0.3789837709030  0.8610869431197 1.0
C      1  0.6204898997967  0.1780967952686  0.7085182257335 1.0
C      1  0.6105529836330  0.1245287791517  0.4303693425336 1.0
C      1  0.6041992799779  0.2576696047804  0.2128005722591 1.0
C      1  0.6182211710188  0.4825270035959  0.1136111052420 1.0
C      1  0.6421175887558  0.7382361551245  0.1713628819537 1.0
C      1  0.6090069179043  0.8894642974078  0.4480082810223 1.0
C      1  0.6250910751079  0.8416914496606  0.6870328636451 1.0
C      1  0.6153255909157  0.6144585240403  0.8525497337554 1.0
C      1  0.5335393189160  0.4143461178069  0.3188517054484 1.0
C      1  0.5493520367997  0.5592953973260  0.2971357776560 1.0
C      1  0.5407581742203  0.6860403988975  0.3707417654371 1.0
C      1  0.5385972696808  0.7206639396051  0.5094172790431 1.0
C      1  0.5449458758500  0.6636571247310  0.6427743908982 1.0
C      1  0.5302226780322  0.5367437129753  0.7042092331843 1.0
C      1  0.5305340004093  0.3946458484228  0.6803129252889 1.0
C      1  0.5328283299510  0.3031435998595  0.5705782904297 1.0
C      1  0.5325460173871  0.3127103649364  0.4256036417127 1.0
C      1  0.4524106274812  0.6322963413015  0.4036527485247 1.0
C      1  0.4528421114743  0.6574056847066  0.5031409355666 1.0
C      1  0.4665723768820  0.6090269818627  0.5880239893536 1.0
C      1  0.4495834846912  0.5268872496872  0.6305463754875 1.0
C      1  0.4369193650252  0.4287660193514  0.6281959415347 1.0
C      1  0.4423479950214  0.3621649838547  0.5519691856116 1.0
C      1  0.4479313171919  0.3782849978893  0.4527781213928 1.0
C      1  0.4871261006619  0.4561098795695  0.4013009468729 1.0
C      1  0.4614868762535  0.5428017216470  0.3650588347751 1.0
C      1  0.3327365120835  0.1320508466156  0.4097046835088 1.0
C      1  0.3324384987642  0.2567005398160  0.1943413243449 1.0
C      1  0.3388419467533  0.4813646529145  0.1004146135603 1.0
C      1  0.3911585500005  0.6974282131277  0.1003621227936 1.0
C      1  0.3241223346148  0.8961731235576  0.4845110891238 1.0
C      1  0.3594275986637  0.8820519484342  0.6884260785824 1.0
C      1  0.3412997363634  0.5723807440517  0.8647575525301 1.0
C      1  0.3578162219811  0.3307359041797  0.8508877447079 1.0
C      1  0.3579756750980  0.1280341012065  0.7165042440490 1.0
END
