TITL C-231038-7775-30 -1.166 3375.00 -182.00095673 0 0 23 (C1) n - 1
REM
REM Run started: at 2020.11.30 22:53:36 in /rds/project/t2_vol4/rds-t2-cs072/BORA/CARBON/AIRSS/Generating-Clusters/Str-Search/Higher-Symm/C10-100
REM VASP from code version vasp.5.4.4.18Apr17-6-g9f103f2a35 (build Oct 11 2019 16:45:47) gamma-only
REM
REM
REM
REM
REM ./C.cell (f39ce9773e2efe3fa5bbdf770a4156b8)
REM AIRSS Version 0.9.1 bugfix July 2018 build 013d7b7c2542+ Fri, 06 Jul 2018 19:26:36 +0100
REM compiler GCC version 4.8.5 20150623 (Red Hat 4.8.5-39)
REM options -cpp -mtune=generic -march=x86-64 -g -O0
REM seed -915053716 -1688443957 626790886 1247558760 -488351778 1597256087 1201412124 -2051582043 562087331 -856838289 -1228632467 -865453804
REM
REM C.POTCAR (d86ddea03c3ceb6dc662c8ad6801f873)
REM 
CELL 1.54180   15.00000   15.00000   15.00000   90.00000   90.00000   90.00000
LATT -1
SFAC C  
C      1  0.5958055161587  0.4415684077849  0.5623287100643 1.0
C      1  0.3475494291521  0.4189455485743  0.5233751478366 1.0
C      1  0.5164987756400  0.6632572250704  0.5443983688414 1.0
C      1  0.6714092985126  0.4114388967477  0.4159537238323 1.0
C      1  0.3207691299911  0.3989452990675  0.4360582166174 1.0
C      1  0.5042621048689  0.6948784648162  0.4557584012157 1.0
C      1  0.5793872742575  0.5938972795274  0.5609016942115 1.0
C      1  0.5129114440647  0.3900944570172  0.5587210833341 1.0
C      1  0.3878417252399  0.4982357185813  0.5540028364878 1.0
C      1  0.5401318860577  0.3018902311898  0.4215216637557 1.0
C      1  0.3261940954252  0.5512957625703  0.4159619236337 1.0
C      1  0.6308307352489  0.6260342359615  0.4146675252005 1.0
C      1  0.2969730964634  0.4764631573227  0.3903434899902 1.0
C      1  0.5752115799849  0.6864460811476  0.3950385479661 1.0
C      1  0.6166791054435  0.3429581210585  0.4185716099164 1.0
C      1  0.3854475732187  0.3438208369079  0.4814548837918 1.0
C      1  0.4331974639638  0.6500443942817  0.4979923837894 1.0
C      1  0.6490836713428  0.4703741615111  0.4875945430960 1.0
C      1  0.6400275582126  0.5668342625711  0.4871300070016 1.0
C      1  0.4809961840669  0.3314504716631  0.4891684744653 1.0
C      1  0.3728595089888  0.5792869117799  0.4932654674022 1.0
C      1  0.4696635513864  0.4715260602657  0.5946769235588 1.0
C      1  0.5567178923109  0.5160994145822  0.6094686739912 1.0
END
