TITL C-231038-7775-15 -4.683 3375.00 -793.80111895 0 0 96 (C2) n - 1
REM
REM Run started: at 2020.11.30 18:38:14 in /rds/project/t2_vol4/rds-t2-cs072/BORA/CARBON/AIRSS/Generating-Clusters/Str-Search/Higher-Symm/C10-100
REM VASP from code version vasp.5.4.4.18Apr17-6-g9f103f2a35 (build Oct 11 2019 16:45:47) gamma-only
REM
REM
REM
REM
REM ./C.cell (f39ce9773e2efe3fa5bbdf770a4156b8)
REM AIRSS Version 0.9.1 bugfix July 2018 build 013d7b7c2542+ Fri, 06 Jul 2018 19:26:36 +0100
REM compiler GCC version 4.8.5 20150623 (Red Hat 4.8.5-39)
REM options -cpp -mtune=generic -march=x86-64 -g -O0
REM seed -1017367504 1011500297 2077504825 -890205071 -971495729 -462455777 -1170046067 -243290517 -1574190650 1367453016 -34710492 -770906192
REM
REM C.POTCAR (d86ddea03c3ceb6dc662c8ad6801f873)
REM 
CELL 1.54180   15.00000   15.00000   15.00000   90.00000   90.00000   90.00000
LATT -1
SFAC C  
C      1  0.6065088787989  0.7697402813990  0.3468308525977 1.0
C      1  0.3141373518252  0.7712051532081  0.4838742307903 1.0
C      1  0.5793432392358  0.7698514385577  0.6671626521202 1.0
C      1  0.6065075078774  0.2302612483017  0.6531712932606 1.0
C      1  0.3141370513270  0.2287931370544  0.5161257370604 1.0
C      1  0.5793437242422  0.2301467954680  0.3328390792399 1.0
C      1  0.5424544708534  0.4189492078227  0.2371820931509 1.0
C      1  0.2497656084005  0.4181109490550  0.5951326090432 1.0
C      1  0.7081007539193  0.4181060904865  0.6689655704991 1.0
C      1  0.5424537059809  0.5810490386863  0.7628187321392 1.0
C      1  0.2497659051836  0.5818900464784  0.4048657110163 1.0
C      1  0.7081019885385  0.5818954225266  0.3310352555059 1.0
C      1  0.6849443903854  0.7655005268483  0.4814097435437 1.0
C      1  0.3921431807710  0.7644900026024  0.3491124779141 1.0
C      1  0.4236480325196  0.7644049325531  0.6672058775491 1.0
C      1  0.6849443724872  0.2344995201191  0.5185919140284 1.0
C      1  0.3921416796964  0.2355088875959  0.6508888653486 1.0
C      1  0.4236487842340  0.2355950823321  0.3327953529607 1.0
C      1  0.2680447993699  0.7402911814933  0.5573982283806 1.0
C      1  0.6660282962982  0.7389411564293  0.6709302776127 1.0
C      1  0.5657054020882  0.7379762917691  0.2706438829608 1.0
C      1  0.2680447176776  0.2597082503729  0.4426021307517 1.0
C      1  0.6660293140918  0.2610527280476  0.3290684863545 1.0
C      1  0.5657033583619  0.2620245436395  0.7293574408709 1.0
C      1  0.5845030879780  0.4733039301155  0.5474756019659 1.0
C      1  0.4996233422409  0.4797413429229  0.4053903161273 1.0
C      1  0.4158215069851  0.4731525185498  0.5482471436018 1.0
C      1  0.5845035139189  0.5266993517322  0.4525210004048 1.0
C      1  0.4996216316122  0.5202592621819  0.5946075518795 1.0
C      1  0.4158223242891  0.5268451204673  0.4517511791166 1.0
C      1  0.3128913387583  0.5168883542089  0.4514885034769 1.0
C      1  0.5508744663048  0.5151373202220  0.6847959949784 1.0
C      1  0.6356960722618  0.5173183372488  0.3631619787272 1.0
C      1  0.3128913184499  0.4831100495288  0.5485086701754 1.0
C      1  0.5508758368014  0.4848626475213  0.3152030512815 1.0
C      1  0.6356949091703  0.4826839260156  0.6368357646749 1.0
C      1  0.4072761843784  0.6979247759916  0.2773976286707 1.0
C      1  0.3535787088953  0.6979220927414  0.6897441250247 1.0
C      1  0.7392571244862  0.6986336523022  0.5308719273193 1.0
C      1  0.4072738386029  0.3020755781918  0.7226020418789 1.0
C      1  0.3535772098877  0.3020768319070  0.3102572400489 1.0
C      1  0.7392564395107  0.3013663193080  0.4691278762901 1.0
C      1  0.4937446452724  0.7046811654335  0.2455360731407 1.0
C      1  0.2820292272482  0.7059599592895  0.6318937086834 1.0
C      1  0.7244136287955  0.7059533825840  0.6217710322417 1.0
C      1  0.4937418142676  0.2953204371997  0.7544647593963 1.0
C      1  0.2820223361129  0.2940348651318  0.3681028372606 1.0
C      1  0.7244151345917  0.2940453091790  0.3782282782352 1.0
C      1  0.4860816868101  0.6586527363563  0.7562986941917 1.0
C      1  0.7307622396524  0.6595792448886  0.3830585609283 1.0
C      1  0.2833465555165  0.6595930902959  0.3591762733322 1.0
C      1  0.4860820768826  0.3413466873861  0.2437033798668 1.0
C      1  0.7307616134249  0.3404219333049  0.6169433431084 1.0
C      1  0.2833453437438  0.3404078689784  0.6408215913280 1.0
C      1  0.2726290160477  0.5059774830319  0.3594976535117 1.0
C      1  0.4913108773486  0.5053895513962  0.7654577240491 1.0
C      1  0.7353700922627  0.5060267229938  0.3740724076876 1.0
C      1  0.2726296506979  0.4940245822215  0.6404999911399 1.0
C      1  0.4913120258688  0.4946093361373  0.2345423158501 1.0
C      1  0.7353686619255  0.4939743488622  0.6259286156982 1.0
C      1  0.5476969243880  0.1945179260176  0.5843579675898 1.0
C      1  0.5489675767662  0.1936808349869  0.4177793548895 1.0
C      1  0.4036794552968  0.1937753257745  0.5001044434528 1.0
C      1  0.5476972443725  0.8054827259763  0.4156441209159 1.0
C      1  0.5489674266017  0.8063185886548  0.5822228294579 1.0
C      1  0.4036792438318  0.8062241160549  0.4998961285787 1.0
C      1  0.6880677964571  0.7434142933090  0.3889496270730 1.0
C      1  0.3101968352770  0.7433419461411  0.3927979808987 1.0
C      1  0.5022160029022  0.7421147196086  0.7159737996998 1.0
C      1  0.6880664295166  0.2565876783754  0.6110519590397 1.0
C      1  0.3101952457029  0.2566575632083  0.6072023972590 1.0
C      1  0.5022165273586  0.2578845935980  0.2840278769003 1.0
C      1  0.4988328940846  0.6090904418537  0.5510056869866 1.0
C      1  0.5504664796703  0.6176608932804  0.4741322428810 1.0
C      1  0.4502425503941  0.6177506077006  0.4720737626262 1.0
C      1  0.4988346322321  0.3909112251507  0.4489913854336 1.0
C      1  0.5504660215072  0.3823435844929  0.5258647541732 1.0
C      1  0.4502429177352  0.3822469100792  0.5279240516196 1.0
C      1  0.3946728817835  0.5301483754479  0.7512068068158 1.0
C      1  0.7713438139162  0.5305131729852  0.4649360976508 1.0
C      1  0.3332853458174  0.5306293738838  0.2829800084785 1.0
C      1  0.3946739871390  0.4698512639166  0.2487941745875 1.0
C      1  0.7713428622263  0.4694882790003  0.5350644847195 1.0
C      1  0.3332846008221  0.4693714856126  0.7170188633460 1.0
C      1  0.5977144721371  0.8035862534951  0.5013776784442 1.0
C      1  0.4532205952516  0.8031807014561  0.4139352128431 1.0
C      1  0.4496169231579  0.8038234370734  0.5823428822553 1.0
C      1  0.5977143508626  0.1964150668117  0.4986249935331 1.0
C      1  0.4532202628591  0.1968192514192  0.5860660748860 1.0
C      1  0.4496171921732  0.1961760725592  0.4176583076300 1.0
C      1  0.7643032467779  0.6294951987885  0.4682182400895 1.0
C      1  0.3399629655848  0.6293337536361  0.2872936442118 1.0
C      1  0.3954902610450  0.6288270591215  0.7428348163541 1.0
C      1  0.7643004954935  0.3705055566705  0.5317819653121 1.0
C      1  0.3399618076940  0.3706670891899  0.7127046069931 1.0
C      1  0.3954899359984  0.3711726059948  0.2571674423825 1.0
END
