TITL C-23704-1646-22 -6.506 3375.00 -1129.91571909 0 0 137 (C1) n - 1
REM
REM Run started: at 2020.12.14 01:21:44 in /gpfs/home/chem/mssmkc/CARBON/AIRSS/Generating-Clusters/Str-Search/Higher-Symm
REM VASP from code version vasp.5.4.4.18Apr17-6-g9f103f2a35 (build Oct 11 2019 16:45:47) gamma-only
REM
REM
REM
REM
REM ./C.cell (e5ae0387ce4d49c7c0135a1433873289)
REM AIRSS Version 0.9.1 bugfix July 2018 build 013d7b7c2542+ Fri, 06 Jul 2018 19:26:36 +0100
REM compiler GCC version 6.3.0
REM options -cpp -iprefix /gpfs/warwick/csc/orac/software/Core/GCCcore/6.3.0/bin/../lib/gcc/x86_64-pc-linux-gnu/6.3.0/ -mtune=generic -march=x86-64 -g -O0
REM seed 647476488 1441906205 1631052173 147098456 -1874161049 415363842 -208574514 529487455 -2125354756 148631477 647068320 1912140347
REM
REM C.POTCAR (d86ddea03c3ceb6dc662c8ad6801f873)
REM 
CELL 1.54180   15.00000   15.00000   15.00000   90.00000   90.00000   90.00000
LATT -1
SFAC C  
C      1  0.2043424020794  0.6012824491801  0.2964606922460 1.0
C      1  0.2469435930528  0.2375976217936  0.5410499193546 1.0
C      1  0.2452605605392  0.6329071673512  0.7326999771730 1.0
C      1  0.9330384002005  0.4333063197990  0.6246072741205 1.0
C      1  0.8997674520881  0.7029914726618  0.4677094123858 1.0
C      1  0.8959835984904  0.4093212616475  0.2939006433521 1.0
C      1  0.5131592743928  0.3114735434978  0.7350217070082 1.0
C      1  0.4800687104151  0.7938511957144  0.5476018005628 1.0
C      1  0.4623927939893  0.3899599355993  0.2171465145356 1.0
C      1  0.5392033703951  0.5903638074807  0.7611185272289 1.0
C      1  0.4970775316380  0.6793884855522  0.2910940359328 1.0
C      1  0.5355378637438  0.2115225396200  0.4474798021398 1.0
C      1  0.2102703530610  0.3938361957111  0.6687663500051 1.0
C      1  0.1913731270248  0.6596170396079  0.5390558576521 1.0
C      1  0.1862549067001  0.4138720818922  0.3730264310166 1.0
C      1  0.6020163616115  0.2449015290903  0.5061483458177 1.0
C      1  0.6035561928079  0.6443545755891  0.7124065575676 1.0
C      1  0.5658035623730  0.6156560910109  0.2643279555017 1.0
C      1  0.3741427171030  0.4021055720906  0.4774699766457 1.0
C      1  0.3862138554036  0.5137577830423  0.6160017590171 1.0
C      1  0.3663704688089  0.5795382957842  0.4426706045470 1.0
C      1  0.6337520405995  0.7995497515177  0.4532730576514 1.0
C      1  0.6257788766070  0.3255112393155  0.2425707752650 1.0
C      1  0.6740435169963  0.3880351318040  0.7640365793257 1.0
C      1  0.3565889321168  0.7263575481644  0.3462986168828 1.0
C      1  0.3883586390881  0.2433386252210  0.3954486761506 1.0
C      1  0.3999569073479  0.5237817102737  0.7940194649660 1.0
C      1  0.7428122371972  0.3732570848793  0.3445106784017 1.0
C      1  0.7904401228824  0.4764632420116  0.7020569713021 1.0
C      1  0.7563124333199  0.7146750900166  0.3975757764864 1.0
C      1  0.4742771735566  0.7127782169653  0.6248695994641 1.0
C      1  0.4449748449281  0.4955242059637  0.2535206060289 1.0
C      1  0.4910305742369  0.2841329879313  0.6300536753000 1.0
C      1  0.5213284844057  0.7689961362487  0.3323185434719 1.0
C      1  0.5456656900154  0.2184104680914  0.3524009211260 1.0
C      1  0.5692481969616  0.5087828496327  0.8127318461378 1.0
C      1  0.1805707068237  0.5960346336810  0.3867281755729 1.0
C      1  0.2068596986854  0.3141431576873  0.5055349710087 1.0
C      1  0.2104905342794  0.5583711589136  0.6884578616004 1.0
C      1  0.4794534567523  0.5397898376156  0.5846269115392 1.0
C      1  0.4629193529482  0.5497329252774  0.4228497484712 1.0
C      1  0.4745119171832  0.4012808088000  0.4933835120432 1.0
C      1  0.3232238351693  0.4652559761781  0.7779564123959 1.0
C      1  0.2836157530104  0.7327117071982  0.4126631570438 1.0
C      1  0.2947819742895  0.2804201465007  0.3635208037726 1.0
C      1  0.2969251057222  0.3042270976927  0.7688516090803 1.0
C      1  0.2641390415251  0.8013303696921  0.5592468444928 1.0
C      1  0.2506042356973  0.3642652393396  0.2336854423417 1.0
C      1  0.8820512592970  0.3207537292592  0.4273660121167 1.0
C      1  0.9108337448802  0.5836509558077  0.6710643794354 1.0
C      1  0.8832906562563  0.6420025142398  0.3199202946118 1.0
C      1  0.2405094511128  0.4726646359673  0.7204495670268 1.0
C      1  0.2100116628814  0.6696314187606  0.4423199590466 1.0
C      1  0.2219557166086  0.3289061826369  0.4112544412211 1.0
C      1  0.9106505138538  0.5756863325533  0.2788670671323 1.0
C      1  0.9050918135335  0.3232018384343  0.5094970369821 1.0
C      1  0.9288211854096  0.6473796784366  0.6216122828197 1.0
C      1  0.6237223531596  0.7503974802643  0.5961574893763 1.0
C      1  0.5935657464198  0.4725532580477  0.2012334444705 1.0
C      1  0.6448216323867  0.2905634178224  0.6511561197558 1.0
C      1  0.3196345082348  0.7915170120385  0.4853673530457 1.0
C      1  0.3146904774784  0.3113882470043  0.2740682172348 1.0
C      1  0.3592092223088  0.3713217903888  0.7866849326121 1.0
C      1  0.5743785739304  0.7993487019480  0.5309356906648 1.0
C      1  0.5541795340025  0.3832525913254  0.2035072609518 1.0
C      1  0.6077077396767  0.3221920925778  0.7342253031017 1.0
C      1  0.7192603045449  0.3442835118283  0.6200541494965 1.0
C      1  0.7030275405478  0.7082842011257  0.5610932118520 1.0
C      1  0.6794722673711  0.4722086442973  0.2400951536091 1.0
C      1  0.8460399944505  0.3570747005072  0.3521531026656 1.0
C      1  0.8802225489921  0.4946164127298  0.6772878353288 1.0
C      1  0.8472318445225  0.6915218863249  0.3904285647838 1.0
C      1  0.4959063308056  0.6912768903255  0.3917304542063 1.0
C      1  0.4455284572570  0.3212582838891  0.3573421132203 1.0
C      1  0.5311013033462  0.4973391688049  0.7196168739497 1.0
C      1  0.6848599713631  0.3010766972775  0.3820653634159 1.0
C      1  0.7217041249343  0.5343380843691  0.7430642818599 1.0
C      1  0.6809441423433  0.7043196778477  0.3381256052461 1.0
C      1  0.7329342705281  0.5378699543364  0.5486185769704 1.0
C      1  0.7239923433049  0.4684621134144  0.3891932882594 1.0
C      1  0.7297308666680  0.4636290844081  0.4893247163201 1.0
C      1  0.4542282860686  0.3679597713406  0.7882159189830 1.0
C      1  0.4141169129248  0.8063808448775  0.4786609008370 1.0
C      1  0.4138411539986  0.3151331111644  0.2624329175603 1.0
C      1  0.2144508039116  0.5700670994861  0.5853739332065 1.0
C      1  0.2021267335777  0.5020943499483  0.4260184577951 1.0
C      1  0.2189077769146  0.3974358611127  0.5662989528650 1.0
C      1  0.2326683448274  0.3186764900140  0.7162680434984 1.0
C      1  0.2097462461854  0.7397262634123  0.5792714111936 1.0
C      1  0.1960310552097  0.4075481574147  0.2828110371360 1.0
C      1  0.4546565792452  0.2318082017931  0.3144029495452 1.0
C      1  0.4793857756487  0.4613285517431  0.8041124121837 1.0
C      1  0.4349908206694  0.7764964198267  0.3866891175316 1.0
C      1  0.5364093952046  0.4689299170057  0.6328800535121 1.0
C      1  0.5146162545627  0.6314791851132  0.4573733570258 1.0
C      1  0.5009225949408  0.3895720635644  0.3934152607329 1.0
C      1  0.6896635417879  0.6060783345234  0.6917720428589 1.0
C      1  0.6548669048066  0.6205699016539  0.3026284729235 1.0
C      1  0.6758555432677  0.2982196748062  0.4734721973294 1.0
C      1  0.0018685917878  0.4704755347251  0.5669801917880 1.0
C      1  0.0107730701713  0.4955407422925  0.4741934512515 1.0
C      1  0.0839850595299  0.4851110606098  0.5311445432715 1.0
C      1  0.4180757483863  0.2400999690016  0.5682374089433 1.0
C      1  0.4095085018725  0.6766649542536  0.7017708400756 1.0
C      1  0.3712756011386  0.5736412256595  0.2548781772871 1.0
C      1  0.5332414821829  0.5364314778784  0.2284070345841 1.0
C      1  0.5804080348626  0.2569018393994  0.5962657032019 1.0
C      1  0.5686093518252  0.7096419856703  0.6580820627170 1.0
C      1  0.3990411081577  0.6602010477602  0.2803255078106 1.0
C      1  0.4423119286074  0.2170969059522  0.4797730573559 1.0
C      1  0.4415843549840  0.6117835107156  0.7624307936888 1.0
C      1  0.7441185958418  0.3931245746690  0.6977796740501 1.0
C      1  0.7143049226067  0.7493898666538  0.4766369651740 1.0
C      1  0.7008509197443  0.3818275996638  0.2552115503853 1.0
C      1  0.3265564146771  0.2724435107284  0.5692803328069 1.0
C      1  0.3182974909240  0.6511304111526  0.6810558808027 1.0
C      1  0.2849898566344  0.5587619405475  0.2974086856544 1.0
C      1  0.6984281338978  0.5296900685782  0.3161540043574 1.0
C      1  0.7179827339748  0.3690698598173  0.5277324338709 1.0
C      1  0.7208390837076  0.6170464822612  0.5956450283124 1.0
C      1  0.3605660098565  0.4474218662013  0.3988049204163 1.0
C      1  0.3870533467302  0.4223951718535  0.6172427888851 1.0
C      1  0.3707716509504  0.6219232090522  0.5227654097321 1.0
C      1  0.4689781302986  0.6365533166435  0.5505619015193 1.0
C      1  0.4515240808495  0.4724075327276  0.3565272312538 1.0
C      1  0.4820967762179  0.3865218864734  0.5987393978338 1.0
C      1  0.2996704834139  0.5208622633995  0.3930302022964 1.0
C      1  0.3231805312052  0.3752461762125  0.5609117153848 1.0
C      1  0.3192825367055  0.5888642602547  0.5987861872975 1.0
C      1  0.9249993135326  0.6951961549510  0.5458824345880 1.0
C      1  0.9116970156225  0.4869496067067  0.2690129587966 1.0
C      1  0.9053329876925  0.3505188838367  0.5927748052330 1.0
C      1  0.6217204685029  0.2651316591506  0.3191746416560 1.0
C      1  0.6597969346411  0.4775429895878  0.7943874850439 1.0
C      1  0.6133347920574  0.7737257900033  0.3647949459470 1.0
C      1  0.4803380951950  0.4965412482890  0.4995049154613 1.0
C      1  0.1844333565868  0.4883677185389  0.5280917706241 1.0
END
