TITL C-24123-9766-18 -8.699 3375.00 -1572.46936756 0 0 192 (C1) n - 1
REM
REM Run started: at 2021.01.04 18:51:20 in /gpfs/home/chem/mssmkc/CARBON/AIRSS/Generating-Clusters/Str-Search/Higher-Symm/C100-200
REM VASP from code version vasp.5.4.4.18Apr17-6-g9f103f2a35 (build Oct 11 2019 16:45:47) gamma-only
REM
REM
REM
REM
REM ./C.cell (533062f00bc710175b3da973d35f2034)
REM AIRSS Version 0.9.1 bugfix July 2018 build 013d7b7c2542+ Fri, 06 Jul 2018 19:26:36 +0100
REM compiler GCC version 6.3.0
REM options -cpp -iprefix /gpfs/warwick/csc/orac/software/Core/GCCcore/6.3.0/bin/../lib/gcc/x86_64-pc-linux-gnu/6.3.0/ -mtune=generic -march=x86-64 -g -O0
REM seed -18364740 -359169527 -1902932117 -929454089 1906736964 -676095756 -1697082121 -1723191672 1830977629 477453479 376018755 489437832
REM
REM C.POTCAR (d86ddea03c3ceb6dc662c8ad6801f873)
REM 
CELL 1.54180   15.00000   15.00000   15.00000   90.00000   90.00000   90.00000
LATT -1
SFAC C  
C      1  0.4639568085673  0.8667301247527  0.3900286358745 1.0
C      1  0.1519464502170  0.5929728791027  0.3893429239800 1.0
C      1  0.3142442888053  0.1996919624099  0.3913252135157 1.0
C      1  0.7223250600212  0.2292696292698  0.3886016490151 1.0
C      1  0.8212813759430  0.6742568168381  0.3869245480748 1.0
C      1  0.4647197815516  0.8625286744363  0.6107264523157 1.0
C      1  0.1479249488339  0.5922218907262  0.6167920765635 1.0
C      1  0.3090072881509  0.2048576093146  0.6006736467202 1.0
C      1  0.7279210907403  0.2035307064782  0.6361276102586 1.0
C      1  0.8205154756370  0.6674825594292  0.6183446584374 1.0
C      1  0.5190034646869  0.2670003197778  0.2968629318342 1.0
C      1  0.7513099279634  0.4632567404111  0.3024118883888 1.0
C      1  0.6011630440772  0.7123911198620  0.3272242863596 1.0
C      1  0.3470585488215  0.6297521530147  0.3519765128952 1.0
C      1  0.3426586210320  0.3774795419758  0.3407535526967 1.0
C      1  0.5116234431811  0.3191190984726  0.6618717652963 1.0
C      1  0.7444409988852  0.4514495109021  0.6732009457030 1.0
C      1  0.5934288757995  0.6985915813533  0.6645685410663 1.0
C      1  0.3438368090805  0.6320774529883  0.6625093242364 1.0
C      1  0.3204298937294  0.3877843867814  0.6805255160110 1.0
C      1  0.6067620710920  0.7272551986401  0.1825704565913 1.0
C      1  0.3110418051504  0.6756772856204  0.1908549861915 1.0
C      1  0.2619401297353  0.3978492554980  0.1549251445948 1.0
C      1  0.5619704836123  0.1069621490992  0.2531896543987 1.0
C      1  0.7432398245684  0.4354440970905  0.1659378766641 1.0
C      1  0.6034517591156  0.7217434159646  0.8169687969732 1.0
C      1  0.3064607920045  0.6868930243400  0.8226622083069 1.0
C      1  0.2613102283379  0.4006632386139  0.8496742954053 1.0
C      1  0.5182958297923  0.1910123473308  0.8059382153660 1.0
C      1  0.7327715325144  0.4458140449530  0.8305443065886 1.0
C      1  0.4615985898931  0.6755750918059  0.2494266660870 1.0
C      1  0.3122721588775  0.5273433380219  0.2330955705559 1.0
C      1  0.3882263111647  0.3206519039719  0.1942840719539 1.0
C      1  0.6278286632979  0.3488659839416  0.2194003490187 1.0
C      1  0.6861537744423  0.5897267909152  0.2202747096743 1.0
C      1  0.4577407730814  0.6791486026854  0.7639878943805 1.0
C      1  0.3005303712412  0.5424100202805  0.7865212216900 1.0
C      1  0.3887827383101  0.3098442888948  0.8038007247947 1.0
C      1  0.6195008313320  0.3744578144250  0.7579578275829 1.0
C      1  0.7216479746697  0.6010963161021  0.8331699262692 1.0
C      1  0.4887629119415  0.8254003502457  0.3031840316298 1.0
C      1  0.1803883306264  0.6033094768808  0.2923886011339 1.0
C      1  0.3245251285418  0.2077365723001  0.2961253084675 1.0
C      1  0.6845520525052  0.2156469843678  0.2953459314166 1.0
C      1  0.8090282598757  0.6442852690713  0.2962719098084 1.0
C      1  0.4894964921038  0.8207635403331  0.6963178597014 1.0
C      1  0.1744355373676  0.6057761589432  0.7131176068823 1.0
C      1  0.3099993344435  0.2226729374392  0.6937361732454 1.0
C      1  0.6708359745260  0.2281844506820  0.7140407409175 1.0
C      1  0.8082546120757  0.6482476699009  0.7115029828633 1.0
C      1  0.8101396034834  0.4758795395072  0.2212019295350 1.0
C      1  0.5810525807233  0.7880641120069  0.2601810205513 1.0
C      1  0.2246703987073  0.6782776913615  0.2421874672367 1.0
C      1  0.2365457620894  0.3505087252202  0.2293327649344 1.0
C      1  0.6437604431792  0.1316240182597  0.2562715077281 1.0
C      1  0.7858507795630  0.4836496973816  0.7581074331222 1.0
C      1  0.5831944902096  0.7768425176298  0.7356793712655 1.0
C      1  0.2200887361962  0.6839921618151  0.7630231431915 1.0
C      1  0.2210161409505  0.3403441386856  0.7900842286565 1.0
C      1  0.5927083335549  0.2048242813328  0.7652299135922 1.0
C      1  0.4229572748374  0.4498418663842  0.8942280647823 1.0
C      1  0.5209791676301  0.4345226325595  0.8804306725965 1.0
C      1  0.5812561989578  0.5142638028045  0.8917919584468 1.0
C      1  0.5162550902495  0.5835673291130  0.8816763873438 1.0
C      1  0.4210657729259  0.5483305085194  0.8720699004372 1.0
C      1  0.4247967482430  0.4512381174950  0.1060038717433 1.0
C      1  0.5166735705015  0.4262592215472  0.1176341205856 1.0
C      1  0.5727563323122  0.5038894530377  0.1269094756758 1.0
C      1  0.5174130313954  0.5784010319166  0.1276302625727 1.0
C      1  0.4224584299322  0.5493695512688  0.1163247817755 1.0
C      1  0.6068165539240  0.6168621708038  0.2839739688760 1.0
C      1  0.4315185902698  0.5958093459701  0.3104168078781 1.0
C      1  0.4259660947016  0.4334759704760  0.3259934713706 1.0
C      1  0.4769782199151  0.3062612682124  0.2168925892262 1.0
C      1  0.6500422535187  0.4427147326695  0.2752419560711 1.0
C      1  0.5957862433160  0.6000950102065  0.6890510247659 1.0
C      1  0.4267375771493  0.5969078202551  0.7070425969390 1.0
C      1  0.4061369141920  0.4359157688634  0.7063081297441 1.0
C      1  0.4597740281333  0.3595604708052  0.7459066246895 1.0
C      1  0.6518537232304  0.4349778220288  0.6830941243706 1.0
C      1  0.8886095570312  0.5322176871790  0.4503159584872 1.0
C      1  0.6278893590512  0.8717684288347  0.4541081304651 1.0
C      1  0.2204336450116  0.7418782216027  0.4570984658954 1.0
C      1  0.1853982941611  0.3184973734716  0.4506248348845 1.0
C      1  0.5959384200758  0.1334772359775  0.4587863880859 1.0
C      1  0.9060036942325  0.5313559234151  0.5472793030983 1.0
C      1  0.6269213262036  0.8687786017735  0.5468864212837 1.0
C      1  0.2201075812846  0.7410542413118  0.5493961366830 1.0
C      1  0.1815211414470  0.3149858013740  0.5430762571778 1.0
C      1  0.5926102982154  0.1381304732747  0.5511331852946 1.0
C      1  0.4849191264947  0.5766163812246  0.3948249907193 1.0
C      1  0.4466351776883  0.4852343202918  0.4163600632813 1.0
C      1  0.5105060781569  0.4161923133974  0.3865094219867 1.0
C      1  0.6040814230644  0.4600357293961  0.3678060074076 1.0
C      1  0.5865069253517  0.5649345693187  0.3739837080833 1.0
C      1  0.4776373871865  0.5673029603827  0.6169972970631 1.0
C      1  0.4415643203313  0.4692008127972  0.6152010303459 1.0
C      1  0.5161603362545  0.4013717537733  0.5930712874174 1.0
C      1  0.6050943322900  0.4537438605071  0.5948103824084 1.0
C      1  0.5850021507265  0.5580125362321  0.6007851783706 1.0
C      1  0.3632343839521  0.4685234680117  0.4655828158529 1.0
C      1  0.4928190653330  0.3319598964861  0.4361898835803 1.0
C      1  0.6786717189938  0.4301658940901  0.4360153773505 1.0
C      1  0.6358270662293  0.6222601012600  0.4443533230110 1.0
C      1  0.4487466609443  0.6450380157773  0.4601940848646 1.0
C      1  0.3598376031904  0.4639898627357  0.5563845064633 1.0
C      1  0.4857757189792  0.3350158756651  0.5250492272787 1.0
C      1  0.6795723904868  0.4353878422375  0.5275296168148 1.0
C      1  0.6282366272317  0.6216665294040  0.5340328521822 1.0
C      1  0.4411301204910  0.6375978309784  0.5518650834468 1.0
C      1  0.5271364654500  0.8847309108747  0.5489755720049 1.0
C      1  0.1665114786938  0.6536059545593  0.5518776381968 1.0
C      1  0.2498405130832  0.2388243383764  0.5416787157388 1.0
C      1  0.6850316035262  0.1769888420512  0.5588582290952 1.0
C      1  0.8648495233450  0.6223832372142  0.5513446402922 1.0
C      1  0.5272456426868  0.8869812241405  0.4521387458754 1.0
C      1  0.1676016743943  0.6544993332424  0.4540870529198 1.0
C      1  0.2528374221390  0.2401075251370  0.4462921850315 1.0
C      1  0.6873044643697  0.1815413850350  0.4586902176833 1.0
C      1  0.8597162250900  0.6266565479553  0.4536172196532 1.0
C      1  0.1557875001272  0.4927704812583  0.3780127878029 1.0
C      1  0.4127692299613  0.1718574125957  0.3915085899743 1.0
C      1  0.7704765266789  0.3109565121935  0.3529237290701 1.0
C      1  0.7516827783748  0.7446625718849  0.3733018656341 1.0
C      1  0.3710689463276  0.8322285509209  0.3784487804650 1.0
C      1  0.1499244489047  0.4915911227001  0.6307865270208 1.0
C      1  0.4102819019925  0.1813202316900  0.6091660775908 1.0
C      1  0.7977588457635  0.2590856777952  0.6771567076866 1.0
C      1  0.7439912873940  0.7344866015392  0.6239258269398 1.0
C      1  0.3707115489855  0.8331663103502  0.6257244514496 1.0
C      1  0.3198183102066  0.3044030996887  0.2651233832198 1.0
C      1  0.6081203654855  0.2766348465125  0.2821061818039 1.0
C      1  0.7737625566378  0.5588000652881  0.2616517786128 1.0
C      1  0.5093571073046  0.7323890303505  0.3135733152700 1.0
C      1  0.2787160447515  0.6039611271753  0.2929803984496 1.0
C      1  0.3016280780336  0.3082520626040  0.7420766823986 1.0
C      1  0.5957650886606  0.2925581287445  0.7056807123232 1.0
C      1  0.7935335178261  0.5761127028238  0.7718053829062 1.0
C      1  0.5057363810298  0.7269498563410  0.6928481641912 1.0
C      1  0.2715348350834  0.6082155966087  0.7166885596181 1.0
C      1  0.7631266535508  0.4418488003804  0.5807662551667 1.0
C      1  0.6514799334759  0.7035738243634  0.5854063461790 1.0
C      1  0.3658894693512  0.6830815544897  0.5900893954298 1.0
C      1  0.2874535759161  0.4211070189181  0.6012680905079 1.0
C      1  0.4722618026596  0.2618097016875  0.5882737525508 1.0
C      1  0.7696506772790  0.4116494620442  0.3867117110120 1.0
C      1  0.6602648546390  0.7095290919222  0.4040148893169 1.0
C      1  0.3693850824288  0.6848428807037  0.4206047950749 1.0
C      1  0.2981798397640  0.4204123627273  0.4114835883846 1.0
C      1  0.4823470383472  0.2481457621976  0.3882739583276 1.0
C      1  0.7589934475844  0.7177922752377  0.2663331843146 1.0
C      1  0.3881560991559  0.8061254027061  0.2857606736803 1.0
C      1  0.1678968334150  0.5012719747081  0.2842445173204 1.0
C      1  0.4054395164515  0.1501769985542  0.2907395778645 1.0
C      1  0.7552760518834  0.2885138421985  0.2619823807145 1.0
C      1  0.7480927356729  0.7180670953237  0.7304717550983 1.0
C      1  0.3883927629647  0.8096857025044  0.7188978686796 1.0
C      1  0.1648939377240  0.5017202491701  0.7254722385742 1.0
C      1  0.3907741834409  0.1823091548079  0.7116506655902 1.0
C      1  0.7456304451441  0.2865495729165  0.7524902432340 1.0
C      1  0.4729712526987  0.1098637117418  0.2462155633384 1.0
C      1  0.7220324030616  0.3444018945404  0.1862054189201 1.0
C      1  0.6933402189486  0.6918508161898  0.1964803902967 1.0
C      1  0.3802488082730  0.7328660059831  0.2222733974182 1.0
C      1  0.2341177896202  0.4581930755053  0.2265919216799 1.0
C      1  0.4318316162541  0.2146368467822  0.7924618164879 1.0
C      1  0.7068496993153  0.3579558319169  0.8045295679543 1.0
C      1  0.6929258915005  0.6911709906450  0.8092295268127 1.0
C      1  0.3759354790682  0.7399563488470  0.7841614080334 1.0
C      1  0.2295052945659  0.4722473350132  0.7951337747395 1.0
C      1  0.5407198377959  0.6477413802226  0.1938109444767 1.0
C      1  0.3430943804952  0.5864281704428  0.1560526401772 1.0
C      1  0.3585258533260  0.3883953293854  0.1336468403172 1.0
C      1  0.5424550980433  0.3546172689204  0.1689285071822 1.0
C      1  0.6560922731873  0.5003329479328  0.1798315147481 1.0
C      1  0.5297897949731  0.6633669298031  0.8341403619852 1.0
C      1  0.3325944604333  0.6016036174987  0.8618216850291 1.0
C      1  0.3587060149707  0.3852393769242  0.8730192269734 1.0
C      1  0.5349161781826  0.3900082777824  0.8037973174807 1.0
C      1  0.6751388981412  0.5196204985731  0.8645718964352 1.0
C      1  0.4975515467127  0.1633695951044  0.4480396142858 1.0
C      1  0.8465788300536  0.4466213732162  0.4409199435696 1.0
C      1  0.6929448701403  0.7937712452300  0.4458884128016 1.0
C      1  0.3208783722004  0.7685857932086  0.4481374173729 1.0
C      1  0.2002623096845  0.4202144668599  0.4417148183530 1.0
C      1  0.4948529884663  0.1690156552198  0.5518694834966 1.0
C      1  0.8446936866874  0.4528427981212  0.5366760446001 1.0
C      1  0.6905840347281  0.7895573628532  0.5526315456979 1.0
C      1  0.3203516580889  0.7680797036359  0.5597184882936 1.0
C      1  0.1948240937882  0.4173977639738  0.5620367860246 1.0
C      1  0.3953306809520  0.5202835507906  0.7632987224525 1.0
C      1  0.4013971464400  0.5093701249497  0.2738064792414 1.0
END
