TITL C-243451-7506-2 -8.067 3375.00 -1319.22160360 0 0 163 (C2) n - 1
REM
REM Run started: at 2020.12.19 11:40:11 in /rds/project/t2_vol4/rds-t2-cs072/BORA/CARBON/AIRSS/Generating-Clusters/Str-Search/Higher-Symm/C100-200
REM VASP from code version vasp.5.4.4.18Apr17-6-g9f103f2a35 (build Oct 11 2019 16:45:47) gamma-only
REM
REM
REM
REM
REM ./C.cell (533062f00bc710175b3da973d35f2034)
REM AIRSS Version 0.9.1 bugfix July 2018 build 013d7b7c2542+ Fri, 06 Jul 2018 19:26:36 +0100
REM compiler GCC version 4.8.5 20150623 (Red Hat 4.8.5-39)
REM options -cpp -mtune=generic -march=x86-64 -g -O0
REM seed 1130673374 58872703 -65710669 -2134131799 -321794199 1349654091 1390683977 2100454582 906049074 -842439380 -1940066083 278944746
REM
REM C.POTCAR (d86ddea03c3ceb6dc662c8ad6801f873)
REM 
CELL 1.54180   15.00000   15.00000   15.00000   90.00000   90.00000   90.00000
LATT -1
SFAC C  
C      1  0.7349589845503  0.4035634343366  0.4991078923863 1.0
C      1  0.2732348853172  0.5033726071530  0.5962606610030 1.0
C      1  0.7350053339890  0.5948307493802  0.4995502372478 1.0
C      1  0.2732407400651  0.4950071201332  0.4020651092427 1.0
C      1  0.1745869094477  0.4874963922066  0.6162285177790 1.0
C      1  0.8331558818034  0.6222586910386  0.5138570335495 1.0
C      1  0.1746173919733  0.5109404996653  0.3819794640493 1.0
C      1  0.8331718003890  0.3760113041243  0.4849417318214 1.0
C      1  0.6182658438299  0.2741152161862  0.5407045420731 1.0
C      1  0.3867961573330  0.5412572848462  0.7313985576095 1.0
C      1  0.6184171941629  0.7242464908264  0.4576825798166 1.0
C      1  0.3868184663136  0.4570893911385  0.2670966115881 1.0
C      1  0.3788694600448  0.6384210500601  0.3949715502453 1.0
C      1  0.6066083051437  0.4403584717101  0.3918721047465 1.0
C      1  0.3788609032813  0.3601055741807  0.6033731675618 1.0
C      1  0.6065981333888  0.5581191366570  0.6068173330737 1.0
C      1  0.4723857146660  0.5270142114581  0.1521608515353 1.0
C      1  0.5290496684940  0.1532215889247  0.4820307903904 1.0
C      1  0.4723425986620  0.4713176647904  0.8463337197802 1.0
C      1  0.5292668400207  0.8451001662968  0.5164596405355 1.0
C      1  0.1796007275016  0.6221923006348  0.5311257352477 1.0
C      1  0.8377820326485  0.5309731380598  0.3820442743602 1.0
C      1  0.1795822771331  0.3763173333674  0.4673020100996 1.0
C      1  0.8376472508235  0.4675426895980  0.6165924734861 1.0
C      1  0.4099736326630  0.1818568278508  0.6807518602375 1.0
C      1  0.5787466488733  0.6788604870460  0.8052860057977 1.0
C      1  0.4100095689611  0.8166107281732  0.3176507958822 1.0
C      1  0.5787830386678  0.3192742486786  0.1929889707857 1.0
C      1  0.7075747781869  0.8337153660707  0.5153341913158 1.0
C      1  0.2904199090480  0.5210902461478  0.1668459435176 1.0
C      1  0.7074081375847  0.1643497097933  0.4834520538875 1.0
C      1  0.2905000420835  0.4768959996068  0.8315414551374 1.0
C      1  0.2764413258421  0.5918595514373  0.5393485619676 1.0
C      1  0.7387717581175  0.5385766469787  0.4072365960010 1.0
C      1  0.2764097178840  0.4065375679859  0.4589871753041 1.0
C      1  0.7386452943065  0.4597467482771  0.5915023391206 1.0
C      1  0.4227771003893  0.5705857212740  0.4560549657226 1.0
C      1  0.5617432200920  0.4688582235569  0.4664002212164 1.0
C      1  0.4227044579850  0.4278611754070  0.5423060459400 1.0
C      1  0.5617221485033  0.5296199840844  0.5322611016745 1.0
C      1  0.5105915900438  0.7799887465208  0.5892925339564 1.0
C      1  0.4916855590415  0.5951369030171  0.2200152277562 1.0
C      1  0.5103491755202  0.2183291629134  0.4091256196132 1.0
C      1  0.4916194791141  0.4032151547814  0.7784500624842 1.0
C      1  0.2967528960161  0.9149402141424  0.5561231525083 1.0
C      1  0.7123022998893  0.5503085746085  0.0944052860380 1.0
C      1  0.2965405548857  0.0825687909386  0.4428976693676 1.0
C      1  0.7119273273436  0.4476938487770  0.9040488715128 1.0
C      1  0.6941185560698  0.3293854466955  0.5499128998082 1.0
C      1  0.3165974685363  0.5524684050325  0.6713750599309 1.0
C      1  0.6941947377933  0.6689402370322  0.4485751361728 1.0
C      1  0.3165366006458  0.4457304813764  0.3270246285500 1.0
C      1  0.6509731491905  0.2452168269647  0.3091701266388 1.0
C      1  0.3580422278716  0.3277002855116  0.7002639760767 1.0
C      1  0.6511452934654  0.7530943519267  0.6894121850871 1.0
C      1  0.3580910821198  0.6707737018701  0.2980304842053 1.0
C      1  0.6634492533114  0.6815049802952  0.7558681586557 1.0
C      1  0.3311693281749  0.7621324097830  0.3326477427494 1.0
C      1  0.6633875617712  0.3167515900694  0.2426407278345 1.0
C      1  0.3311900603703  0.2363616239199  0.6655256300194 1.0
C      1  0.4619891796596  0.8729945170672  0.3703542463313 1.0
C      1  0.5377352943039  0.3770788956144  0.1336331511883 1.0
C      1  0.4619443807518  0.1253959801287  0.6281604499728 1.0
C      1  0.5375866378392  0.6212565688432  0.8647547149264 1.0
C      1  0.3302483332185  0.3625653400068  0.3800692925576 1.0
C      1  0.6886695699654  0.3802055066608  0.6364306798825 1.0
C      1  0.3303311367407  0.6356844671156  0.6183024734628 1.0
C      1  0.6887085982593  0.6179095743797  0.3621686003370 1.0
C      1  0.5487189528613  0.4652710876611  0.3163462591555 1.0
C      1  0.4547147772608  0.3302025505796  0.5396600077029 1.0
C      1  0.5486480889608  0.5330545908816  0.6821907327142 1.0
C      1  0.4548038294627  0.6681647115777  0.4587110735331 1.0
C      1  0.6285307372768  0.2199313367411  0.7929165693289 1.0
C      1  0.3449777477507  0.7585084519449  0.7460697227341 1.0
C      1  0.6286139469530  0.7782614553497  0.2056681268756 1.0
C      1  0.3450243127686  0.2395475134684  0.2525291469684 1.0
C      1  0.1733512787650  0.4193185189792  0.6891576416839 1.0
C      1  0.8279311407459  0.6962506298475  0.5784945819660 1.0
C      1  0.1734363666058  0.5790852313905  0.3089831401082 1.0
C      1  0.8278010448848  0.3019689300545  0.4203211497536 1.0
C      1  0.5468319205084  0.4698775539146  0.1326468861378 1.0
C      1  0.4540126962657  0.1282839367966  0.5335062020303 1.0
C      1  0.5467416698792  0.5284625735362  0.8657779223053 1.0
C      1  0.4541467757479  0.8699236464674  0.4650257327757 1.0
C      1  0.4643192646065  0.5789046675935  0.6835027622602 1.0
C      1  0.5463318204187  0.6746808380651  0.4149181961272 1.0
C      1  0.4643415715544  0.4194661423855  0.3149995110731 1.0
C      1  0.5462192786455  0.3237177024889  0.5834491484723 1.0
C      1  0.2020226759356  0.3218558174636  0.6789464380545 1.0
C      1  0.7899933660904  0.6895890406423  0.6667673850566 1.0
C      1  0.2020023857087  0.6766339954811  0.3190361423865 1.0
C      1  0.7898080055210  0.3087594000698  0.3320207196634 1.0
C      1  0.7321769401485  0.2336980848139  0.3499470859831 1.0
C      1  0.2695091104767  0.3603075989040  0.7287483860150 1.0
C      1  0.7324320778453  0.7647269062463  0.6488183205926 1.0
C      1  0.2695842985398  0.6381517546488  0.2693938055372 1.0
C      1  0.2767341891582  0.1575159346635  0.4976781227391 1.0
C      1  0.7241117946127  0.5027505607810  0.8271157044800 1.0
C      1  0.2768785817529  0.8404712355155  0.5007293252312 1.0
C      1  0.7241404590313  0.4955235850417  0.1715637885733 1.0
C      1  0.6209751511889  0.1843138901451  0.5091932571433 1.0
C      1  0.3793214771750  0.4989808650160  0.8174338777241 1.0
C      1  0.6212157756265  0.8139962255432  0.4893511798070 1.0
C      1  0.3793447832949  0.4993278925979  0.1810675148733 1.0
C      1  0.5490241503316  0.7957942163474  0.2178497373881 1.0
C      1  0.4249115000894  0.2488651516562  0.2264397120098 1.0
C      1  0.5488614584206  0.2027740295521  0.7808456187227 1.0
C      1  0.4249998323179  0.7494102107780  0.7717350184154 1.0
C      1  0.7766781432392  0.5439535894588  0.7562413008938 1.0
C      1  0.2205481833025  0.7715712930185  0.4615149854057 1.0
C      1  0.7766686126058  0.4543925074472  0.2424888044669 1.0
C      1  0.2205590726895  0.2267650200639  0.5365034597649 1.0
C      1  0.2422806829611  0.2491242718721  0.6289547011263 1.0
C      1  0.7482931516204  0.6347726329213  0.7342359808477 1.0
C      1  0.2422158500452  0.7494008441987  0.3690622991564 1.0
C      1  0.7481890223894  0.3635710442794  0.2644879681737 1.0
C      1  0.5164257609889  0.2559585120871  0.2406351337514 1.0
C      1  0.4642566777823  0.2311104923362  0.7504430872714 1.0
C      1  0.5164858849162  0.7421118311552  0.7575664998552 1.0
C      1  0.4643856139636  0.7673336971655  0.2480744881413 1.0
C      1  0.1224323455862  0.4540088403674  0.4393756259363 1.0
C      1  0.8904930164143  0.4336292484453  0.5350741589797 1.0
C      1  0.1224009284710  0.5446240546666  0.5590472943259 1.0
C      1  0.8905532836326  0.5648016815592  0.4636363662754 1.0
C      1  0.2501178146681  0.2301660741443  0.2766058006634 1.0
C      1  0.6976277373705  0.2686350799477  0.7613839176460 1.0
C      1  0.2500610608580  0.7676799015033  0.7221953910789 1.0
C      1  0.6977053396861  0.7294019261511  0.2370100895168 1.0
C      1  0.4388263125779  0.6777162564457  0.2404903896478 1.0
C      1  0.5570652789509  0.2252049541354  0.3208709774308 1.0
C      1  0.4387213568936  0.3206856965446  0.7579411107913 1.0
C      1  0.5572544470830  0.7729742410411  0.6774604952183 1.0
C      1  0.6401250866121  0.5020660929192  0.1346775572654 1.0
C      1  0.3633237598452  0.1266776247676  0.4957742297449 1.0
C      1  0.6399881536699  0.4962556822986  0.8637226726382 1.0
C      1  0.3634776214131  0.8712905327043  0.5028345448629 1.0
C      1  0.7670529399926  0.2144976001392  0.4383520606442 1.0
C      1  0.2341363189659  0.4357318241050  0.7751494829513 1.0
C      1  0.7673860092091  0.7838828867735  0.5604392201281 1.0
C      1  0.2342214470422  0.5626793118104  0.2230856550872 1.0
C      1  0.8374881894710  0.5007500341704  0.6998767597492 1.0
C      1  0.1721274152154  0.7069358732018  0.5044854582598 1.0
C      1  0.8375251418748  0.4977363152288  0.2987687097356 1.0
C      1  0.1721342819814  0.2914360637324  0.4935633703700 1.0
C      1  0.4316059514034  0.3593327034128  0.3795126825219 1.0
C      1  0.5862210735232  0.3813501792622  0.6440491392093 1.0
C      1  0.4316592976050  0.6390586445320  0.6189195612739 1.0
C      1  0.5862890358804  0.6168644280114  0.3544531725357 1.0
C      1  0.2937637470880  0.7101377167208  0.6714679444597 1.0
C      1  0.7228430134561  0.6663775576223  0.2840735924286 1.0
C      1  0.2938308021026  0.2878909166676  0.3270970172072 1.0
C      1  0.7230219085906  0.3315373157611  0.7142999939399 1.0
C      1  0.6979254767601  0.5478676556535  0.5806343316703 1.0
C      1  0.3225633715705  0.5762310417164  0.4509568296115 1.0
C      1  0.6979889843851  0.4505103958440  0.4180431700493 1.0
C      1  0.3225397657510  0.4222287825460  0.5474113755798 1.0
C      1  0.4647068712090  0.7045706234522  0.5577550552923 1.0
C      1  0.5453518141992  0.5595275634549  0.2891683737832 1.0
C      1  0.4646038090483  0.2937975865078  0.4406675813804 1.0
C      1  0.5452755004319  0.4387818334483  0.7092870143870 1.0
C      1  0.9589969535919  0.4992475448804  0.4994279921637 1.0
C      1  0.0539678185256  0.4992904702540  0.4992262442769 1.0
C      1  0.4738990136176  0.4992488166804  0.4992759659633 1.0
END
