TITL C-24123-9766-17 -5.4 3375.00 -901.87541493 0 0 110 (C2) n - 1
REM
REM Run started: at 2021.01.04 17:43:52 in /gpfs/home/chem/mssmkc/CARBON/AIRSS/Generating-Clusters/Str-Search/Higher-Symm/C100-200
REM VASP from code version vasp.5.4.4.18Apr17-6-g9f103f2a35 (build Oct 11 2019 16:45:47) gamma-only
REM
REM
REM
REM
REM ./C.cell (533062f00bc710175b3da973d35f2034)
REM AIRSS Version 0.9.1 bugfix July 2018 build 013d7b7c2542+ Fri, 06 Jul 2018 19:26:36 +0100
REM compiler GCC version 6.3.0
REM options -cpp -iprefix /gpfs/warwick/csc/orac/software/Core/GCCcore/6.3.0/bin/../lib/gcc/x86_64-pc-linux-gnu/6.3.0/ -mtune=generic -march=x86-64 -g -O0
REM seed -1144828376 -516946760 -1523236307 696332007 -1765241754 -388840926 450680200 1235900642 1696007775 1612449517 -166972359 -1506103097
REM
REM C.POTCAR (d86ddea03c3ceb6dc662c8ad6801f873)
REM 
CELL 1.54180   15.00000   15.00000   15.00000   90.00000   90.00000   90.00000
LATT -1
SFAC C  
C      1  0.4365574211127  0.5499936428163  0.6177087350101 1.0
C      1  0.5175647227944  0.5898465900368  0.6276410235258 1.0
C      1  0.5971829574088  0.5502947595688  0.6103108347604 1.0
C      1  0.6210540748473  0.5916636789310  0.5325470190992 1.0
C      1  0.6062556114652  0.5923220202492  0.4502616486574 1.0
C      1  0.5634422081960  0.5499953058013  0.3822936337056 1.0
C      1  0.4824344597610  0.5898462405991  0.3723602249326 1.0
C      1  0.4028160396708  0.5502943638587  0.3896890173532 1.0
C      1  0.3789491842430  0.5916636367529  0.4674540528417 1.0
C      1  0.3937462929793  0.5923212457438  0.5497388195873 1.0
C      1  0.3803174831359  0.2178951552074  0.6039982803141 1.0
C      1  0.4684062643381  0.2222531045697  0.6463734742119 1.0
C      1  0.5671446179501  0.2238494364983  0.6373184394764 1.0
C      1  0.6426929266040  0.2164391622215  0.5764983943478 1.0
C      1  0.6631867809200  0.2106247322291  0.4820039770050 1.0
C      1  0.6196837492646  0.2178957583679  0.3960018525697 1.0
C      1  0.5315945943582  0.2222524376636  0.3536268832932 1.0
C      1  0.4328566057129  0.2238488611928  0.3626814584460 1.0
C      1  0.3573092862340  0.2164382524718  0.4235007777307 1.0
C      1  0.3368163959776  0.2106231997975  0.5179948006024 1.0
C      1  0.3565181516895  0.5897144967943  0.7756236377281 1.0
C      1  0.5263935358055  0.5919451293412  0.8135923580964 1.0
C      1  0.7176067717017  0.5802574003720  0.7392059958620 1.0
C      1  0.8197714167797  0.5705638408067  0.5632743671182 1.0
C      1  0.7849705500337  0.5751839546923  0.3736559098940 1.0
C      1  0.6434810714143  0.5897153822868  0.2243765944319 1.0
C      1  0.4736059176631  0.5919451708913  0.1864075660893 1.0
C      1  0.2823925402417  0.5802560026624  0.2607939969117 1.0
C      1  0.1802290053164  0.5705583187898  0.4367268492003 1.0
C      1  0.2150298575952  0.5751813689580  0.6263405057142 1.0
C      1  0.3436285320614  0.4235270312101  0.4678432432186 1.0
C      1  0.3562860377248  0.4232772438548  0.5585464329754 1.0
C      1  0.4231566382280  0.4491257860994  0.6303313779716 1.0
C      1  0.5199998191553  0.4188375112928  0.6573057387492 1.0
C      1  0.6123688034780  0.4499177094586  0.6214016352269 1.0
C      1  0.6563715860810  0.4235271734967  0.5321567003884 1.0
C      1  0.6437134380853  0.4232777953721  0.4414534150493 1.0
C      1  0.5768431759380  0.4491273904816  0.3696691682648 1.0
C      1  0.4800001903121  0.4188377304070  0.3426945360379 1.0
C      1  0.3876307138078  0.4499173141495  0.3785983514013 1.0
C      1  0.3473997824450  0.5077398570578  0.7692717680217 1.0
C      1  0.5282999683461  0.5099773778852  0.8063952164229 1.0
C      1  0.7216501547324  0.4933608634459  0.7363669428516 1.0
C      1  0.8107117277724  0.4886295352987  0.5592382982816 1.0
C      1  0.7813845556225  0.4904472968167  0.3725738474979 1.0
C      1  0.6525998321019  0.5077407969224  0.2307282525939 1.0
C      1  0.4716994186507  0.5099769874891  0.1936050027233 1.0
C      1  0.2783493935619  0.4933594685747  0.2636325991428 1.0
C      1  0.1892888135523  0.4886355382681  0.4407598642856 1.0
C      1  0.2186147297491  0.4904448646695  0.6274260656620 1.0
C      1  0.5053105092874  0.6758727876920  0.2190007419734 1.0
C      1  0.3028144861417  0.6622703657661  0.2737397557592 1.0
C      1  0.2010483060936  0.6587320208211  0.4376887258959 1.0
C      1  0.2384057203409  0.6591348750207  0.6256759989723 1.0
C      1  0.3987462176221  0.6743090505120  0.7605388918539 1.0
C      1  0.4946883259129  0.6758728434802  0.7809997450274 1.0
C      1  0.6971839845560  0.6622716980723  0.7262609559048 1.0
C      1  0.7989528698314  0.6587277772359  0.5623129124964 1.0
C      1  0.7615941683134  0.6591369934871  0.3743238148066 1.0
C      1  0.6012526296901  0.6743094174966  0.2394616672508 1.0
C      1  0.7497559238153  0.7236260574265  0.5481690092313 1.0
C      1  0.7025921790369  0.7262095220361  0.3712204048834 1.0
C      1  0.6291458393472  0.7335169669242  0.3061713460921 1.0
C      1  0.4528487588246  0.7342149094569  0.2696350782621 1.0
C      1  0.3598702581116  0.7271215194348  0.3001788996733 1.0
C      1  0.2502422075948  0.7236273736473  0.4518313879145 1.0
C      1  0.2974067124075  0.7262079372485  0.6287799647364 1.0
C      1  0.3708524051122  0.7335161464939  0.6938293192405 1.0
C      1  0.5471496080611  0.7342156469544  0.7303656154111 1.0
C      1  0.6401282775255  0.7271227615383  0.6998215237061 1.0
C      1  0.6080939537468  0.4288758111191  0.2678114067624 1.0
C      1  0.5014155465229  0.4330754734455  0.2415867745895 1.0
C      1  0.3157888894792  0.4237718525068  0.3050016226071 1.0
C      1  0.2383378536885  0.4116460842159  0.4730231976443 1.0
C      1  0.2527351494028  0.4133651220721  0.5811445441399 1.0
C      1  0.3919057853183  0.4288749074821  0.7321888825569 1.0
C      1  0.4985846627347  0.4330756860470  0.7584135440388 1.0
C      1  0.6842111174325  0.4237731355979  0.6949982492386 1.0
C      1  0.7616626232236  0.4116474021176  0.5269763024580 1.0
C      1  0.7472646515082  0.4133674287456  0.4188546986630 1.0
C      1  0.3207751598367  0.2813971920111  0.6593625613164 1.0
C      1  0.4512360611798  0.2847653137514  0.7188620789176 1.0
C      1  0.6006380931977  0.2881234733714  0.7057894235803 1.0
C      1  0.7153198047699  0.2759161516019  0.6166091237423 1.0
C      1  0.7487008325248  0.2637363830034  0.4715994700280 1.0
C      1  0.6792253958586  0.2813982419801  0.3406370581976 1.0
C      1  0.5487650072982  0.2847655819334  0.2811380041149 1.0
C      1  0.3993625015713  0.2881226119404  0.2942101961205 1.0
C      1  0.2846812172365  0.2759150452435  0.3833897583581 1.0
C      1  0.2513013965089  0.2637354943003  0.5284000477482 1.0
C      1  0.5206129270545  0.7780911582637  0.6466079813963 1.0
C      1  0.6141943865289  0.7722402923909  0.6138919875858 1.0
C      1  0.6662675236399  0.7686487635776  0.5333221560679 1.0
C      1  0.6458311336229  0.7736071635460  0.4394030457972 1.0
C      1  0.5722890927606  0.7781780217271  0.3726851009063 1.0
C      1  0.4793853668990  0.7780907344340  0.3533925109307 1.0
C      1  0.3858041988357  0.7722399147455  0.3861084415692 1.0
C      1  0.3337316447010  0.7686490571892  0.4666785436838 1.0
C      1  0.3541676328175  0.7736066748766  0.5605976885769 1.0
C      1  0.4277094073991  0.7781778765778  0.6273156863607 1.0
C      1  0.4740036123769  0.3414755359839  0.2658191749240 1.0
C      1  0.3153640069383  0.3242029904282  0.3089829566628 1.0
C      1  0.2319695537044  0.3125409862751  0.4515136924758 1.0
C      1  0.2522401533454  0.3152215380848  0.6059759544332 1.0
C      1  0.3699994668885  0.3284240170978  0.7240911936963 1.0
C      1  0.5259968052387  0.3414752511253  0.7341815953076 1.0
C      1  0.6846370609713  0.3242046262081  0.6910161205285 1.0
C      1  0.7680316848891  0.3125426363643  0.5484841420525 1.0
C      1  0.7477605917951  0.3152250552715  0.3940209715328 1.0
C      1  0.6300008523063  0.3284247201782  0.2759087663147 1.0
END
