TITL C-24094-3863-5 -4.147 3375.00 -701.51445757 0 0 85 (C1) n - 1
REM
REM Run started: at 2020.11.30 22:09:52 in /rds/project/t2_vol4/rds-t2-cs072/BORA/CARBON/AIRSS/Generating-Clusters/Str-Search/Higher-Symm/C10-100
REM VASP from code version vasp.5.4.4.18Apr17-6-g9f103f2a35 (build Oct 11 2019 16:45:47) gamma-only
REM
REM
REM
REM
REM ./C.cell (f39ce9773e2efe3fa5bbdf770a4156b8)
REM AIRSS Version 0.9.1 bugfix July 2018 build 013d7b7c2542+ Fri, 06 Jul 2018 19:26:36 +0100
REM compiler GCC version 4.8.5 20150623 (Red Hat 4.8.5-39)
REM options -cpp -mtune=generic -march=x86-64 -g -O0
REM seed -86568604 -278072033 -1326403493 -1414769532 -1270371013 -59106864 1048730011 1021076976 931618824 1163501157 -373110215 1956569982
REM
REM C.POTCAR (d86ddea03c3ceb6dc662c8ad6801f873)
REM 
CELL 1.54180   15.00000   15.00000   15.00000   90.00000   90.00000   90.00000
LATT -1
SFAC C  
C      1  0.6873608485052  0.7251258875449  0.5026553411222 1.0
C      1  0.6894920584078  0.6238177463672  0.3076247293286 1.0
C      1  0.6932897390895  0.3794380476723  0.2959859514317 1.0
C      1  0.6954858529909  0.2679462917313  0.5066642151313 1.0
C      1  0.6869134728818  0.3784434852782  0.6935272039960 1.0
C      1  0.6917900902272  0.5992762663515  0.7047285253790 1.0
C      1  0.3098871617025  0.7221737101500  0.5048454581920 1.0
C      1  0.3082145189069  0.6229638053540  0.3105762351138 1.0
C      1  0.3048186221290  0.3820682289596  0.2993926080504 1.0
C      1  0.3070188002613  0.2718518611928  0.5040441966116 1.0
C      1  0.3062083736913  0.3734181285404  0.6874430838537 1.0
C      1  0.2997678951582  0.6139964505311  0.6938971092422 1.0
C      1  0.4275429088408  0.4067152429159  0.4598428636969 1.0
C      1  0.4657978630143  0.4320081567734  0.5496837233416 1.0
C      1  0.4305567113275  0.5086421448759  0.6011112963172 1.0
C      1  0.4547364371702  0.5746704126722  0.5363841704345 1.0
C      1  0.4645170273356  0.5561204558258  0.4435488817745 1.0
C      1  0.4246091346327  0.4769504164617  0.4009829897184 1.0
C      1  0.5844360096320  0.4022864412662  0.4496222134504 1.0
C      1  0.5598359899935  0.4329705228553  0.5383356123991 1.0
C      1  0.6019019576122  0.5147210519908  0.5661293213032 1.0
C      1  0.6075434673322  0.5824456735484  0.5035283468126 1.0
C      1  0.5594819803939  0.5563410316898  0.4260032772443 1.0
C      1  0.5841482447662  0.4714212539345  0.3882196278866 1.0
C      1  0.4504248204134  0.2908239657409  0.6735143813177 1.0
C      1  0.4441428747939  0.5305060256782  0.7026884777939 1.0
C      1  0.4520656562406  0.7505846779756  0.5889827520826 1.0
C      1  0.4498972291737  0.7040629985696  0.3392915490520 1.0
C      1  0.4445082924731  0.4660210884478  0.3000491062052 1.0
C      1  0.4489285580584  0.3098318957873  0.4323960320477 1.0
C      1  0.5476839016397  0.2925763197947  0.6752986368065 1.0
C      1  0.5435726989545  0.5341261629005  0.7347021356263 1.0
C      1  0.5474453469089  0.7511509354098  0.5863907752227 1.0
C      1  0.5470102779892  0.7054479494921  0.3376180618658 1.0
C      1  0.5529577244097  0.4629475447344  0.2928869480289 1.0
C      1  0.5559384764350  0.3064801918394  0.4292518228722 1.0
C      1  0.4510581839714  0.2508676054184  0.5833440945656 1.0
C      1  0.4461460398655  0.4337280671281  0.7433815230364 1.0
C      1  0.4472932618701  0.6856412389449  0.6637932737559 1.0
C      1  0.4501233977842  0.7529141196496  0.4263858481227 1.0
C      1  0.4518333084023  0.5620803695451  0.2613225258125 1.0
C      1  0.4522744270499  0.3123656723775  0.3296317227507 1.0
C      1  0.5502051991347  0.2517883464850  0.5842255789745 1.0
C      1  0.5409376680920  0.4366339967795  0.7487327766581 1.0
C      1  0.5472173882656  0.6663571713668  0.6494979946736 1.0
C      1  0.5471854050743  0.7556573190003  0.4246695403161 1.0
C      1  0.5441521303285  0.5618521014708  0.2580986467278 1.0
C      1  0.5466007406136  0.3093811882070  0.3258436348104 1.0
C      1  0.2343138802971  0.5815790610384  0.6557145574842 1.0
C      1  0.2439245223246  0.6734078324322  0.5021272656848 1.0
C      1  0.2423418633921  0.5884016420401  0.3450098053318 1.0
C      1  0.2344538799648  0.4067377977786  0.3368228012171 1.0
C      1  0.2372904920859  0.3146081181342  0.4937399317736 1.0
C      1  0.2396090381774  0.4029544985845  0.6497601162304 1.0
C      1  0.7582074929593  0.5831943642853  0.6581733527635 1.0
C      1  0.7517954041762  0.6735991659038  0.5026370083446 1.0
C      1  0.7533380491956  0.5886075611410  0.3453831750553 1.0
C      1  0.7618033052462  0.4052215587642  0.3363528268364 1.0
C      1  0.7635091962823  0.3131194204382  0.4958829906101 1.0
C      1  0.7528654627101  0.4032041700118  0.6511503765456 1.0
C      1  0.5972918431326  0.3631940168337  0.7169439888288 1.0
C      1  0.5993144661129  0.6067757114004  0.7174502062409 1.0
C      1  0.5991015477469  0.7584128399746  0.5037737972584 1.0
C      1  0.5976257581741  0.6377430977202  0.2932288687505 1.0
C      1  0.6025831874055  0.3719685788164  0.2761577369319 1.0
C      1  0.6032446133045  0.2554579531100  0.5076933260438 1.0
C      1  0.3955863770042  0.3588788346080  0.7119000252845 1.0
C      1  0.3924433619472  0.6209517863792  0.7023882493138 1.0
C      1  0.3985485077057  0.7531203720200  0.5063885766445 1.0
C      1  0.3990305425760  0.6378152537363  0.2949056465272 1.0
C      1  0.3950766327364  0.3766349070071  0.2837124127921 1.0
C      1  0.3989346520421  0.2575934272742  0.5066533537966 1.0
C      1  0.1987091982247  0.5443321076047  0.4153303064545 1.0
C      1  0.1962278593795  0.4477815015370  0.4116767538609 1.0
C      1  0.1942783046763  0.3982547392309  0.4949268948700 1.0
C      1  0.1943555183821  0.4451272034502  0.5785817311421 1.0
C      1  0.1932686411560  0.5413817616691  0.5816148107931 1.0
C      1  0.1986623683560  0.5908250845486  0.4992004557856 1.0
C      1  0.7965310852585  0.5440913796355  0.4161677214216 1.0
C      1  0.7987570296510  0.4474658566707  0.4122310424024 1.0
C      1  0.8012677092370  0.3992459932739  0.4961852884019 1.0
C      1  0.7978533127025  0.4461125897291  0.5802999017996 1.0
C      1  0.7992211514378  0.5427405734199  0.5835551183877 1.0
C      1  0.7976566212369  0.5909490332601  0.5003867229415 1.0
C      1  0.5437694496573  0.6011472393115  0.5731423344911 1.0
END
