TITL C-24094-3863-31 -5.062 3375.00 -773.83283286 0 0 94 (C1) n - 1
REM
REM Run started: at 2020.12.01 06:58:27 in /rds/project/t2_vol4/rds-t2-cs072/BORA/CARBON/AIRSS/Generating-Clusters/Str-Search/Higher-Symm/C10-100
REM VASP from code version vasp.5.4.4.18Apr17-6-g9f103f2a35 (build Oct 11 2019 16:45:47) gamma-only
REM
REM
REM
REM
REM ./C.cell (f39ce9773e2efe3fa5bbdf770a4156b8)
REM AIRSS Version 0.9.1 bugfix July 2018 build 013d7b7c2542+ Fri, 06 Jul 2018 19:26:36 +0100
REM compiler GCC version 4.8.5 20150623 (Red Hat 4.8.5-39)
REM options -cpp -mtune=generic -march=x86-64 -g -O0
REM seed 544493234 -531800825 707622535 -1686442836 1263786409 -1432549980 -759819368 1551449488 886371251 1925220262 368152762 1962377003
REM
REM C.POTCAR (d86ddea03c3ceb6dc662c8ad6801f873)
REM 
CELL 1.54180   15.00000   15.00000   15.00000   90.00000   90.00000   90.00000
LATT -1
SFAC C  
C      1  0.6754948089980  0.4434920891120  0.3645961072662 1.0
C      1  0.3669409741879  0.3788524072909  0.3868201076320 1.0
C      1  0.4687670226089  0.6778586574168  0.3557671992362 1.0
C      1  0.5012702690947  0.2615245180393  0.7768551720476 1.0
C      1  0.3233971563236  0.6657050705184  0.7558076520027 1.0
C      1  0.7350358538534  0.6088915762485  0.7695629157618 1.0
C      1  0.5827692805596  0.3496227738399  0.6838999808976 1.0
C      1  0.3013281336286  0.5031517161614  0.7043818339372 1.0
C      1  0.6030912196601  0.6673470367905  0.6939356984906 1.0
C      1  0.5107005760074  0.6375461678436  0.1402659588640 1.0
C      1  0.5970060484895  0.4129134473346  0.1811419597320 1.0
C      1  0.3656189776704  0.4283657062030  0.1132833357791 1.0
C      1  0.5005714532594  0.3918200477102  0.8909091720355 1.0
C      1  0.4281283372764  0.5947243031760  0.8795335361863 1.0
C      1  0.6078574653793  0.5352712554681  0.8603699791730 1.0
C      1  0.7662165320157  0.6185813447613  0.5148103486845 1.0
C      1  0.4575726174741  0.2176288598724  0.5286073601301 1.0
C      1  0.2766837462952  0.6633309638016  0.5150560350651 1.0
C      1  0.5055823988074  0.2842437486550  0.6792127140850 1.0
C      1  0.3000495592055  0.6105800428347  0.6780112680013 1.0
C      1  0.6954646799523  0.6270326458227  0.6751281702012 1.0
C      1  0.3528306312750  0.3228457417754  0.6094899775292 1.0
C      1  0.4263495401850  0.6674073760951  0.5865870290391 1.0
C      1  0.7177420905102  0.4810984705576  0.5920842126962 1.0
C      1  0.2860694998855  0.4278776314379  0.3553828471495 1.0
C      1  0.5445772899610  0.7453883503663  0.3399572709463 1.0
C      1  0.6818587458161  0.3437999809312  0.3452621012124 1.0
C      1  0.7272104225638  0.3729373052037  0.4857655575359 1.0
C      1  0.2630185676214  0.3698976500147  0.4953729171698 1.0
C      1  0.5003965114996  0.7506979318027  0.4846719647776 1.0
C      1  0.5450285297663  0.4623525435687  0.8296415239218 1.0
C      1  0.3584305653456  0.5237447339992  0.8594963806177 1.0
C      1  0.5176186895366  0.5655233049262  0.8267156953032 1.0
C      1  0.6563873506773  0.3216680153585  0.2529309350259 1.0
C      1  0.2888526472126  0.4471458052555  0.2667623366061 1.0
C      1  0.5620256471860  0.7525434287857  0.2513974283846 1.0
C      1  0.4839795751029  0.6220453018720  0.0499991044583 1.0
C      1  0.6897045757731  0.3726924731581  0.1703994067093 1.0
C      1  0.4124382875842  0.4146014892107  0.0415575940354 1.0
C      1  0.5256644543426  0.2306898568758  0.5952342505779 1.0
C      1  0.2453417015661  0.6123519509377  0.5929643464390 1.0
C      1  0.7271599982317  0.6708066982544  0.5885813806240 1.0
C      1  0.3808260368108  0.2746838124248  0.5315950498280 1.0
C      1  0.3692023857709  0.6783770343072  0.5086319381197 1.0
C      1  0.7471702796245  0.5255419980793  0.5125470136721 1.0
C      1  0.2760037669066  0.3794208578658  0.5892902802258 1.0
C      1  0.5019646507194  0.7225393943145  0.5755153454077 1.0
C      1  0.7053669097334  0.3876878786253  0.5751734209454 1.0
C      1  0.5848661338278  0.7226456425383  0.6223986622132 1.0
C      1  0.6452596871012  0.3281055297466  0.6191695614012 1.0
C      1  0.2477763340900  0.4596829567097  0.6300219046659 1.0
C      1  0.6424253255298  0.2350154135612  0.4731154970587 1.0
C      1  0.1852330180360  0.5068651179933  0.4758042439555 1.0
C      1  0.6579160556796  0.7690252980024  0.4700399753506 1.0
C      1  0.6870448531173  0.5681606359503  0.8263891711647 1.0
C      1  0.4983186431242  0.3084113493667  0.8449323958977 1.0
C      1  0.3715712187653  0.6582363842943  0.8233547588344 1.0
C      1  0.5875691512573  0.5174920016920  0.6925546018385 1.0
C      1  0.4532833266690  0.4319191338100  0.6858609076928 1.0
C      1  0.3988248445835  0.5084259273044  0.6706559338025 1.0
C      1  0.5399372288611  0.7155017337233  0.1783809249576 1.0
C      1  0.5641207101000  0.3413008898508  0.2422965821485 1.0
C      1  0.3262890415172  0.4402605588564  0.1895283643967 1.0
C      1  0.2088031803918  0.5260836368266  0.5714818593392 1.0
C      1  0.6643290608797  0.7365536961294  0.5635805489475 1.0
C      1  0.6137193275124  0.2502849380454  0.5657786063245 1.0
C      1  0.5834084073813  0.4712111551761  0.3249724977775 1.0
C      1  0.4538008960454  0.4172666707720  0.3635471143795 1.0
C      1  0.4798514735784  0.5932533360812  0.3112915093419 1.0
C      1  0.4529954402714  0.6143188375224  0.9740052972251 1.0
C      1  0.7650278119297  0.3901039294151  0.1288532847403 1.0
C      1  0.4585240170547  0.4052592598441  0.9700819127671 1.0
C      1  0.5203540451107  0.5743214475033  0.2198299709686 1.0
C      1  0.5755084703888  0.4990935288673  0.2259112901690 1.0
C      1  0.5295085657482  0.3827673326344  0.3224992971557 1.0
C      1  0.4266016354398  0.3462177285677  0.6654696718658 1.0
C      1  0.3959752437528  0.5967485718686  0.6454700388140 1.0
C      1  0.6697548569053  0.5330321688502  0.6537292694414 1.0
C      1  0.2268369815373  0.4322008865717  0.4360293296869 1.0
C      1  0.5722455426882  0.7743075051331  0.4289114093006 1.0
C      1  0.6951123590367  0.3024633431843  0.4299041920548 1.0
C      1  0.7780784237641  0.6745844330959  0.4410475285160 1.0
C      1  0.4959912639354  0.1808377607652  0.4517196063397 1.0
C      1  0.2164845075710  0.6562097854610  0.4439447924397 1.0
C      1  0.7359772060755  0.7446547209813  0.4242933280740 1.0
C      1  0.5767492869999  0.1836078756367  0.4307853508129 1.0
C      1  0.1713526472873  0.5874663915809  0.4306809027486 1.0
C      1  0.5507098372956  0.5940011696543  0.7351292936843 1.0
C      1  0.5478994041784  0.4344900716883  0.7249591660775 1.0
C      1  0.3147021649861  0.4876573395012  0.7991262967379 1.0
C      1  0.3408571506156  0.3232913329385  0.4585290721537 1.0
C      1  0.4285269608903  0.7065717226255  0.4376764072960 1.0
C      1  0.7292973885396  0.4605322583256  0.4409515274911 1.0
C      1  0.4947986079935  0.5084102964482  0.3615407277843 1.0
END
