TITL C-24094-3863-27 -0.437 3375.00 -73.29522308 0 0 12 (Oh) n - 1
REM
REM Run started: at 2020.12.01 05:00:09 in /rds/project/t2_vol4/rds-t2-cs072/BORA/CARBON/AIRSS/Generating-Clusters/Str-Search/Higher-Symm/C10-100
REM VASP from code version vasp.5.4.4.18Apr17-6-g9f103f2a35 (build Oct 11 2019 16:45:47) gamma-only
REM
REM
REM
REM
REM ./C.cell (f39ce9773e2efe3fa5bbdf770a4156b8)
REM AIRSS Version 0.9.1 bugfix July 2018 build 013d7b7c2542+ Fri, 06 Jul 2018 19:26:36 +0100
REM compiler GCC version 4.8.5 20150623 (Red Hat 4.8.5-39)
REM options -cpp -mtune=generic -march=x86-64 -g -O0
REM seed 1223250110 -668781298 -1785125560 -1653166536 913836637 1675184702 -1705031602 1601857809 -256300593 -13943047 -574201101 -2069207185
REM
REM C.POTCAR (d86ddea03c3ceb6dc662c8ad6801f873)
REM 
CELL 1.54180   15.00000   15.00000   15.00000   90.00000   90.00000   90.00000
LATT -1
SFAC C  
C      1  0.4241314001985  0.5755811504085  0.5000000957777 1.0
C      1  0.5755813544751  0.5000000687987  0.4241315268355 1.0
C      1  0.5000001443766  0.4241314463925  0.5755812415438 1.0
C      1  0.5758686338564  0.4244188356592  0.4999999770599 1.0
C      1  0.5755810070219  0.5000000608381  0.5758687886181 1.0
C      1  0.4244186143901  0.4999999179594  0.5758684947106 1.0
C      1  0.4244190065393  0.4999999510981  0.4241311831500 1.0
C      1  0.4999998334217  0.5758685750629  0.4244187582045 1.0
C      1  0.4241314070267  0.4244188368045  0.5000000256843 1.0
C      1  0.5758685908129  0.5755811584567  0.4999999115413 1.0
C      1  0.4999996570197  0.4241314478466  0.4244187543752 1.0
C      1  0.5000003508611  0.5758685506748  0.5755812424993 1.0
END
