TITL C-24123-9766-5 -8.365 3375.00 -1447.30343030 0 0 176 (C1) n - 1
REM
REM Run started: at 2021.01.04 08:21:36 in /gpfs/home/chem/mssmkc/CARBON/AIRSS/Generating-Clusters/Str-Search/Higher-Symm/C100-200
REM VASP from code version vasp.5.4.4.18Apr17-6-g9f103f2a35 (build Oct 11 2019 16:45:47) gamma-only
REM
REM
REM
REM
REM ./C.cell (533062f00bc710175b3da973d35f2034)
REM AIRSS Version 0.9.1 bugfix July 2018 build 013d7b7c2542+ Fri, 06 Jul 2018 19:26:36 +0100
REM compiler GCC version 6.3.0
REM options -cpp -iprefix /gpfs/warwick/csc/orac/software/Core/GCCcore/6.3.0/bin/../lib/gcc/x86_64-pc-linux-gnu/6.3.0/ -mtune=generic -march=x86-64 -g -O0
REM seed 964605511 487129420 -946446100 1798789339 -1059641494 473424583 938482517 1819206302 940867517 -2139240607 -1166798880 -1329021030
REM
REM C.POTCAR (d86ddea03c3ceb6dc662c8ad6801f873)
REM 
CELL 1.54180   15.00000   15.00000   15.00000   90.00000   90.00000   90.00000
LATT -1
SFAC C  
C      1  0.8213959393701  0.6834383596731  0.4287158233017 1.0
C      1  0.4842106144141  0.1306670412015  0.4235866251235 1.0
C      1  0.1882958233559  0.6885249870493  0.4204460197631 1.0
C      1  0.8328343397253  0.3665869084249  0.4715046973456 1.0
C      1  0.2188753075901  0.2626039833936  0.4922413858867 1.0
C      1  0.4342574662796  0.8612142592108  0.4819043195409 1.0
C      1  0.8631187076093  0.4851845314098  0.6790590383101 1.0
C      1  0.4068654002226  0.2125661976883  0.6482298667709 1.0
C      1  0.3026878908600  0.7245172393007  0.6408481606581 1.0
C      1  0.6601481905856  0.3824817941518  0.1773063103895 1.0
C      1  0.3224143953405  0.4092257913958  0.1699467926299 1.0
C      1  0.5932502382413  0.6967849540857  0.1833592767680 1.0
C      1  0.7078064115592  0.6839495038955  0.8190703122927 1.0
C      1  0.5343721538366  0.2490803837831  0.8067361100888 1.0
C      1  0.3057275946875  0.5796392965863  0.7908450965555 1.0
C      1  0.8599942218853  0.5615537603601  0.5235564621828 1.0
C      1  0.3629828468630  0.1369554902787  0.5227467656068 1.0
C      1  0.2542963611209  0.7941010119285  0.5154147921079 1.0
C      1  0.3619314729187  0.3720503644551  0.5013255380302 1.0
C      1  0.4588516438106  0.6803969597699  0.4777324745704 1.0
C      1  0.7024376709279  0.4466989628978  0.5133049016052 1.0
C      1  0.4828072129746  0.6912372386526  0.8395445374267 1.0
C      1  0.6324907880131  0.4598078337951  0.8421316141685 1.0
C      1  0.3771847408117  0.3824407274069  0.8620875638790 1.0
C      1  0.4640490819592  0.8341033555023  0.6518693333518 1.0
C      1  0.7381859426236  0.3596863344664  0.6347034403096 1.0
C      1  0.2416901360591  0.3097703552459  0.6589760463548 1.0
C      1  0.4395459571992  0.3126874831469  0.5064927341654 1.0
C      1  0.3675954113473  0.6448044869318  0.4897273841845 1.0
C      1  0.7017954707515  0.5430848939578  0.5173955000777 1.0
C      1  0.3528319862509  0.7119066203550  0.1423976754263 1.0
C      1  0.6731339875846  0.6454368267843  0.1842850009057 1.0
C      1  0.4256876910560  0.2362017529537  0.1442816290606 1.0
C      1  0.3682250365844  0.1976785926473  0.3028618218080 1.0
C      1  0.3034653574906  0.7609628091540  0.2926740808419 1.0
C      1  0.7878819409245  0.5530817555853  0.3113256594365 1.0
C      1  0.5835903761185  0.8481190316708  0.5459321258680 1.0
C      1  0.7458521389169  0.2386830471377  0.5339268072279 1.0
C      1  0.1665025158848  0.4057727689428  0.5478089359401 1.0
C      1  0.6082292554324  0.2395096608811  0.4370486600661 1.0
C      1  0.2186877787774  0.5251606324364  0.4388464303573 1.0
C      1  0.6779199103611  0.7388519594981  0.4539810562040 1.0
C      1  0.7035343480151  0.5963020158773  0.6008698075231 1.0
C      1  0.4681751912636  0.2790337653390  0.5968975480952 1.0
C      1  0.3309658354045  0.6432508866338  0.5828401000319 1.0
C      1  0.3934820422057  0.5864567496731  0.6299728168790 1.0
C      1  0.6154549415172  0.5720282376191  0.6444792984168 1.0
C      1  0.5038092317680  0.3647875117186  0.6441073946675 1.0
C      1  0.8496969291223  0.4414116353034  0.4092538178534 1.0
C      1  0.2662434893342  0.2174250832115  0.4208302877096 1.0
C      1  0.3724066972775  0.8398489651152  0.4096203346897 1.0
C      1  0.7335052349395  0.5921795782968  0.8061038991426 1.0
C      1  0.4344828379341  0.2365664946652  0.8128608906435 1.0
C      1  0.3317149950073  0.6748452506097  0.7989256096287 1.0
C      1  0.6125861465940  0.5578804261660  0.3037592816274 1.0
C      1  0.4946033925306  0.3780347003399  0.2845924381819 1.0
C      1  0.3909095887609  0.5559475864699  0.2729476053851 1.0
C      1  0.5292619076840  0.8809178155910  0.4694339505656 1.0
C      1  0.8047557771536  0.2744555138533  0.4586036270048 1.0
C      1  0.1561424665107  0.3377108950821  0.4770486846494 1.0
C      1  0.4513474841188  0.4090562508362  0.3775842571867 1.0
C      1  0.4371469812788  0.5821758134560  0.3618873936596 1.0
C      1  0.6029258876634  0.5055638765389  0.3918569789705 1.0
C      1  0.0934145360871  0.4495959969895  0.3689333248355 1.0
C      1  0.6621658740521  0.8791148268489  0.3647498621393 1.0
C      1  0.7320374664054  0.1676659578449  0.3531906537050 1.0
C      1  0.1595959226863  0.5949199260252  0.3955862267028 1.0
C      1  0.7628425795056  0.7600194956028  0.4031553337713 1.0
C      1  0.5759241342738  0.1555991875820  0.3915009314926 1.0
C      1  0.2536076311577  0.2478487365801  0.5823950268106 1.0
C      1  0.4041979686856  0.8428553912008  0.5739383695912 1.0
C      1  0.7968553452027  0.4089279399127  0.5561591614372 1.0
C      1  0.3158523147423  0.8032225065321  0.5833945746164 1.0
C      1  0.8512375002196  0.4914674224496  0.5900706501727 1.0
C      1  0.3297425987255  0.1894398101029  0.5907162922009 1.0
C      1  0.7545624825011  0.6723955116688  0.5954171278881 1.0
C      1  0.4937812515924  0.1766696747918  0.6032081068829 1.0
C      1  0.2293163958925  0.6599598760998  0.5993697675245 1.0
C      1  0.5855826582983  0.3324167025023  0.4097671232399 1.0
C      1  0.3070725457440  0.5039062950579  0.3986917309450 1.0
C      1  0.6405481135040  0.6599770972919  0.4163982241747 1.0
C      1  0.8404747498671  0.6008911913329  0.3758098388340 1.0
C      1  0.3982723051901  0.1411549950843  0.3747459075214 1.0
C      1  0.2408157432377  0.7565825896227  0.3678395419194 1.0
C      1  0.4191199820717  0.5559706237658  0.1733713037756 1.0
C      1  0.5816812935328  0.5235334189218  0.2106621940898 1.0
C      1  0.4817284069882  0.3985080281980  0.1819998055757 1.0
C      1  0.4921778140506  0.3424343661982  0.4386437425068 1.0
C      1  0.3621382636946  0.5809160545812  0.4251681191191 1.0
C      1  0.6516111158525  0.5751676731598  0.4467626150769 1.0
C      1  0.1983967452629  0.5811996439560  0.6559625771623 1.0
C      1  0.7181638571495  0.7437818563255  0.6558629148128 1.0
C      1  0.5762450818200  0.1730315068033  0.6589086989475 1.0
C      1  0.2975733127287  0.4143690469151  0.2594900500003 1.0
C      1  0.5552069767154  0.7224582878758  0.2707192401054 1.0
C      1  0.6646519592958  0.3611217199182  0.2696318456932 1.0
C      1  0.2011972434465  0.7119130981922  0.5141806967542 1.0
C      1  0.8226405296700  0.6553901525044  0.5212222259139 1.0
C      1  0.4603723940631  0.1310135134362  0.5173791305611 1.0
C      1  0.3455147547415  0.7328950789795  0.7297067098501 1.0
C      1  0.8254342858796  0.4400899636525  0.7409218255954 1.0
C      1  0.3771434452487  0.2349115881878  0.7404660200321 1.0
C      1  0.5805676519077  0.6540197629474  0.3395563155117 1.0
C      1  0.5758599214626  0.3430317146243  0.3096067910131 1.0
C      1  0.3205829574622  0.5029935543331  0.2980430594730 1.0
C      1  0.5751926036312  0.4072704330588  0.7284289335123 1.0
C      1  0.3829788522198  0.4326932303929  0.7436019871008 1.0
C      1  0.5521274567137  0.6227267900587  0.7064660126163 1.0
C      1  0.1967056847287  0.3965372042016  0.6395834119574 1.0
C      1  0.5605621341209  0.8332665286761  0.6390295334203 1.0
C      1  0.7306609831843  0.2610465054039  0.6281319574364 1.0
C      1  0.8733363268356  0.5328133593544  0.4364048943209 1.0
C      1  0.3266209153941  0.1453918739883  0.4372166141979 1.0
C      1  0.2801155768160  0.8174138585035  0.4285598458265 1.0
C      1  0.2965028716754  0.2956545889423  0.7345329923838 1.0
C      1  0.4270337955182  0.7925996031589  0.7317732358184 1.0
C      1  0.7468812742437  0.3944381559215  0.7312536884989 1.0
C      1  0.1004922237457  0.5379609532089  0.3548052321462 1.0
C      1  0.7382980418271  0.8325321746041  0.3535660047219 1.0
C      1  0.6505013467423  0.1304428505548  0.3441035435465 1.0
C      1  0.6434535896607  0.7932668654483  0.5103976821616 1.0
C      1  0.6676117353551  0.2249383055500  0.4971346931130 1.0
C      1  0.1886504918212  0.4817324533215  0.5070860853372 1.0
C      1  0.6660459042782  0.3984513913499  0.7779257344829 1.0
C      1  0.3225688255978  0.3750508210298  0.7839411106305 1.0
C      1  0.4824212818418  0.7742708612662  0.8026122798172 1.0
C      1  0.5147287709804  0.5723373954764  0.1664799059798 1.0
C      1  0.5752395799876  0.4330773194480  0.1625377428702 1.0
C      1  0.4054227885206  0.4608613034709  0.1475635109037 1.0
C      1  0.3907462502712  0.7999662580431  0.3245529163603 1.0
C      1  0.7946376451620  0.4565735515924  0.3332445233963 1.0
C      1  0.2948682069930  0.2561530389559  0.3379407079962 1.0
C      1  0.5543100055083  0.6400827084206  0.7954496589924 1.0
C      1  0.5336720781954  0.4278514076946  0.8238639662666 1.0
C      1  0.4308800577103  0.4651614734514  0.8284680372331 1.0
C      1  0.5167146722799  0.6562970168187  0.1307710922475 1.0
C      1  0.6673013786376  0.4559398596265  0.1226431380225 1.0
C      1  0.3664419060274  0.3890457241119  0.0876154119129 1.0
C      1  0.5904824934428  0.2166467396432  0.7397093987569 1.0
C      1  0.2401034986422  0.5486589751101  0.7328048421907 1.0
C      1  0.6957714429072  0.7423809423185  0.7459142783784 1.0
C      1  0.5471539332355  0.5833892049969  0.5676691531115 1.0
C      1  0.5542780219646  0.4242625459670  0.5817925182989 1.0
C      1  0.4149737450054  0.5007798535472  0.5880265255040 1.0
C      1  0.4181661351163  0.6522303196082  0.1278290663897 1.0
C      1  0.6729161158999  0.5480300065455  0.1679340426041 1.0
C      1  0.4312295255394  0.3264222902514  0.1261874807979 1.0
C      1  0.5206166384531  0.3301922550507  0.8567290380050 1.0
C      1  0.3831784691596  0.5535503265228  0.8438539680727 1.0
C      1  0.6318658471866  0.6310680234708  0.8536658621484 1.0
C      1  0.4802957335193  0.6323344893416  0.6388527570978 1.0
C      1  0.6048844165947  0.4723166594087  0.6553852115844 1.0
C      1  0.4182652504430  0.4204656881167  0.6537448637194 1.0
C      1  0.5850485613128  0.8997640259903  0.3956795272815 1.0
C      1  0.7942191793758  0.2181172057742  0.3831750956117 1.0
C      1  0.1098729322963  0.3724487918648  0.4030101805320 1.0
C      1  0.6721636066326  0.5433068025633  0.8619184700259 1.0
C      1  0.4298996212235  0.3091228317195  0.8810619943316 1.0
C      1  0.4037362307870  0.6459273204405  0.8599786462723 1.0
C      1  0.2029044763993  0.4843721602470  0.6756063101681 1.0
C      1  0.6378824088513  0.7890848005583  0.6821973197983 1.0
C      1  0.6590389054496  0.2184654731189  0.6715227013068 1.0
C      1  0.4739006018854  0.7457459691791  0.3126295763947 1.0
C      1  0.7148771075168  0.4007053461454  0.3358097057573 1.0
C      1  0.2993218578804  0.3524197158531  0.3310404462975 1.0
C      1  0.6566422288693  0.4145874423953  0.4196284411851 1.0
C      1  0.3474744410720  0.4079391825680  0.4082306530542 1.0
C      1  0.4854401044738  0.6683372932381  0.3802934174235 1.0
C      1  0.5113578770238  0.6706506326132  0.5521990201469 1.0
C      1  0.6543668373437  0.4125615732412  0.5926600165858 1.0
C      1  0.3568222530684  0.4236446745685  0.5763994289102 1.0
C      1  0.4053203453082  0.2085213510135  0.2204360520326 1.0
C      1  0.3016393501463  0.7329143108931  0.2061486159729 1.0
C      1  0.7060509275617  0.5805901315110  0.2601207702970 1.0
C      1  0.5033603369097  0.4997241095859  0.5286077932240 1.0
C      1  0.4990016602525  0.4988294848250  0.4149154384262 1.0
END
