TITL C-24094-3863-3 -1.703 3375.00 -277.08865293 0 0 36 (C1) n - 1
REM
REM Run started: at 2020.11.30 21:29:16 in /rds/project/t2_vol4/rds-t2-cs072/BORA/CARBON/AIRSS/Generating-Clusters/Str-Search/Higher-Symm/C10-100
REM VASP from code version vasp.5.4.4.18Apr17-6-g9f103f2a35 (build Oct 11 2019 16:45:47) gamma-only
REM
REM
REM
REM
REM ./C.cell (f39ce9773e2efe3fa5bbdf770a4156b8)
REM AIRSS Version 0.9.1 bugfix July 2018 build 013d7b7c2542+ Fri, 06 Jul 2018 19:26:36 +0100
REM compiler GCC version 4.8.5 20150623 (Red Hat 4.8.5-39)
REM options -cpp -mtune=generic -march=x86-64 -g -O0
REM seed -1999937444 1096476682 1504146836 -1316075565 -228934862 -1787044412 -1033858357 1160205266 1114011334 -1081218210 -1394500132 -971233511
REM
REM C.POTCAR (d86ddea03c3ceb6dc662c8ad6801f873)
REM 
CELL 1.54180   15.00000   15.00000   15.00000   90.00000   90.00000   90.00000
LATT -1
SFAC C  
C      1  0.6894185223022  0.5374928675210  0.4665194746002 1.0
C      1  0.6898238082833  0.4363294350033  0.4790276001629 1.0
C      1  0.6829445350790  0.4989812705371  0.5520959921678 1.0
C      1  0.5491705871175  0.5519952130481  0.6838461307461 1.0
C      1  0.5458201177463  0.6129420057470  0.3623735973447 1.0
C      1  0.5518206524900  0.3197585847957  0.4687699331335 1.0
C      1  0.5613517150017  0.2576453777350  0.5414436813579 1.0
C      1  0.5649106641918  0.6478645517751  0.6996771039371 1.0
C      1  0.5537950554219  0.5904492472521  0.2721129283073 1.0
C      1  0.4703495952086  0.6237751187724  0.5843107943026 1.0
C      1  0.4683621778228  0.4912973407289  0.3883930810203 1.0
C      1  0.4642640800321  0.4071948611111  0.5479988484930 1.0
C      1  0.6122929791561  0.3911582440721  0.4458041659083 1.0
C      1  0.5963490266540  0.5164276924879  0.6000404218680 1.0
C      1  0.5952332704312  0.5724748532210  0.4408702605060 1.0
C      1  0.3319413420820  0.5518561167418  0.4822409810251 1.0
C      1  0.3358629098022  0.4600977997866  0.4622984019896 1.0
C      1  0.3426991933655  0.4896299316649  0.5535441954840 1.0
C      1  0.3937672985261  0.4790215556588  0.6370263412371 1.0
C      1  0.3886703314821  0.6250901570305  0.4510625218369 1.0
C      1  0.4012174371070  0.4055777534788  0.4055502392478 1.0
C      1  0.4175288204605  0.6825637380220  0.5266456991919 1.0
C      1  0.4353196192308  0.4345454924699  0.3167704908786 1.0
C      1  0.4363922177893  0.3883183046723  0.6388500978131 1.0
C      1  0.5433655633991  0.5781587973737  0.5333302737030 1.0
C      1  0.5545319633542  0.4750522245240  0.4360809242720 1.0
C      1  0.5283081318199  0.4790006668774  0.5340387319765 1.0
C      1  0.5164393106899  0.6970174611332  0.6449584468138 1.0
C      1  0.5109663376768  0.5303505694255  0.2288714743784 1.0
C      1  0.5183141031784  0.2627176060078  0.6146505482359 1.0
C      1  0.4679077521512  0.3100825811167  0.6715741843107 1.0
C      1  0.4614504724542  0.7414239490622  0.5812146075820 1.0
C      1  0.4574118111545  0.4585313220159  0.2321568570400 1.0
C      1  0.4520637944428  0.5520270018605  0.6556921797335 1.0
C      1  0.4521888730565  0.5904361922031  0.3928488493596 1.0
C      1  0.4577456298386  0.3527142150664  0.4673103400349 1.0
END
