TITL C-242171-1001-4 -8.792 3375.00 -1518.04237824 0 0 186 (C2) n - 1
REM
REM Run started: at 2020.12.19 14:15:39 in /rds/project/t2_vol4/rds-t2-cs072/BORA/CARBON/AIRSS/Generating-Clusters/Str-Search/Higher-Symm/C100-200
REM VASP from code version vasp.5.4.4.18Apr17-6-g9f103f2a35 (build Oct 11 2019 16:45:47) gamma-only
REM
REM
REM
REM
REM ./C.cell (533062f00bc710175b3da973d35f2034)
REM AIRSS Version 0.9.1 bugfix July 2018 build 013d7b7c2542+ Fri, 06 Jul 2018 19:26:36 +0100
REM compiler GCC version 4.8.5 20150623 (Red Hat 4.8.5-39)
REM options -cpp -mtune=generic -march=x86-64 -g -O0
REM seed -1814232934 808371779 750871908 1285940652 1278608205 -1182106289 72302515 162950581 1282470157 907183215 -695356342 1608014838
REM
REM C.POTCAR (d86ddea03c3ceb6dc662c8ad6801f873)
REM 
CELL 1.54180   15.00000   15.00000   15.00000   90.00000   90.00000   90.00000
LATT -1
SFAC C  
C      1  0.4517923122410  0.6181719180462  0.6517848477572 1.0
C      1  0.4507323752583  0.4284699250907  0.6786680023721 1.0
C      1  0.4524260505782  0.3097379768708  0.5276323414196 1.0
C      1  0.4517920643559  0.3818277637664  0.3482156984187 1.0
C      1  0.4507319006935  0.5715301862868  0.3213325425623 1.0
C      1  0.4524243831924  0.6902620844710  0.4723681315662 1.0
C      1  0.5166181284630  0.2381909427828  0.4898968881638 1.0
C      1  0.5154421790136  0.3798388381026  0.2661251064315 1.0
C      1  0.5171052927414  0.6377606536811  0.2772080899890 1.0
C      1  0.5166168613272  0.7618092359601  0.5101032902591 1.0
C      1  0.5154424862841  0.6201610658183  0.7338750819951 1.0
C      1  0.5171064629973  0.3622400484562  0.7227925877976 1.0
C      1  0.6171332044437  0.4034645712173  0.2643546859472 1.0
C      1  0.6185376325848  0.6517415454429  0.2973443265337 1.0
C      1  0.6182706198700  0.7508070745945  0.5317603522919 1.0
C      1  0.6171337951975  0.5965357178639  0.7356448862722 1.0
C      1  0.6185393940011  0.3482592728382  0.7026562040751 1.0
C      1  0.6182716192009  0.2491933599521  0.4682401927651 1.0
C      1  0.6212980684049  0.5248069351101  0.8900220832544 1.0
C      1  0.6210243731526  0.1827240964068  0.7179757513225 1.0
C      1  0.6211759120005  0.1536628232839  0.3313336907083 1.0
C      1  0.6212974019539  0.4751932097838  0.1099766827103 1.0
C      1  0.6210235359492  0.8172763630731  0.2820238006440 1.0
C      1  0.6211749920437  0.8463368474197  0.6686666482438 1.0
C      1  0.7716723982208  0.2834096947737  0.4392010386181 1.0
C      1  0.7722371751096  0.4439280311805  0.2810917505556 1.0
C      1  0.7717438374314  0.6600827755959  0.3420959536640 1.0
C      1  0.7716717654453  0.7165904441324  0.5607983599319 1.0
C      1  0.7722376540568  0.5560719800877  0.7189073155677 1.0
C      1  0.7717452313786  0.3399164206819  0.6579041296442 1.0
C      1  0.2105672730946  0.6896816205079  0.4353201366993 1.0
C      1  0.2126303901226  0.6500921458254  0.6329537413770 1.0
C      1  0.2098653851678  0.4606042962732  0.6979505002877 1.0
C      1  0.2105663189899  0.3103179472301  0.5646800478242 1.0
C      1  0.2126316802109  0.3499073184160  0.3670481961980 1.0
C      1  0.2098646263975  0.5393954182502  0.3020494593443 1.0
C      1  0.4948975080581  0.4157163501759  0.9043603693359 1.0
C      1  0.4920436204942  0.1106951596705  0.6321421163307 1.0
C      1  0.4929979632360  0.1935264890647  0.2267745192389 1.0
C      1  0.4948963943693  0.5842838877251  0.0956389671457 1.0
C      1  0.4920429626696  0.8893047467877  0.3678580109016 1.0
C      1  0.4929980933291  0.8064740176947  0.7732266165773 1.0
C      1  0.6532260710954  0.3153994163513  0.5394950580082 1.0
C      1  0.6524688592991  0.3741753673155  0.3583405880210 1.0
C      1  0.6537521981203  0.5579837396673  0.3193242886524 1.0
C      1  0.6532252581840  0.6846011141442  0.4605047806425 1.0
C      1  0.6524688526011  0.6258248919702  0.6416592995011 1.0
C      1  0.6537535132576  0.4420164240115  0.6806765328478 1.0
C      1  0.4595295615896  0.1985559047235  0.7538027646907 1.0
C      1  0.4596347277929  0.1304005009976  0.3622235575372 1.0
C      1  0.4597522418847  0.4385538667343  0.1054790008011 1.0
C      1  0.4595287652683  0.8014437882611  0.2461972019397 1.0
C      1  0.4596341784697  0.8695989470008  0.6377763406079 1.0
C      1  0.4597529644514  0.5614457243552  0.8945207578987 1.0
C      1  0.4360191333542  0.4417608235604  0.4219690613175 1.0
C      1  0.4360924232473  0.5383610544092  0.4107023767408 1.0
C      1  0.4364654976638  0.5965065790496  0.4885457575234 1.0
C      1  0.4360184610509  0.5582391563518  0.5780316828041 1.0
C      1  0.4360924915255  0.4616388226227  0.5892978080510 1.0
C      1  0.4364662111986  0.4034933656931  0.5114546969560 1.0
C      1  0.0649356820178  0.5177534276482  0.4067943086988 1.0
C      1  0.0651085840139  0.5895940123528  0.4689911944597 1.0
C      1  0.0651792662844  0.5721347456610  0.5623523953262 1.0
C      1  0.0649358444668  0.4822459382593  0.5932062133028 1.0
C      1  0.0651085464257  0.4104054834705  0.5310091718312 1.0
C      1  0.0651790045059  0.4278644731002  0.4376477822076 1.0
C      1  0.4482935106722  0.2594559595049  0.6078433818535 1.0
C      1  0.4472882877493  0.2870540430509  0.3435023867854 1.0
C      1  0.4432192576118  0.5301488122271  0.2361398300005 1.0
C      1  0.4482919756304  0.7405440095415  0.3921568316060 1.0
C      1  0.4472876553715  0.7129456657895  0.6564979335791 1.0
C      1  0.4432203335523  0.4698517528705  0.7638600651334 1.0
C      1  0.5317614490171  0.5006476435475  0.0529285491515 1.0
C      1  0.5296291923648  0.8601223194515  0.2860253529127 1.0
C      1  0.5304391920474  0.8637817896840  0.7081684481249 1.0
C      1  0.5317617297187  0.4993525667295  0.9470709688714 1.0
C      1  0.5296301768488  0.1398778409588  0.7139742396691 1.0
C      1  0.5304403405219  0.1362181516453  0.2918311340467 1.0
C      1  0.1677613565697  0.5206803884595  0.3926002248667 1.0
C      1  0.1679898071377  0.6025945334375  0.4645182113282 1.0
C      1  0.1684503561621  0.5818430916746  0.5719676143938 1.0
C      1  0.1677618057437  0.4793194749663  0.6074000931519 1.0
C      1  0.1679896329203  0.3974054037437  0.5354822191202 1.0
C      1  0.1684501654429  0.4181567180010  0.4280329108133 1.0
C      1  0.3929864542930  0.7909736075668  0.7651354166155 1.0
C      1  0.3939710827246  0.4136392883664  0.8886941206884 1.0
C      1  0.3918140417281  0.1265171938119  0.6234469493277 1.0
C      1  0.3929861999933  0.2090266044865  0.2348652307748 1.0
C      1  0.3939693841903  0.5863597959462  0.1113048236487 1.0
C      1  0.3918135001864  0.8734828780568  0.3765538507606 1.0
C      1  0.8261059791018  0.6547238125846  0.6052896879275 1.0
C      1  0.8262723621539  0.4865064717658  0.6869198799459 1.0
C      1  0.8254972077868  0.3319684113231  0.5815361701745 1.0
C      1  0.8261059710132  0.3452765107000  0.3947092488851 1.0
C      1  0.8262719445904  0.5134937800722  0.3130790667319 1.0
C      1  0.8254956942384  0.6680319323591  0.4184635160716 1.0
C      1  0.5116284468441  0.7217585001788  0.7252429577093 1.0
C      1  0.5109853530621  0.4210813093993  0.8069720911361 1.0
C      1  0.5130582973621  0.1946971561118  0.5831537972472 1.0
C      1  0.5116297933903  0.2782417138165  0.2747577382931 1.0
C      1  0.5109843674280  0.5789186955157  0.1930277330584 1.0
C      1  0.5130567393425  0.8053029417206  0.4168465536174 1.0
C      1  0.3881071591702  0.7994224600731  0.6575688419301 1.0
C      1  0.3876656305239  0.5106928720485  0.8426257627735 1.0
C      1  0.3885290928739  0.2162206820356  0.6824777030629 1.0
C      1  0.3881082035476  0.2005785477502  0.3424329396503 1.0
C      1  0.3876648254583  0.4893068120950  0.1573739718494 1.0
C      1  0.3885278532615  0.7837797703518  0.3175216914072 1.0
C      1  0.6885183576945  0.4736814825222  0.8361169817857 1.0
C      1  0.6876834652889  0.1992374240612  0.6455475874009 1.0
C      1  0.6882937909801  0.2242380671855  0.3106663260077 1.0
C      1  0.6885172650352  0.5263184596189  0.1638831350143 1.0
C      1  0.6876826510167  0.8007625475292  0.3544514924474 1.0
C      1  0.6882935954612  0.7757620230281  0.6893335561975 1.0
C      1  0.2954580763490  0.1730749882159  0.4916491004040 1.0
C      1  0.2976435615703  0.3461652655241  0.2089049021695 1.0
C      1  0.2934159079833  0.6716688557932  0.2189914018335 1.0
C      1  0.2954569094510  0.8269264612866  0.5083521676290 1.0
C      1  0.2976443093080  0.6538341248680  0.7910946423753 1.0
C      1  0.2934166741307  0.3283301155733  0.7810075164524 1.0
C      1  0.7886049055223  0.5974427144468  0.2705692427285 1.0
C      1  0.7865188686759  0.7457548358798  0.4699890619411 1.0
C      1  0.7879825895973  0.6490030385914  0.6988180253723 1.0
C      1  0.7886053691956  0.4025574894707  0.7294305440679 1.0
C      1  0.7865202842622  0.2542453914300  0.5300105578514 1.0
C      1  0.7879821020827  0.3509973532066  0.3011812268630 1.0
C      1  0.6061654772842  0.2635297001929  0.7648975029184 1.0
C      1  0.6054991932568  0.1532157622659  0.4247837803044 1.0
C      1  0.6026748662102  0.3964011534306  0.1581520042378 1.0
C      1  0.6061643047997  0.7364701217073  0.2351027369541 1.0
C      1  0.6054985750798  0.8467843684665  0.5752164686315 1.0
C      1  0.6026759298427  0.6035991256521  0.8418477191282 1.0
C      1  0.2326485731667  0.3746768635276  0.2805042860120 1.0
C      1  0.2272123509270  0.6272599345601  0.2795670524420 1.0
C      1  0.2294504386561  0.7522771122234  0.5000035793179 1.0
C      1  0.2326491685813  0.6253225292113  0.7194961514830 1.0
C      1  0.2272124277334  0.3727392723464  0.7204329462198 1.0
C      1  0.2294505121957  0.2477230857095  0.4999966244761 1.0
C      1  0.6773593317544  0.2830190734138  0.3917345326577 1.0
C      1  0.6782592659377  0.4847187999512  0.2554967835428 1.0
C      1  0.6772383937234  0.7011699061931  0.3647990015458 1.0
C      1  0.6773590705140  0.7169810079317  0.6082653139044 1.0
C      1  0.6782601799949  0.5152814842367  0.7445032236243 1.0
C      1  0.6772392112180  0.2988304998338  0.6352015691757 1.0
C      1  0.2372394807825  0.3029648135746  0.6545957471643 1.0
C      1  0.2391398109291  0.2688894503839  0.4062642862839 1.0
C      1  0.2391997888871  0.4660841688751  0.2514843914445 1.0
C      1  0.2372392472163  0.6970349473141  0.3454043112096 1.0
C      1  0.2391384233243  0.7311110009613  0.5937367139598 1.0
C      1  0.2392009045435  0.5339150971625  0.7485155078573 1.0
C      1  0.3426096636241  0.8788307261766  0.4517894579366 1.0
C      1  0.3472614833530  0.7270793301876  0.8103191675802 1.0
C      1  0.3411557892608  0.3497302451099  0.8539679380941 1.0
C      1  0.3426095066436  0.1211702139199  0.5482120380003 1.0
C      1  0.3472626001709  0.2729214262001  0.1896799940752 1.0
C      1  0.3411527468387  0.6502681728060  0.1460293008207 1.0
C      1  0.8615141488488  0.5799890578622  0.5549144483804 1.0
C      1  0.8615353542746  0.4925189661141  0.5968389352801 1.0
C      1  0.8613285101998  0.4125272668518  0.5418817270525 1.0
C      1  0.8615143889076  0.4200114950040  0.4450845017106 1.0
C      1  0.8615349452978  0.5074813788873  0.4031599722668 1.0
C      1  0.8613274223985  0.5874731299157  0.4581173668957 1.0
C      1  0.6433954373394  0.5940834977187  0.4822570975802 1.0
C      1  0.6430849698788  0.5624126866943  0.5732625546248 1.0
C      1  0.6436671911855  0.4682548181748  0.5910374738477 1.0
C      1  0.6433969577036  0.4059171627915  0.5177431169129 1.0
C      1  0.6430842455957  0.4375873151656  0.4267376675433 1.0
C      1  0.6436641811529  0.5317449365539  0.4089625918524 1.0
C      1  0.3069839117193  0.4418632647494  0.1871022137578 1.0
C      1  0.3074021482770  0.7359203556026  0.2933651246893 1.0
C      1  0.3078120067143  0.7968405090029  0.6024188175672 1.0
C      1  0.3069848631277  0.5581361728104  0.8128975044429 1.0
C      1  0.3074022733261  0.2640791311179  0.7066339713149 1.0
C      1  0.3078125915363  0.2031592821858  0.3975819228249 1.0
C      1  0.5098096960687  0.2731502858127  0.7712339405712 1.0
C      1  0.5091825321833  0.1524514972218  0.4360624203705 1.0
C      1  0.5075314715515  0.3866629779930  0.1636219924315 1.0
C      1  0.5098086406924  0.7268493902208  0.2287665914827 1.0
C      1  0.5091819890906  0.8475486064452  0.5639374639261 1.0
C      1  0.5075321171918  0.6133366026159  0.8363779700744 1.0
C      1  0.7524638820114  0.4113288406063  0.8164816152890 1.0
C      1  0.7510038331827  0.1829224930985  0.5821884363566 1.0
C      1  0.7522298451179  0.2706014818422  0.2654840973190 1.0
C      1  0.7524629527602  0.5886703809221  0.1835186101017 1.0
C      1  0.7510023036136  0.8170778196180  0.4178112647882 1.0
C      1  0.7522301181505  0.7293984831203  0.7345150873949 1.0
END
