TITL C-244644-8549-17 -0.609 3375.00 -90.59405054 0 0 12 (C1) n - 1
REM
REM Run started: at 2020.11.29 16:57:09 in /rds/project/t2_vol4/rds-t2-cs072/BORA/CARBON/AIRSS/Generating-Clusters/Str-Search/Higher-Symm/C10-100
REM VASP from code version vasp.5.4.4.18Apr17-6-g9f103f2a35 (build Oct 11 2019 16:45:47) gamma-only
REM
REM
REM
REM
REM ./C.cell (f39ce9773e2efe3fa5bbdf770a4156b8)
REM AIRSS Version 0.9.1 bugfix July 2018 build 013d7b7c2542+ Fri, 06 Jul 2018 19:26:36 +0100
REM compiler GCC version 4.8.5 20150623 (Red Hat 4.8.5-39)
REM options -cpp -mtune=generic -march=x86-64 -g -O0
REM seed 967372451 -122817303 2145315053 -1988460883 2139223283 539029390 450530966 1308616257 -719911594 924871878 1363244214 1789021250
REM
REM C.POTCAR (d86ddea03c3ceb6dc662c8ad6801f873)
REM 
CELL 1.54180   15.00000   15.00000   15.00000   90.00000   90.00000   90.00000
LATT -1
SFAC C  
C      1  0.4063759795388  0.5170794491696  0.5692124256283 1.0
C      1  0.3544799379738  0.5449585907120  0.4963946118255 1.0
C      1  0.5163753733331  0.5446664911001  0.3627477674405 1.0
C      1  0.5833581407989  0.4797759571050  0.5713974597146 1.0
C      1  0.4934938295253  0.4927905181794  0.5977494427246 1.0
C      1  0.3145754526111  0.5310759041618  0.5832957080752 1.0
C      1  0.3760786407511  0.5612272129657  0.4115602352025 1.0
C      1  0.5875796591445  0.5207396635522  0.3985583286886 1.0
C      1  0.6798972820400  0.4624319277404  0.5408021472094 1.0
C      1  0.5483482260099  0.4698058394722  0.6679771250535 1.0
C      1  0.4305744350885  0.5662920635821  0.3461610607471 1.0
C      1  0.6246964431850  0.4928181822594  0.4771600876902 1.0
END
