TITL C-24094-3863-19 -3.25 3375.00 -535.96216657 0 0 67 (C1) n - 1
REM
REM Run started: at 2020.12.01 02:36:52 in /rds/project/t2_vol4/rds-t2-cs072/BORA/CARBON/AIRSS/Generating-Clusters/Str-Search/Higher-Symm/C10-100
REM VASP from code version vasp.5.4.4.18Apr17-6-g9f103f2a35 (build Oct 11 2019 16:45:47) gamma-only
REM
REM
REM
REM
REM ./C.cell (f39ce9773e2efe3fa5bbdf770a4156b8)
REM AIRSS Version 0.9.1 bugfix July 2018 build 013d7b7c2542+ Fri, 06 Jul 2018 19:26:36 +0100
REM compiler GCC version 4.8.5 20150623 (Red Hat 4.8.5-39)
REM options -cpp -mtune=generic -march=x86-64 -g -O0
REM seed 228938733 347915952 -1891308940 1107513603 -1590951936 -1070104866 1154295707 1453332250 -251723588 513893740 1681111398 1690985913
REM
REM C.POTCAR (d86ddea03c3ceb6dc662c8ad6801f873)
REM 
CELL 1.54180   15.00000   15.00000   15.00000   90.00000   90.00000   90.00000
LATT -1
SFAC C  
C      1  0.5435046195883  0.8948375509380  0.4889377315525 1.0
C      1  0.5984511537721  0.6733172859985  0.8319672429116 1.0
C      1  0.4401521074746  0.4624117524270  0.7487547057124 1.0
C      1  0.4501702942698  0.2817126226691  0.6260961571456 1.0
C      1  0.4572507961359  0.2632567216020  0.3976766480857 1.0
C      1  0.4504484559768  0.4393618036594  0.2405967762482 1.0
C      1  0.5505171283868  0.7071374297718  0.2297619859456 1.0
C      1  0.2506159157867  0.2735086476765  0.5011628991118 1.0
C      1  0.2551773405889  0.4093532676850  0.3988691860204 1.0
C      1  0.2253347377602  0.4914466480573  0.3542614846973 1.0
C      1  0.1873240761719  0.5668859034557  0.4033069413838 1.0
C      1  0.1833415763433  0.5769534925792  0.5641502316117 1.0
C      1  0.2186133538526  0.5078110105751  0.6230560048546 1.0
C      1  0.2495514853025  0.4209955590813  0.5893175681883 1.0
C      1  0.6236823460540  0.5783844401335  0.6861209715257 1.0
C      1  0.6348893521416  0.4232817945189  0.6188221528684 1.0
C      1  0.6442114727874  0.3290493593539  0.5175672095403 1.0
C      1  0.6418175405381  0.3812610929361  0.3791364201521 1.0
C      1  0.6432853061143  0.5175830452902  0.3641881350547 1.0
C      1  0.6283685553010  0.6933758185802  0.3905827717627 1.0
C      1  0.6447089533589  0.6860493157269  0.5496212844509 1.0
C      1  0.3689238586943  0.4763659244034  0.6799309379837 1.0
C      1  0.3916378305240  0.3481395369451  0.5834968706856 1.0
C      1  0.3969254178375  0.3376642476385  0.4205809467777 1.0
C      1  0.3784138472277  0.4547447771802  0.3080902563639 1.0
C      1  0.3267295577682  0.6034597561611  0.3428123305684 1.0
C      1  0.2926635259649  0.6655984919800  0.4808262927354 1.0
C      1  0.3197016941968  0.6206523393191  0.6268802795370 1.0
C      1  0.2932173456599  0.5430386806657  0.6738693580284 1.0
C      1  0.3246867560776  0.3943149005907  0.6398328569334 1.0
C      1  0.3387637615510  0.3182451177125  0.5020630136631 1.0
C      1  0.3330245679829  0.3768975309347  0.3555264279937 1.0
C      1  0.3023382153282  0.5209855904360  0.3038310385389 1.0
C      1  0.2554101504692  0.6379114039706  0.3977749191464 1.0
C      1  0.2512765737206  0.6482469555985  0.5646593319500 1.0
C      1  0.5467336496210  0.2475189784288  0.4027344869229 1.0
C      1  0.5419929199029  0.4357582482221  0.2464236564404 1.0
C      1  0.5951544718249  0.6812641269087  0.3034798033636 1.0
C      1  0.6126330841645  0.8298822791353  0.4796374539725 1.0
C      1  0.6115501910170  0.6252573921564  0.7626788575022 1.0
C      1  0.5314959872194  0.4598877496608  0.7452416760453 1.0
C      1  0.5402532873192  0.2752972366233  0.6378514816521 1.0
C      1  0.6186177963257  0.3046048578793  0.4284431868064 1.0
C      1  0.6110738472033  0.4421674097874  0.3116227191270 1.0
C      1  0.6306413074385  0.6080369630162  0.3541135862069 1.0
C      1  0.6333944299009  0.7392636720994  0.4732561761757 1.0
C      1  0.6419427621948  0.6314683285374  0.6106590673589 1.0
C      1  0.6041797961363  0.4819745383571  0.6834073529445 1.0
C      1  0.6113526252190  0.3280807862433  0.6058168706416 1.0
C      1  0.3856824096952  0.6310756991445  0.4850800625659 1.0
C      1  0.3985683267202  0.5972963715168  0.5736308816114 1.0
C      1  0.4231800898584  0.5078561554656  0.5966340158246 1.0
C      1  0.4402971933871  0.4331240173781  0.5443232213947 1.0
C      1  0.4435583848067  0.4272860778218  0.4512586387609 1.0
C      1  0.4295369869545  0.4956520179963  0.3897584246756 1.0
C      1  0.4028584021729  0.5868229187783  0.4020163841303 1.0
C      1  0.4894199144555  0.1784789570942  0.3685787813115 1.0
C      1  0.4991941102946  0.4295534634660  0.1599735973247 1.0
C      1  0.4984601534261  0.7192037623501  0.1635580628401 1.0
C      1  0.6309108637778  0.9215833267712  0.4816734026166 1.0
C      1  0.5866389693726  0.7337735054445  0.8944130346755 1.0
C      1  0.4869942557907  0.4383704220314  0.8282187535731 1.0
C      1  0.4838995000978  0.2025856341842  0.6659410590414 1.0
C      1  0.1469472604424  0.5499757194985  0.4840469006599 1.0
C      1  0.6702690975012  0.4248266380623  0.5239930103868 1.0
C      1  0.2528464585720  0.3764951023424  0.4962713067434 1.0
C      1  0.6705991964784  0.4562757273465  0.4376836169735 1.0
END
