TITL C-24123-9766-8 -5.01 3375.00 -865.25839969 0 0 105 (C1) n - 1
REM
REM Run started: at 2021.01.04 10:09:31 in /gpfs/home/chem/mssmkc/CARBON/AIRSS/Generating-Clusters/Str-Search/Higher-Symm/C100-200
REM VASP from code version vasp.5.4.4.18Apr17-6-g9f103f2a35 (build Oct 11 2019 16:45:47) gamma-only
REM
REM
REM
REM
REM ./C.cell (533062f00bc710175b3da973d35f2034)
REM AIRSS Version 0.9.1 bugfix July 2018 build 013d7b7c2542+ Fri, 06 Jul 2018 19:26:36 +0100
REM compiler GCC version 6.3.0
REM options -cpp -iprefix /gpfs/warwick/csc/orac/software/Core/GCCcore/6.3.0/bin/../lib/gcc/x86_64-pc-linux-gnu/6.3.0/ -mtune=generic -march=x86-64 -g -O0
REM seed -673568430 829610546 -270702684 158495009 -697243523 307646308 1412474986 744138479 -960150700 114559149 -2023374880 -503067817
REM
REM C.POTCAR (d86ddea03c3ceb6dc662c8ad6801f873)
REM 
CELL 1.54180   15.00000   15.00000   15.00000   90.00000   90.00000   90.00000
LATT -1
SFAC C  
C      1  0.5207852828700  0.5482761869830  0.3362853187315 1.0
C      1  0.5263079161092  0.4879616334032  0.4024536045511 1.0
C      1  0.5140412860512  0.3923554677334  0.4048725569676 1.0
C      1  0.4229102911370  0.3915196593774  0.4315722787140 1.0
C      1  0.3820613353517  0.4367700759411  0.5713447879118 1.0
C      1  0.4535242590104  0.4730483570025  0.6265312893163 1.0
C      1  0.4325800379929  0.4969867856033  0.7089606087534 1.0
C      1  0.5658915092063  0.5906615349676  0.5992782635739 1.0
C      1  0.5350509587834  0.6555538065663  0.5459462306631 1.0
C      1  0.4735179975401  0.6245090141741  0.4718837819023 1.0
C      1  0.5157021914520  0.6393396377379  0.3790980718734 1.0
C      1  0.6086592563658  0.2364232925550  0.3882907145962 1.0
C      1  0.6095561518732  0.2278721012723  0.4863656479198 1.0
C      1  0.6149161291153  0.3202208735602  0.6850866615371 1.0
C      1  0.6108453210094  0.3914660855919  0.7533901219349 1.0
C      1  0.5773441230418  0.5522757483216  0.7531161624041 1.0
C      1  0.5809859604581  0.7098452013815  0.6776048161376 1.0
C      1  0.5712106532065  0.7466649341858  0.5751141678333 1.0
C      1  0.5774122485074  0.7763042007943  0.4107370891922 1.0
C      1  0.6039639823961  0.6669089135624  0.2647414768652 1.0
C      1  0.6199223876166  0.5736022574612  0.2414525009909 1.0
C      1  0.6093322582627  0.3608951394621  0.2788203111663 1.0
C      1  0.3155806113623  0.6203083130548  0.3855155059309 1.0
C      1  0.3337079496801  0.5428433196188  0.3117047338931 1.0
C      1  0.3374412955040  0.4519394455302  0.2922838322368 1.0
C      1  0.3321640377576  0.3566490659331  0.3291992632123 1.0
C      1  0.3512263304831  0.3282196522504  0.4177546238614 1.0
C      1  0.3454198298913  0.3543169676495  0.6108498620925 1.0
C      1  0.3307005311334  0.3734305567490  0.7010049949907 1.0
C      1  0.3399858772342  0.4709359857047  0.7415560963216 1.0
C      1  0.2933848383127  0.5581556821671  0.7171497771512 1.0
C      1  0.3308864622012  0.6936474567547  0.5522858822987 1.0
C      1  0.3720548199777  0.6513001749654  0.4696731455581 1.0
C      1  0.7785161234961  0.5556236545203  0.4231106921139 1.0
C      1  0.7569711610875  0.5156773859495  0.3431213516289 1.0
C      1  0.7498226168981  0.4187102251688  0.3519101239426 1.0
C      1  0.7692289586818  0.3880933113261  0.4379506949000 1.0
C      1  0.7530587265813  0.3227490026365  0.5057919168121 1.0
C      1  0.7657453984518  0.3605236943989  0.5960100014200 1.0
C      1  0.7946662137359  0.4494114154702  0.5945301547850 1.0
C      1  0.7794692747198  0.5298183684810  0.6497447587016 1.0
C      1  0.8110615979630  0.6074660368435  0.6075113122082 1.0
C      1  0.7997773544634  0.6568201376048  0.5428480366961 1.0
C      1  0.7574097681829  0.6437123036447  0.4591523895740 1.0
C      1  0.4612269190010  0.2209883266141  0.4413776292528 1.0
C      1  0.4775535512630  0.2480645347176  0.5993886856692 1.0
C      1  0.4753144447811  0.3129049528750  0.7581690719251 1.0
C      1  0.4718036866722  0.4559948521048  0.8322996423227 1.0
C      1  0.4400724348264  0.6398140898984  0.7579185472512 1.0
C      1  0.4344398658346  0.7581161688167  0.6499830249827 1.0
C      1  0.4375888554370  0.7992386538250  0.4853791137134 1.0
C      1  0.4568919059827  0.7194857876595  0.3299886969817 1.0
C      1  0.4638784508875  0.6126678412431  0.2129537580880 1.0
C      1  0.4862930369216  0.4395085237314  0.2060138158407 1.0
C      1  0.4725018931683  0.2848504497690  0.2693939871590 1.0
C      1  0.1961872398600  0.5948767415905  0.5869004296537 1.0
C      1  0.1998619416842  0.6152902034269  0.5064076493507 1.0
C      1  0.2168125587570  0.6149514656359  0.4143538916941 1.0
C      1  0.1519283665839  0.5770661347193  0.3606477579565 1.0
C      1  0.0853848710894  0.5247622924405  0.3740475203675 1.0
C      1  0.0365783781016  0.4573964792649  0.4008909620254 1.0
C      1  0.0298421817285  0.4263060023086  0.4821648109027 1.0
C      1  0.0450914213317  0.3993452517441  0.5622833724632 1.0
C      1  0.0972480374595  0.4338961415510  0.6246647622525 1.0
C      1  0.1578312203061  0.4703245522382  0.6709173397625 1.0
C      1  0.2141723935070  0.5466778286241  0.6656147150997 1.0
C      1  0.3828589573710  0.4229110817697  0.8224283231975 1.0
C      1  0.3540190096666  0.6350464526031  0.7132330079366 1.0
C      1  0.3558293992892  0.7029966643198  0.6436535323589 1.0
C      1  0.3566918806011  0.7493493984562  0.4853470717067 1.0
C      1  0.3664199258394  0.6782764164039  0.3166421103026 1.0
C      1  0.3773877314411  0.6093581209213  0.2544093408834 1.0
C      1  0.3967732260749  0.4169537634816  0.2226260450220 1.0
C      1  0.3868244122852  0.3222991182112  0.2560122757472 1.0
C      1  0.3774529622172  0.2529716554166  0.4743776900519 1.0
C      1  0.3863787453978  0.2731418277917  0.5698740474007 1.0
C      1  0.3835824003058  0.3383465783223  0.7742018796430 1.0
C      1  0.5235588563115  0.5338626581918  0.2310949483008 1.0
C      1  0.5306668380794  0.3564300748292  0.2296436019490 1.0
C      1  0.5097882436452  0.2384194475413  0.3543168324105 1.0
C      1  0.5214638347711  0.2187383668333  0.5173453585131 1.0
C      1  0.5209711467416  0.2806498514446  0.6800414960805 1.0
C      1  0.5298125635429  0.3831263001307  0.8002677480033 1.0
C      1  0.4843207168391  0.5475120273120  0.7790962150098 1.0
C      1  0.4932650265210  0.7126892870612  0.7140188990132 1.0
C      1  0.4804290902834  0.7919921816656  0.5724745930396 1.0
C      1  0.4856842397316  0.7892113618932  0.4020398240252 1.0
C      1  0.5110067300757  0.6888661008581  0.2454011027976 1.0
C      1  0.6174883892748  0.6126933145766  0.6833505310210 1.0
C      1  0.6289252848784  0.7583800339435  0.4890699050737 1.0
C      1  0.6820087204231  0.6927737702343  0.4376596399620 1.0
C      1  0.6126293970173  0.6930274912130  0.3634309071290 1.0
C      1  0.6900138649762  0.5151931810179  0.2683119908794 1.0
C      1  0.6826260120309  0.4190278365682  0.2813654718799 1.0
C      1  0.5782096333895  0.3257570644531  0.3661469927765 1.0
C      1  0.6816812598701  0.2649991546353  0.5351162686373 1.0
C      1  0.6848567446936  0.3061457520593  0.6244587569355 1.0
C      1  0.6397715710088  0.4838965535281  0.7437394681523 1.0
C      1  0.6994292990337  0.5421031098919  0.6949481164206 1.0
C      1  0.7764462324828  0.4748164330796  0.4917389492351 1.0
C      1  0.5298143539287  0.5035080620172  0.5717642738276 1.0
C      1  0.4818391368171  0.5246399415720  0.4833544644310 1.0
C      1  0.6093061626263  0.4552118951478  0.5478638887223 1.0
C      1  0.6805004752979  0.4758455598393  0.5119299402788 1.0
C      1  0.4024085548785  0.4651840719062  0.4864008926645 1.0
END
