TITL C-248689-1498-3 -8.644 3375.00 -1497.78708008 0 0 180 (C1) n - 1
REM
REM Run started: at 2020.12.23 10:33:44 in /rds/project/t2_vol4/rds-t2-cs072/BORA/CARBON/AIRSS/Generating-Clusters/Str-Search/Higher-Symm/Only-C180
REM VASP from code version vasp.5.4.4.18Apr17-6-g9f103f2a35 (build Oct 11 2019 16:45:47) gamma-only
REM
REM
REM
REM
REM ./C.cell (f712cfaf3acf65fd2d5dcba0fd1fd40b)
REM AIRSS Version 0.9.1 bugfix July 2018 build 013d7b7c2542+ Fri, 06 Jul 2018 19:26:36 +0100
REM compiler GCC version 4.8.5 20150623 (Red Hat 4.8.5-39)
REM options -cpp -mtune=generic -march=x86-64 -g -O0
REM seed 957773866 -1981182289 886328410 -2068349771 -1345781672 -977478518 1165392217 443041086 1460614399 1132273600 1219423579 -188594966
REM
REM C.POTCAR (d86ddea03c3ceb6dc662c8ad6801f873)
REM 
CELL 1.54180   15.00000   15.00000   15.00000   90.00000   90.00000   90.00000
LATT -1
SFAC C  
C      1  0.6450681403821  0.2180717338562  0.3614402533420 1.0
C      1  0.2761907462412  0.2609588599104  0.3783351038797 1.0
C      1  0.1945000692199  0.6341318746005  0.4036790258320 1.0
C      1  0.5017302271934  0.8142990752596  0.3808967653101 1.0
C      1  0.7832153024455  0.5674390138080  0.3376663298610 1.0
C      1  0.5471961742726  0.4713814613781  0.5423705228320 1.0
C      1  0.4893498541556  0.3925857335725  0.5237960988483 1.0
C      1  0.3927757902252  0.4377751081674  0.5302653957344 1.0
C      1  0.4057958092176  0.5368275921757  0.5433654716471 1.0
C      1  0.5014321755392  0.5460470964324  0.5442813508962 1.0
C      1  0.4184892185873  0.2013476116005  0.3549483819360 1.0
C      1  0.2071209249992  0.4817920423512  0.3379995915220 1.0
C      1  0.3597324748312  0.7525078202631  0.2866266353867 1.0
C      1  0.7109972294874  0.7171580353126  0.2925038571183 1.0
C      1  0.7220689840835  0.3445923942103  0.3022756022063 1.0
C      1  0.2642973211429  0.4828579796085  0.4241352688721 1.0
C      1  0.4035153804061  0.7063118605209  0.3666699697837 1.0
C      1  0.6612170112199  0.6413038830704  0.4105429576390 1.0
C      1  0.6812839864679  0.3731233276558  0.3912032361255 1.0
C      1  0.4279153384179  0.2856026688424  0.4144979048505 1.0
C      1  0.5314489098545  0.0922119347154  0.6209911068004 1.0
C      1  0.1438435939184  0.4252428411487  0.6800143484462 1.0
C      1  0.3328875562053  0.8048610967283  0.6184969058199 1.0
C      1  0.7351245341189  0.8453310419200  0.5901371665037 1.0
C      1  0.8386082011991  0.3512577391906  0.5534907818454 1.0
C      1  0.6193517454405  0.4935052382155  0.8299304211454 1.0
C      1  0.5618679348550  0.4209501226855  0.8302122023310 1.0
C      1  0.4706642503513  0.4505703977849  0.8531584095856 1.0
C      1  0.4699838251747  0.5422518186125  0.8576442854436 1.0
C      1  0.5665231914412  0.5791172026459  0.8567759532222 1.0
C      1  0.5086836040803  0.3412850662674  0.4334900772474 1.0
C      1  0.3439230967048  0.4220731740476  0.4405402674559 1.0
C      1  0.3683824133640  0.6234531678559  0.4065339682983 1.0
C      1  0.5603524148609  0.6527672077737  0.4238654175688 1.0
C      1  0.6612285643136  0.4671843603489  0.4205717706528 1.0
C      1  0.4076415600865  0.8129994542066  0.6765194447070 1.0
C      1  0.8053257329594  0.6965423237934  0.6386845669456 1.0
C      1  0.7721354177667  0.3061721188263  0.6209681861105 1.0
C      1  0.4013959481569  0.1893520531981  0.6774595018489 1.0
C      1  0.1781247066440  0.5042645580534  0.7172594577032 1.0
C      1  0.1268070342843  0.4237318152726  0.5859330985820 1.0
C      1  0.3612324422717  0.8470043944308  0.5331938864608 1.0
C      1  0.7860697668558  0.7839067081613  0.6116714551479 1.0
C      1  0.7401305325063  0.3578582688066  0.5399677096509 1.0
C      1  0.4621915788935  0.1620677728529  0.6014075823458 1.0
C      1  0.3548539789359  0.4129783438150  0.6202017297013 1.0
C      1  0.3839032323247  0.5803459723136  0.6312529273026 1.0
C      1  0.5386166681949  0.6203774789981  0.5921641150414 1.0
C      1  0.6316705300310  0.4784445646368  0.5892981130898 1.0
C      1  0.5020211888827  0.3336723033764  0.6025360998603 1.0
C      1  0.1295803205631  0.4934142302279  0.5241686420343 1.0
C      1  0.3272210106500  0.8251717483127  0.4487537948487 1.0
C      1  0.8039847783175  0.7163822386846  0.4405046824197 1.0
C      1  0.7933018342121  0.2990727965948  0.4750738463689 1.0
C      1  0.3971079352190  0.1524611427325  0.5217659434254 1.0
C      1  0.6883891238394  0.5823107770782  0.1955567754238 1.0
C      1  0.6055503750316  0.2891959348198  0.2114419764110 1.0
C      1  0.3537263888481  0.2913134854267  0.2406566009092 1.0
C      1  0.2638348191970  0.6267421438760  0.2614530536715 1.0
C      1  0.4915645042265  0.6967632921350  0.1827646205317 1.0
C      1  0.4506293717832  0.8777824730688  0.5414267246018 1.0
C      1  0.8489334927025  0.6527210617176  0.4853129226827 1.0
C      1  0.7571405158071  0.2084505880925  0.4976896312767 1.0
C      1  0.3114458406987  0.1895638122123  0.5446854367087 1.0
C      1  0.1462655223652  0.5793552587285  0.5636862585568 1.0
C      1  0.2567298197989  0.2633028918960  0.7069426719833 1.0
C      1  0.2252746086374  0.6650370346971  0.6875096281865 1.0
C      1  0.5751091416108  0.8255622535260  0.6246425263952 1.0
C      1  0.8440984280715  0.5342107490799  0.5983357583624 1.0
C      1  0.6718837557256  0.1694068522047  0.6415202676132 1.0
C      1  0.7371284738072  0.3500056059553  0.7014848405858 1.0
C      1  0.4444036719394  0.2321643226748  0.7505304211148 1.0
C      1  0.2524055262988  0.4878738878145  0.7805196030334 1.0
C      1  0.4309527524903  0.7479514132101  0.7453198970767 1.0
C      1  0.7418277010866  0.6640327099513  0.7081234847761 1.0
C      1  0.8045996746816  0.4762540019394  0.3047461626869 1.0
C      1  0.5634898573647  0.1681007512479  0.3453357778209 1.0
C      1  0.2088733666133  0.3269842492210  0.3472586252738 1.0
C      1  0.2240254595146  0.7234227001539  0.3752896387234 1.0
C      1  0.5977715322295  0.8315409796202  0.3347671999081 1.0
C      1  0.6243567410969  0.7552109017130  0.2791125261984 1.0
C      1  0.7374091645840  0.4316948153135  0.2555324316749 1.0
C      1  0.4983760139912  0.2153319440304  0.3004257184626 1.0
C      1  0.2384568477986  0.3981285244031  0.2905586170689 1.0
C      1  0.2676643229745  0.7180935155143  0.2953552718889 1.0
C      1  0.3016722466605  0.5658315080370  0.7966097578142 1.0
C      1  0.5240500178557  0.7310139556512  0.7526175952798 1.0
C      1  0.7541812869948  0.5749122088911  0.7315926508299 1.0
C      1  0.6587956719480  0.3102114607065  0.7322182950398 1.0
C      1  0.3916459020067  0.2991402934298  0.7942124946681 1.0
C      1  0.6207917362327  0.5142550356705  0.6738425120032 1.0
C      1  0.5069420036428  0.3770723874132  0.6839392929284 1.0
C      1  0.4259528475563  0.4376510565212  0.7000045268172 1.0
C      1  0.4377227664635  0.5449955552645  0.7067328939230 1.0
C      1  0.5428774912091  0.5817960210066  0.6888227681240 1.0
C      1  0.4983666797887  0.3965739968005  0.2681417339650 1.0
C      1  0.4025130610360  0.4441355698358  0.2659159295208 1.0
C      1  0.4196222318609  0.5500470141118  0.2579632340180 1.0
C      1  0.5260803725299  0.5743494727373  0.2717696175650 1.0
C      1  0.5769446342532  0.4807772388058  0.2617417798940 1.0
C      1  0.5286458964572  0.6548821130783  0.0155661596030 1.0
C      1  0.5453303382829  0.6667407414335  0.1118658469270 1.0
C      1  0.6316395305293  0.6202723294384  0.1199254033366 1.0
C      1  0.6342913544386  0.5915401124388  0.0298675847683 1.0
C      1  0.5813393168023  0.6135976100635  0.9541143610976 1.0
C      1  0.3483844945536  0.6069413231730  0.5024872534959 1.0
C      1  0.5540020702093  0.6823233101761  0.5246610379196 1.0
C      1  0.7032033951199  0.4515146243528  0.5242544163568 1.0
C      1  0.5214635276837  0.2460537164709  0.5750589395427 1.0
C      1  0.2719517136172  0.3808354084593  0.6185022170523 1.0
C      1  0.7406777374862  0.6304886193055  0.2594693006101 1.0
C      1  0.6683520898099  0.2679672449237  0.2747058060936 1.0
C      1  0.3359249054883  0.2275953785797  0.3057935896286 1.0
C      1  0.2010366135497  0.5772084291687  0.3129653758694 1.0
C      1  0.3970817248613  0.6988497313292  0.2052134305688 1.0
C      1  0.6689300184243  0.4874531822768  0.2220540036535 1.0
C      1  0.5137300410949  0.2944924928321  0.2448288449505 1.0
C      1  0.3228952885690  0.3826981165464  0.2473088453304 1.0
C      1  0.3530321086903  0.6146263679200  0.2174017915366 1.0
C      1  0.5439498102006  0.6945962067299  0.2664971252157 1.0
C      1  0.2997088372799  0.3079368669328  0.7799414007034 1.0
C      1  0.2834455312765  0.6522383326933  0.7621864782998 1.0
C      1  0.5955527314697  0.7676559065258  0.7038990422732 1.0
C      1  0.8067889331983  0.5114315239387  0.6863729588341 1.0
C      1  0.6267128542142  0.2230691223184  0.7137632660337 1.0
C      1  0.2805735959870  0.5817685625954  0.4349763331496 1.0
C      1  0.5043878402800  0.7146055738181  0.3607647505878 1.0
C      1  0.6971584261513  0.5584992928019  0.3917054225154 1.0
C      1  0.6060000214454  0.2993520387155  0.4304887262121 1.0
C      1  0.3466762322208  0.3239868500662  0.4208273427300 1.0
C      1  0.2974775408278  0.4051658719269  0.8005821909051 1.0
C      1  0.3746530311928  0.6820823350146  0.7786318398598 1.0
C      1  0.6565749983139  0.6980951164091  0.7295505684568 1.0
C      1  0.7541687985375  0.4388410756992  0.7192193528517 1.0
C      1  0.5407653789547  0.2447416538826  0.7555449766425 1.0
C      1  0.8729910921686  0.4767715479410  0.4458919308368 1.0
C      1  0.6109305777657  0.1393359861888  0.4906747035701 1.0
C      1  0.1877218630532  0.2942641373577  0.4949770226003 1.0
C      1  0.2125156010191  0.7286736263935  0.5284935633138 1.0
C      1  0.6172911329350  0.8840188627374  0.4768589023515 1.0
C      1  0.3914652347439  0.8084875152023  0.3700785340591 1.0
C      1  0.7319502190233  0.7159047078465  0.3889258356248 1.0
C      1  0.7831928412761  0.3450813950933  0.3869059068856 1.0
C      1  0.4398519247958  0.1400774513524  0.4361243008684 1.0
C      1  0.1663467526294  0.4541030275077  0.4343601621957 1.0
C      1  0.5338665184988  0.1252997820898  0.4258163440628 1.0
C      1  0.1643275130765  0.3538073219707  0.4239877192480 1.0
C      1  0.2471903167856  0.7741775680794  0.4510272885935 1.0
C      1  0.6572057758254  0.8763914185145  0.3916104639848 1.0
C      1  0.8403964965574  0.4237635069751  0.3738745751011 1.0
C      1  0.2690190517408  0.7231475695719  0.6128188500889 1.0
C      1  0.6498058249958  0.8731124390377  0.5666985907402 1.0
C      1  0.8737834630386  0.4496136754410  0.5401387791802 1.0
C      1  0.6143981269798  0.1091306233589  0.5884465459999 1.0
C      1  0.2003081325400  0.3362759813344  0.6705389499634 1.0
C      1  0.1638738338233  0.6511654921977  0.5030989956428 1.0
C      1  0.5216500389132  0.8438714404083  0.4770835698354 1.0
C      1  0.8372131855831  0.5687438840181  0.4336226920182 1.0
C      1  0.6944881826579  0.1705407144652  0.4409433981765 1.0
C      1  0.2520154750967  0.2279055213294  0.4757127433773 1.0
C      1  0.5683221945183  0.3449995109245  0.7634423251269 1.0
C      1  0.3999917120651  0.4016035485084  0.8022839567162 1.0
C      1  0.4012761805151  0.5847989943137  0.8002763072311 1.0
C      1  0.5743851510540  0.6436719833825  0.7693407576664 1.0
C      1  0.6849216878930  0.5040120780945  0.7544839704247 1.0
C      1  0.7874974991490  0.5073727981554  0.5187232099450 1.0
C      1  0.5849357606100  0.2377419575777  0.5100334691581 1.0
C      1  0.1847818507763  0.3449853083716  0.5744392404438 1.0
C      1  0.3370269175401  0.6486241987228  0.5904978270912 1.0
C      1  0.5545868161763  0.7731572375869  0.5397091702848 1.0
C      1  0.5242137397112  0.5691764547557  0.3757596259770 1.0
C      1  0.5715144397974  0.4814129484930  0.3740971293509 1.0
C      1  0.4998246456805  0.4131493062284  0.3687798928598 1.0
C      1  0.4094299664752  0.4569450483394  0.3708206885296 1.0
C      1  0.4250321061987  0.5550360829037  0.3661287143138 1.0
C      1  0.8532262314649  0.6361163708931  0.5824288649052 1.0
C      1  0.7430142233703  0.2119495563797  0.5960496664150 1.0
C      1  0.3119834026960  0.2089082738140  0.6470554529509 1.0
C      1  0.1741522562839  0.5867504036178  0.6605036772207 1.0
C      1  0.4790193582556  0.8601055844528  0.6291924598748 1.0
END
