TITL C-244644-8549-29 -4.514 3375.00 -804.72538214 0 0 97 (C1) n - 1
REM
REM Run started: at 2020.11.29 21:01:08 in /rds/project/t2_vol4/rds-t2-cs072/BORA/CARBON/AIRSS/Generating-Clusters/Str-Search/Higher-Symm/C10-100
REM VASP from code version vasp.5.4.4.18Apr17-6-g9f103f2a35 (build Oct 11 2019 16:45:47) gamma-only
REM
REM
REM
REM
REM ./C.cell (f39ce9773e2efe3fa5bbdf770a4156b8)
REM AIRSS Version 0.9.1 bugfix July 2018 build 013d7b7c2542+ Fri, 06 Jul 2018 19:26:36 +0100
REM compiler GCC version 4.8.5 20150623 (Red Hat 4.8.5-39)
REM options -cpp -mtune=generic -march=x86-64 -g -O0
REM seed -1883270290 702093452 -1983114539 -1062414565 1269418778 1474447881 -704524241 539209365 -853960680 801160763 -720049586 1727426267
REM
REM C.POTCAR (d86ddea03c3ceb6dc662c8ad6801f873)
REM 
CELL 1.54180   15.00000   15.00000   15.00000   90.00000   90.00000   90.00000
LATT -1
SFAC C  
C      1  0.3593462536959  0.9347709634801  0.4745584343622 1.0
C      1  0.4197235255106  0.9172372565471  0.4164093936313 1.0
C      1  0.6122669357402  0.8136337748356  0.3775485219727 1.0
C      1  0.6905176270625  0.8134223631586  0.4054645528931 1.0
C      1  0.7420307619983  0.7969213760529  0.4769760125884 1.0
C      1  0.7070706752515  0.8312457241272  0.7033225209225 1.0
C      1  0.6351857065899  0.8584728931978  0.7398825959545 1.0
C      1  0.5543683256444  0.8181479827734  0.7324436055003 1.0
C      1  0.4563395868519  0.8192315214154  0.7126510727034 1.0
C      1  0.3871698744683  0.8810103208297  0.6920852370696 1.0
C      1  0.3278601145232  0.8483629828947  0.6247430366812 1.0
C      1  0.3137856220667  0.8805895341690  0.5307968011478 1.0
C      1  0.2766630719562  0.4657034073742  0.3072488731658 1.0
C      1  0.3604613369539  0.4928176642841  0.2625586716237 1.0
C      1  0.5983904761706  0.5454901098977  0.1333262128984 1.0
C      1  0.6542461979969  0.5208048244116  0.1969413330254 1.0
C      1  0.7194402336982  0.5404829365624  0.3875863493526 1.0
C      1  0.7393891778919  0.5426489587150  0.4810840817900 1.0
C      1  0.6837273448520  0.5306117793073  0.6527649337632 1.0
C      1  0.6073703729356  0.5108132647567  0.7037294732164 1.0
C      1  0.4238499359929  0.4812504412747  0.7057218450242 1.0
C      1  0.3344876275312  0.4598728950598  0.6898024423120 1.0
C      1  0.2927199415555  0.4828101712987  0.6039416773576 1.0
C      1  0.2053408630828  0.5020361165010  0.3638769873269 1.0
C      1  0.7584789690226  0.7761257763569  0.5556300902672 1.0
C      1  0.7145499724080  0.7658924453861  0.6383141055484 1.0
C      1  0.6382599688181  0.7020343686004  0.6439512611576 1.0
C      1  0.5620178377477  0.7317442121059  0.6877168048924 1.0
C      1  0.4618476859966  0.7327339906072  0.6762501252665 1.0
C      1  0.3944236794328  0.6933301026634  0.6207056106527 1.0
C      1  0.3316746933100  0.7591684190513  0.5916974065847 1.0
C      1  0.3197209118204  0.7869861101125  0.4985128404453 1.0
C      1  0.3780282838285  0.7612809135724  0.4305800117604 1.0
C      1  0.4427182813362  0.8297336076800  0.3980723751788 1.0
C      1  0.5246417652629  0.7834818275163  0.3758998126193 1.0
C      1  0.5052376621753  0.6904361008502  0.3816523459365 1.0
C      1  0.7037853460555  0.3719634403236  0.6424278727434 1.0
C      1  0.6320912418328  0.3556283394323  0.7011061644598 1.0
C      1  0.4575026126388  0.3228805230507  0.7254041849835 1.0
C      1  0.3706990711069  0.2991638885904  0.6916339148533 1.0
C      1  0.2899875241014  0.3285747085695  0.5229484604537 1.0
C      1  0.3059153432318  0.3591547552624  0.4306616797843 1.0
C      1  0.3118380457831  0.3083196725838  0.3416745080972 1.0
C      1  0.4598001670365  0.3617054867803  0.2283554268990 1.0
C      1  0.5386997834654  0.4091357304712  0.2199697440604 1.0
C      1  0.6198619933343  0.3775466313747  0.2570727872905 1.0
C      1  0.7487075269368  0.3868115855397  0.3848543686974 1.0
C      1  0.7646232490977  0.3878784156100  0.4789232217352 1.0
C      1  0.3145558735511  0.0742651521781  0.5967654079932 1.0
C      1  0.3285020175451  0.1042709848802  0.5133757632784 1.0
C      1  0.3675295263057  0.1355138691171  0.4475082963459 1.0
C      1  0.4179356358333  0.1774951617601  0.3823983588777 1.0
C      1  0.5164349100468  0.1798671575960  0.3827048702299 1.0
C      1  0.5644999410832  0.1397145512266  0.4483874008199 1.0
C      1  0.5868000950133  0.1049382289229  0.5219190988678 1.0
C      1  0.5900799289680  0.0771068666237  0.6042411817848 1.0
C      1  0.5436806584511  0.0447314405436  0.6693644283477 1.0
C      1  0.4818305828724  0.0123151149903  0.7182165944292 1.0
C      1  0.3981680750699  0.9754713556629  0.7048427055801 1.0
C      1  0.3359812590604  0.0346978784404  0.6660767530466 1.0
C      1  0.3263645285323  0.5365641472871  0.4508539435874 1.0
C      1  0.3799594696921  0.5889657471591  0.3931199222936 1.0
C      1  0.4191558469417  0.5500608197496  0.3102266500798 1.0
C      1  0.5117173608615  0.5598852402992  0.2910586918508 1.0
C      1  0.5620194419042  0.6165577196453  0.3555134561507 1.0
C      1  0.6409873608690  0.6006162259104  0.4023118776441 1.0
C      1  0.6666616746383  0.6012073692481  0.5012326533743 1.0
C      1  0.6356097376803  0.6096831125135  0.6000546778926 1.0
C      1  0.5508077261455  0.5660540951538  0.6508595741840 1.0
C      1  0.4598688765429  0.5525834579353  0.6497345637769 1.0
C      1  0.3953262743095  0.6032313259776  0.5962009601007 1.0
C      1  0.3278908695962  0.5475039207919  0.5477917968999 1.0
C      1  0.3775901909869  0.2838814826875  0.5342066017208 1.0
C      1  0.4044658407887  0.3463001813484  0.4700801420384 1.0
C      1  0.3872401891480  0.2477899216211  0.3272731269857 1.0
C      1  0.4639202511008  0.2811237722206  0.2784428493843 1.0
C      1  0.5433499579504  0.2500268594413  0.3212343438306 1.0
C      1  0.6223794055331  0.3038898163347  0.3200349714038 1.0
C      1  0.6911714736087  0.3113519392117  0.3884268419444 1.0
C      1  0.7059639148670  0.3095069537366  0.4919612308507 1.0
C      1  0.6733120089787  0.3018080963584  0.5784272430535 1.0
C      1  0.5951336036912  0.2850734553346  0.6429916582227 1.0
C      1  0.5059226426354  0.2682936294115  0.6573615743004 1.0
C      1  0.4154028576329  0.2583224247922  0.6164654185622 1.0
C      1  0.2823573423452  0.4566280070852  0.4104040954038 1.0
C      1  0.3010101180586  0.3729797498198  0.2765841522859 1.0
C      1  0.3756939889977  0.4058907358714  0.2250832100777 1.0
C      1  0.5482305208929  0.5109375290594  0.2129541424837 1.0
C      1  0.6831535791452  0.4531000574602  0.2543426568512 1.0
C      1  0.7331694278784  0.4658904820580  0.3337044620808 1.0
C      1  0.7682232301208  0.4654629529906  0.5298340244839 1.0
C      1  0.7344897059301  0.4590177052641  0.6189824890315 1.0
C      1  0.5785836295497  0.4261620949078  0.7337797034356 1.0
C      1  0.4841529796620  0.4118179932938  0.7388337206199 1.0
C      1  0.3066157336913  0.3671755737632  0.6785912419873 1.0
C      1  0.2656404987364  0.3865615298437  0.5942789166042 1.0
C      1  0.4166062307548  0.6757294974555  0.4104188642702 1.0
END
