TITL C-243451-7506-1 -5.09 3375.00 -809.77129683 0 0 106 (T23) n - 1
REM
REM Run started: at 2020.12.19 10:51:59 in /rds/project/t2_vol4/rds-t2-cs072/BORA/CARBON/AIRSS/Generating-Clusters/Str-Search/Higher-Symm/C100-200
REM VASP from code version vasp.5.4.4.18Apr17-6-g9f103f2a35 (build Oct 11 2019 16:45:47) gamma-only
REM
REM
REM
REM
REM ./C.cell (533062f00bc710175b3da973d35f2034)
REM AIRSS Version 0.9.1 bugfix July 2018 build 013d7b7c2542+ Fri, 06 Jul 2018 19:26:36 +0100
REM compiler GCC version 4.8.5 20150623 (Red Hat 4.8.5-39)
REM options -cpp -mtune=generic -march=x86-64 -g -O0
REM seed -591000211 -1310135293 -41481652 1092425851 -1193642409 -1795151583 213698992 -1794409249 861770948 -1574292946 -87510558 -818806170
REM
REM C.POTCAR (d86ddea03c3ceb6dc662c8ad6801f873)
REM 
CELL 1.54180   15.00000   15.00000   15.00000   90.00000   90.00000   90.00000
LATT -1
SFAC C  
C      1  0.5309493250327  0.3789964279463  0.5907379597127 1.0
C      1  0.3775801638377  0.5913827822269  0.5316919892390 1.0
C      1  0.5902310907724  0.5322238384388  0.3782479815141 1.0
C      1  0.4689664687430  0.6236548448596  0.5908674619674 1.0
C      1  0.5309679633872  0.6237098805819  0.4106091486404 1.0
C      1  0.4690079710776  0.3787823373417  0.4105195367246 1.0
C      1  0.6225431456627  0.4110811372964  0.5316772889174 1.0
C      1  0.3774576843891  0.4111279175523  0.4698015985637 1.0
C      1  0.6222792233859  0.5913122144559  0.4697655884203 1.0
C      1  0.4100086053387  0.4702452037156  0.3784856111147 1.0
C      1  0.5899758662907  0.4703154972514  0.6230730761370 1.0
C      1  0.4096847863437  0.5322508366041  0.6231944896185 1.0
C      1  0.3143811814966  0.5416266013874  0.5886745797344 1.0
C      1  0.5402454510877  0.5892640563432  0.3152765411125 1.0
C      1  0.5879998283670  0.3158169419841  0.5409859474196 1.0
C      1  0.6854238654429  0.4611413343795  0.5887844561743 1.0
C      1  0.3145340081881  0.4610665260639  0.4126805390522 1.0
C      1  0.6855114933877  0.5416059613830  0.4127901050966 1.0
C      1  0.4597493787997  0.4132968286531  0.3152690676749 1.0
C      1  0.5401327878919  0.4132855545532  0.6861314215667 1.0
C      1  0.4596724116109  0.5892547766927  0.6861880732009 1.0
C      1  0.4119931590766  0.6867215058565  0.5409570991574 1.0
C      1  0.5879971315243  0.6867039219246  0.4605869564753 1.0
C      1  0.4119513191045  0.3158138424297  0.4605324107667 1.0
C      1  0.3638515832439  0.7139122407266  0.3385447839873 1.0
C      1  0.7122964179129  0.3393197233717  0.3648167522840 1.0
C      1  0.3372381269477  0.3655091868626  0.7131003566459 1.0
C      1  0.6362210184932  0.2894136934683  0.3387247522504 1.0
C      1  0.3635369038397  0.2894878270454  0.6632541317896 1.0
C      1  0.6361607947389  0.7138485211854  0.6635550969285 1.0
C      1  0.2876746785271  0.6642117178077  0.3646163004675 1.0
C      1  0.7122702970944  0.6641600958549  0.6372384708442 1.0
C      1  0.2874154786499  0.3393490562952  0.6370095062744 1.0
C      1  0.6624168522475  0.6377192483780  0.7132638213363 1.0
C      1  0.3376780022312  0.6378241111894  0.2886676887176 1.0
C      1  0.6624094943027  0.3654007459364  0.2887497716599 1.0
C      1  0.7773860932965  0.3313403022069  0.6567811626093 1.0
C      1  0.3300192694578  0.6573261600901  0.7781191681620 1.0
C      1  0.6561097196562  0.7784839685962  0.3307881779935 1.0
C      1  0.2226260389450  0.6712788155662  0.6567716406265 1.0
C      1  0.7773688459268  0.6712618396331  0.3446735486506 1.0
C      1  0.2227038115285  0.3311670376903  0.3446210742811 1.0
C      1  0.6699776848797  0.3452243888679  0.7779652785738 1.0
C      1  0.3299903966838  0.3452371231139  0.2234281400019 1.0
C      1  0.6699649650962  0.6572502799840  0.2233566404553 1.0
C      1  0.3440569363009  0.2238463271149  0.3307002695606 1.0
C      1  0.6559702241396  0.2239942393197  0.6707584587064 1.0
C      1  0.3439123801607  0.7785485347076  0.6707258385608 1.0
C      1  0.4863874831383  0.1942800234541  0.3759638234996 1.0
C      1  0.1927402666805  0.3766296184848  0.4868929992982 1.0
C      1  0.3750552806243  0.4877771103413  0.1938791020584 1.0
C      1  0.5138422505802  0.8085930015030  0.3762219450247 1.0
C      1  0.4862283121221  0.8085154094891  0.6255074644076 1.0
C      1  0.5134498187477  0.1945190736678  0.6257967887200 1.0
C      1  0.8070206997267  0.6263527292553  0.4872238374956 1.0
C      1  0.1927104233107  0.6263112362069  0.5143382416924 1.0
C      1  0.8073469574224  0.3767599545027  0.5145985687812 1.0
C      1  0.6247082844306  0.5150346949969  0.1935132950408 1.0
C      1  0.3752695300958  0.5151239677455  0.8081531934045 1.0
C      1  0.6246892612811  0.4875928772906  0.8078174427759 1.0
C      1  0.6001991261243  0.6011322991907  0.2300568994098 1.0
C      1  0.5996041220468  0.2307970591908  0.6011805718523 1.0
C      1  0.2292789484008  0.6017103538931  0.6004300407723 1.0
C      1  0.3995869466142  0.4016112809589  0.2302758274295 1.0
C      1  0.6002841509648  0.4014455522745  0.7712271270963 1.0
C      1  0.3997701904282  0.6012091911623  0.7714109980178 1.0
C      1  0.4001463861107  0.7718412947854  0.6010502097244 1.0
C      1  0.5999616192730  0.7718295988590  0.4005267052249 1.0
C      1  0.4002237059247  0.2306581800538  0.4004551577418 1.0
C      1  0.7706590729220  0.4011480483653  0.6007132202726 1.0
C      1  0.2294386077412  0.4009515845336  0.4007551787038 1.0
C      1  0.7705871222533  0.6017472730583  0.4011104960720 1.0
C      1  0.8700880344055  0.6665642187806  0.5457903262017 1.0
C      1  0.6644816764578  0.5462476872351  0.8710191051807 1.0
C      1  0.5449399674962  0.8717408081372  0.6652495229758 1.0
C      1  0.1295993573948  0.3368829985201  0.5456569713333 1.0
C      1  0.8704259131151  0.3371820392451  0.4555845299309 1.0
C      1  0.1296900427378  0.6664521738902  0.4556220189440 1.0
C      1  0.3357691896258  0.4561260276605  0.8713255976094 1.0
C      1  0.6644819790413  0.4560105023320  0.1305086383161 1.0
C      1  0.3348725356279  0.5463914131731  0.1309225103076 1.0
C      1  0.4547846110106  0.1316618543877  0.6661497007384 1.0
C      1  0.5453041459516  0.1314120322935  0.3359631659330 1.0
C      1  0.4549965379269  0.8718265838332  0.3366748342907 1.0
C      1  0.7805147485671  0.3525653135349  0.4276073211113 1.0
C      1  0.3506340317604  0.4282999153224  0.7812872207072 1.0
C      1  0.4268648007012  0.7819174446747  0.3519338158373 1.0
C      1  0.2195157916726  0.6510380708157  0.4274609029303 1.0
C      1  0.7803075134099  0.6510833780111  0.5741784970954 1.0
C      1  0.2193653145084  0.3525016074217  0.5739937989705 1.0
C      1  0.6491414442449  0.5746005023738  0.7811874896364 1.0
C      1  0.3507365796519  0.5748104268587  0.2206135591953 1.0
C      1  0.6491942475021  0.4281394827418  0.2204496303584 1.0
C      1  0.5734068855120  0.2211797722465  0.3518305206132 1.0
C      1  0.4264661915428  0.2213495098810  0.6502828738250 1.0
C      1  0.5731578804988  0.7818419739700  0.6502122186330 1.0
C      1  0.4998540711882  0.5012442083767  0.6588529979810 1.0
C      1  0.5000059794718  0.3431040035267  0.5006793457654 1.0
C      1  0.3417376932300  0.5012950627523  0.5007157144366 1.0
C      1  0.5000430311563  0.5012276418816  0.3425938252704 1.0
C      1  0.4999752681543  0.6593803700441  0.5007802655636 1.0
C      1  0.6581816838260  0.5012896246495  0.5007287980300 1.0
C      1  0.7059591444472  0.2953347631881  0.7066051577456 1.0
C      1  0.2940320051583  0.7071471902729  0.7066723723478 1.0
C      1  0.7059634942288  0.7070996934096  0.2947749158453 1.0
C      1  0.2941531172710  0.2952391363604  0.2947759424541 1.0
END
