TITL C-240080-5354-1 -8.452 3375.00 -1565.00358472 0 0 189 (C1) n - 1
REM
REM Run started: at 2020.12.01 09:04:09 in /rds/project/t2_vol4/rds-t2-cs072/BORA/CARBON/AIRSS/Generating-Clusters/Str-Search/Higher-Symm/C100-200
REM VASP from code version vasp.5.4.4.18Apr17-6-g9f103f2a35 (build Oct 11 2019 16:45:47) gamma-only
REM
REM
REM
REM
REM ./C.cell (533062f00bc710175b3da973d35f2034)
REM AIRSS Version 0.9.1 bugfix July 2018 build 013d7b7c2542+ Fri, 06 Jul 2018 19:26:36 +0100
REM compiler GCC version 4.8.5 20150623 (Red Hat 4.8.5-39)
REM options -cpp -mtune=generic -march=x86-64 -g -O0
REM seed 948301781 281862139 594504837 -1033793549 -1967648860 1181321518 1212677516 338614530 393844466 604669070 -666341174 1668170095
REM
REM C.POTCAR (d86ddea03c3ceb6dc662c8ad6801f873)
REM 
CELL 1.54180   15.00000   15.00000   15.00000   90.00000   90.00000   90.00000
LATT -1
SFAC C  
C      1  0.4417742683417  0.5499833095606  0.7302591787128 1.0
C      1  0.7292292898838  0.4344862257623  0.5566165198092 1.0
C      1  0.5635522986355  0.7292309811524  0.4382967513363 1.0
C      1  0.5419580769001  0.4472438524457  0.7247839533920 1.0
C      1  0.5545115942142  0.5498041022202  0.2699678242701 1.0
C      1  0.4537236989889  0.4473818953350  0.2733016975786 1.0
C      1  0.2776527321496  0.5490591768361  0.5458689221412 1.0
C      1  0.2702397523987  0.4445812840931  0.4415139205145 1.0
C      1  0.7227428126461  0.5353692551799  0.4498326120847 1.0
C      1  0.4516363285106  0.2752214615502  0.4530763553351 1.0
C      1  0.4618763569552  0.7161146970631  0.5384070622326 1.0
C      1  0.5525249955516  0.2686058158976  0.5538664676493 1.0
C      1  0.4537541866312  0.5476369269264  0.2728656549146 1.0
C      1  0.7312057097004  0.4323196784534  0.4486803699913 1.0
C      1  0.5623933627546  0.7283716139061  0.5447172111637 1.0
C      1  0.5553480292346  0.4481892231115  0.2723163421150 1.0
C      1  0.5446694433172  0.5481355540783  0.7273907988186 1.0
C      1  0.4397828594953  0.4463456574984  0.7309907543056 1.0
C      1  0.2751614736897  0.5475138140108  0.4445537599756 1.0
C      1  0.2776785673700  0.4477635245610  0.5427621348444 1.0
C      1  0.7190566143287  0.5375606147561  0.5504930030956 1.0
C      1  0.4513876580983  0.2713912747196  0.5538069633800 1.0
C      1  0.4558785543567  0.7260334252848  0.4355414891133 1.0
C      1  0.5516694309617  0.2736630560959  0.4527133515095 1.0
C      1  0.7594094640331  0.2310249874386  0.5900471615174 1.0
C      1  0.5905825583016  0.7569032742081  0.2319185929733 1.0
C      1  0.2415507419995  0.5917189523738  0.7532207584465 1.0
C      1  0.2594038532374  0.7575685189583  0.5931522528852 1.0
C      1  0.2479855643253  0.2427614750964  0.4073589493085 1.0
C      1  0.7437553768338  0.7623914453231  0.4134899127410 1.0
C      1  0.4101465252336  0.2534619433377  0.2417228030788 1.0
C      1  0.4073719180089  0.7420460454254  0.7570519916395 1.0
C      1  0.5898240795797  0.2527672887871  0.7609686432819 1.0
C      1  0.7607568377549  0.4126633739630  0.7436041758908 1.0
C      1  0.7606457652887  0.5896144432704  0.2551051644738 1.0
C      1  0.2304727360894  0.4118697107626  0.2494077914939 1.0
C      1  0.7522138253628  0.2436195619723  0.4143269472084 1.0
C      1  0.5938883443349  0.7473415414489  0.7560355527414 1.0
C      1  0.2414835886836  0.5907250093159  0.2560025555471 1.0
C      1  0.2512133563909  0.7674001398161  0.4149865822441 1.0
C      1  0.2508349314982  0.2422763354359  0.5906595716272 1.0
C      1  0.7491793739564  0.7700661687577  0.5902316985771 1.0
C      1  0.4105446687531  0.2487608784317  0.7696891295727 1.0
C      1  0.4156874818657  0.7486751682463  0.2453159440226 1.0
C      1  0.5911300485678  0.2550791215487  0.2419760877118 1.0
C      1  0.7710219362242  0.4132127278066  0.2478894341083 1.0
C      1  0.7587858613967  0.5901986776644  0.7482065181373 1.0
C      1  0.2415848800029  0.4083486236404  0.7537776667226 1.0
C      1  0.3521935989220  0.5858851075514  0.4066726331641 1.0
C      1  0.4155962433144  0.3510976653091  0.5879359809128 1.0
C      1  0.5929045012784  0.4079996148706  0.3493012795268 1.0
C      1  0.6771427408580  0.3751774187895  0.3863909491420 1.0
C      1  0.6327907961618  0.5760745623763  0.5721752470337 1.0
C      1  0.3591914797821  0.4157128238880  0.5780731965448 1.0
C      1  0.6095058927726  0.6650899622110  0.6062988403476 1.0
C      1  0.5880632446977  0.3517728515405  0.4147805804137 1.0
C      1  0.3916981979374  0.6715733058657  0.3783417195204 1.0
C      1  0.4182018953076  0.5828890930234  0.3517752996502 1.0
C      1  0.3849656084027  0.3924383559403  0.6694964907813 1.0
C      1  0.5704982871078  0.5799081867748  0.6423143451017 1.0
C      1  0.3562365030371  0.5870807073534  0.5829843803404 1.0
C      1  0.4186052663231  0.3569164708015  0.4189634338503 1.0
C      1  0.5821959343007  0.4099573331351  0.6477938454408 1.0
C      1  0.6737689000842  0.3808079993240  0.6217223479117 1.0
C      1  0.6491915752215  0.5789674404957  0.4093587067857 1.0
C      1  0.3312802576508  0.3872394740347  0.3890546537117 1.0
C      1  0.6253437025356  0.6719126467662  0.3830581644152 1.0
C      1  0.5900490294296  0.3436586537540  0.5936114893441 1.0
C      1  0.4462978630828  0.6210465513580  0.5655426383793 1.0
C      1  0.4053955287548  0.5958592409168  0.6540131753598 1.0
C      1  0.4179464717222  0.4118242370519  0.3525988277244 1.0
C      1  0.5928207391760  0.5889169489869  0.3455327788415 1.0
C      1  0.4066877216758  0.4189665315909  0.8267261240035 1.0
C      1  0.8280924165141  0.4053365797365  0.4222726636062 1.0
C      1  0.4244103158519  0.8222784138877  0.4062225994621 1.0
C      1  0.5916183437448  0.5794313329203  0.8153228676982 1.0
C      1  0.5960736938743  0.4180219054725  0.1811030386564 1.0
C      1  0.4085284764046  0.5809747505031  0.1857524880755 1.0
C      1  0.1837966805972  0.5947695774861  0.4194164157549 1.0
C      1  0.1864664133241  0.4084934175955  0.5816319861630 1.0
C      1  0.8091245811676  0.5921452386990  0.5824283100856 1.0
C      1  0.5832746440936  0.1851465386057  0.4086892233658 1.0
C      1  0.5818494248096  0.8226563766858  0.5904067531400 1.0
C      1  0.4178201910565  0.1824748155820  0.5951963721346 1.0
C      1  0.4074143787874  0.4178548955269  0.1840010163140 1.0
C      1  0.8264720259008  0.4067876393008  0.5838068164067 1.0
C      1  0.4240221989509  0.8057229499756  0.5880250031863 1.0
C      1  0.5956529832132  0.5820771623644  0.1802649635705 1.0
C      1  0.5916009941671  0.4181207087843  0.8148405239903 1.0
C      1  0.4075511006613  0.5805624138643  0.8234792226900 1.0
C      1  0.1887840319108  0.5922146680232  0.5819675293215 1.0
C      1  0.1746820135844  0.4086657192096  0.4192534159634 1.0
C      1  0.8116281396558  0.5905502621943  0.4223674665937 1.0
C      1  0.5831169946907  0.1789405806484  0.5955746183786 1.0
C      1  0.5850433166202  0.8272842675930  0.4052882032722 1.0
C      1  0.4190553337305  0.1861846619653  0.4084000332602 1.0
C      1  0.2380299471275  0.6874841775085  0.7646227662784 1.0
C      1  0.7633370064699  0.2445738176843  0.6851954076991 1.0
C      1  0.6856636926396  0.7616690378135  0.2454200605649 1.0
C      1  0.7542206384626  0.1938130535915  0.7661776920346 1.0
C      1  0.7582746775281  0.6853268457259  0.2620240952909 1.0
C      1  0.2375239805442  0.3163335819639  0.2577178721503 1.0
C      1  0.2494406102333  0.7668193374659  0.6885754024920 1.0
C      1  0.2260572445433  0.2241677251150  0.2999249196258 1.0
C      1  0.7662814143415  0.7528972968638  0.1942829016532 1.0
C      1  0.3165544554394  0.2616556849682  0.2617720840685 1.0
C      1  0.1666003683017  0.7483127666766  0.7369129094938 1.0
C      1  0.6857810002098  0.2603141683246  0.7570459270961 1.0
C      1  0.2564473372413  0.6855331168129  0.2539020862162 1.0
C      1  0.7603137918214  0.2439208271516  0.1930670844364 1.0
C      1  0.6957357725386  0.7712895739309  0.7746215583249 1.0
C      1  0.7718286231518  0.3171459456757  0.2547327929031 1.0
C      1  0.7355110851714  0.6820803291732  0.7386474432358 1.0
C      1  0.2238720368922  0.3024013609592  0.7736314604911 1.0
C      1  0.2584287286660  0.7691601631874  0.3193697304250 1.0
C      1  0.2597767673038  0.2634333750991  0.6834784409305 1.0
C      1  0.7381405578840  0.7605079046606  0.6845323675453 1.0
C      1  0.3153402204725  0.2589456518153  0.7618468769575 1.0
C      1  0.1983116347715  0.7608503722136  0.2446555091804 1.0
C      1  0.6868802184053  0.2522511760407  0.2537585346102 1.0
C      1  0.4540035095611  0.7928653932972  0.6858158445099 1.0
C      1  0.6913409434912  0.4523472538170  0.7976574167048 1.0
C      1  0.7935495525400  0.6912828531460  0.4561434730181 1.0
C      1  0.5468273034552  0.1984175731779  0.6948233181395 1.0
C      1  0.5507158765364  0.8117972288925  0.3027311229758 1.0
C      1  0.4543120293119  0.2023429557720  0.3104594362187 1.0
C      1  0.3082716401526  0.5479799536435  0.8080536943668 1.0
C      1  0.3063356419376  0.4523955270734  0.2020900155831 1.0
C      1  0.6949507471595  0.5474390789546  0.1993153682124 1.0
C      1  0.1898347331590  0.3082644099066  0.4539313508910 1.0
C      1  0.2064360619985  0.6905511109469  0.5496388653721 1.0
C      1  0.8138678156664  0.3023689025762  0.5498866404739 1.0
C      1  0.4578074299366  0.8110583969089  0.3051108441957 1.0
C      1  0.6976180161866  0.4530557173393  0.1981266644671 1.0
C      1  0.7940327883676  0.6928882994822  0.5494699546324 1.0
C      1  0.5480843128211  0.2032001784497  0.3107006167778 1.0
C      1  0.5450845557534  0.8037664271786  0.6892240092695 1.0
C      1  0.4521650836345  0.1987574280989  0.6965075948428 1.0
C      1  0.3096800100674  0.5462559896342  0.2048501153676 1.0
C      1  0.3064568893325  0.4544664271141  0.8129149122689 1.0
C      1  0.6904693843658  0.5456958424454  0.7991855721063 1.0
C      1  0.1973689352564  0.3099731768311  0.5471095448819 1.0
C      1  0.2035565326418  0.6937561811150  0.4552995007049 1.0
C      1  0.8150489509083  0.3037258804375  0.4568692512382 1.0
C      1  0.8179773053845  0.4554611250262  0.6793473094355 1.0
C      1  0.6806907457410  0.8237603587200  0.4528069572545 1.0
C      1  0.4540072356964  0.6751966561657  0.8145243210522 1.0
C      1  0.1939373195291  0.5481048227372  0.6788747125054 1.0
C      1  0.1799658455594  0.4556123105521  0.3211901629249 1.0
C      1  0.8115772025290  0.5481407388533  0.3263453481988 1.0
C      1  0.3209972230289  0.1900727252720  0.4525645643168 1.0
C      1  0.3307844436436  0.8047002734583  0.5488794177727 1.0
C      1  0.6840431001416  0.1845846634993  0.5495377892142 1.0
C      1  0.5481299086070  0.3227568171828  0.8131681766259 1.0
C      1  0.5500317547960  0.6814400591482  0.1856896551239 1.0
C      1  0.4527520511551  0.3219030038738  0.1881975880092 1.0
C      1  0.8182253391026  0.4538370002375  0.3231931558913 1.0
C      1  0.6795390038965  0.8236679758194  0.5478340572226 1.0
C      1  0.4542485410812  0.6792693057552  0.1906673391038 1.0
C      1  0.1848744315025  0.5507760797550  0.3229799588166 1.0
C      1  0.1921248910015  0.4536032068382  0.6787978124684 1.0
C      1  0.8116745214850  0.5505266807700  0.6780396768605 1.0
C      1  0.3207952892883  0.1895975156297  0.5477551021546 1.0
C      1  0.3272829230098  0.8122115750676  0.4551247603794 1.0
C      1  0.6820901175505  0.1897216411126  0.4537178094953 1.0
C      1  0.5490418812754  0.3220503081352  0.1873767542602 1.0
C      1  0.5472596981206  0.6758093266779  0.8126473840487 1.0
C      1  0.4534533256278  0.3212602756163  0.8190523389454 1.0
C      1  0.8613074606073  0.5475762817405  0.5030307135469 1.0
C      1  0.1352763672291  0.4567948480657  0.5025962019052 1.0
C      1  0.1374753293269  0.5480393479643  0.5023166002391 1.0
C      1  0.8692844866830  0.4562544914533  0.5031287882737 1.0
C      1  0.4556980656962  0.4996734412238  0.8700327763617 1.0
C      1  0.5472313988451  0.4997726229053  0.1335875124652 1.0
C      1  0.5003025069876  0.8633081276101  0.5444467960688 1.0
C      1  0.5468115381159  0.4989597483525  0.8651219355984 1.0
C      1  0.5001617774072  0.1333819524598  0.5471090694811 1.0
C      1  0.5021773087205  0.8689395993643  0.4535069254943 1.0
C      1  0.5005835763811  0.1363661858216  0.4554174997219 1.0
C      1  0.4551242987853  0.4997575351546  0.1357173978149 1.0
C      1  0.3071858045741  0.3449519485105  0.7080301994816 1.0
C      1  0.3406516741730  0.7191953465857  0.2979621643484 1.0
C      1  0.7234102679049  0.2947550646593  0.3375184205545 1.0
C      1  0.7026402125006  0.7240336258340  0.3353691633090 1.0
C      1  0.3163860929727  0.7424360722121  0.7527847936148 1.0
C      1  0.7248570343128  0.3340677455727  0.7009439893293 1.0
C      1  0.6528523864910  0.7003959319917  0.6893088862479 1.0
C      1  0.2922995718864  0.3085877425850  0.3434066445298 1.0
C      1  0.5292253015580  0.5555664235075  0.5573760750376 1.0
END
