TITL C-244644-8549-19 -1.781 3375.00 -293.93401963 0 0 36 (Th) n - 1
REM
REM Run started: at 2020.11.29 17:17:33 in /rds/project/t2_vol4/rds-t2-cs072/BORA/CARBON/AIRSS/Generating-Clusters/Str-Search/Higher-Symm/C10-100
REM VASP from code version vasp.5.4.4.18Apr17-6-g9f103f2a35 (build Oct 11 2019 16:45:47) gamma-only
REM
REM
REM
REM
REM ./C.cell (f39ce9773e2efe3fa5bbdf770a4156b8)
REM AIRSS Version 0.9.1 bugfix July 2018 build 013d7b7c2542+ Fri, 06 Jul 2018 19:26:36 +0100
REM compiler GCC version 4.8.5 20150623 (Red Hat 4.8.5-39)
REM options -cpp -mtune=generic -march=x86-64 -g -O0
REM seed -998214974 -159179992 689163899 1916329253 1370966795 1164686918 1262053235 -1591543514 237606358 177458804 -828266534 -1052585244
REM
REM C.POTCAR (d86ddea03c3ceb6dc662c8ad6801f873)
REM 
CELL 1.54180   15.00000   15.00000   15.00000   90.00000   90.00000   90.00000
LATT -1
SFAC C  
C      1  0.5947026692020  0.3482667872348  0.5781830270499 1.0
C      1  0.5781829914758  0.5947026590674  0.3482668412537 1.0
C      1  0.3482668005516  0.5781830203241  0.5947026576059 1.0
C      1  0.5947026638302  0.6517331998287  0.4218170338668 1.0
C      1  0.4052973415761  0.6517331979678  0.5781829823573 1.0
C      1  0.4052973371829  0.3482667915465  0.4218169566499 1.0
C      1  0.5781830095509  0.4052973478816  0.6517331912762 1.0
C      1  0.4218169818842  0.4052973384341  0.3482667679815 1.0
C      1  0.4218169982391  0.5947026694380  0.6517331949765 1.0
C      1  0.3482667979431  0.4218169800653  0.4052973268348 1.0
C      1  0.6517332145869  0.4218169944519  0.5947026681477 1.0
C      1  0.6517332117589  0.5781830092458  0.4052973478747 1.0
C      1  0.4052973358404  0.3482667997255  0.5781829640216 1.0
C      1  0.4218169933951  0.5947026471425  0.3482668037343 1.0
C      1  0.6517332054254  0.5781830129314  0.5947026728452 1.0
C      1  0.4052973307979  0.6517332143146  0.4218169763361 1.0
C      1  0.5947026588743  0.6517332131374  0.5781830438200 1.0
C      1  0.5947026590884  0.3482668025950  0.4218170163500 1.0
C      1  0.4218170091272  0.4052973416617  0.6517331620450 1.0
C      1  0.5781829977720  0.4052973291619  0.3482668030062 1.0
C      1  0.5781830209430  0.5947026637731  0.6517332282409 1.0
C      1  0.6517332018926  0.4218169846891  0.4052973463020 1.0
C      1  0.3482667866877  0.4218169878312  0.5947026529309 1.0
C      1  0.3482667867694  0.5781830114477  0.4052973309411 1.0
C      1  0.5482870402193  0.3189507160237  0.5000000062180 1.0
C      1  0.5000000082305  0.4517129703609  0.6810492395083 1.0
C      1  0.4999999913314  0.5482870315956  0.3189507623074 1.0
C      1  0.4517129595018  0.6810492839253  0.4999999933496 1.0
C      1  0.3189507187648  0.4999999968138  0.5482870354780 1.0
C      1  0.5482870414131  0.6810492847710  0.5000000299134 1.0
C      1  0.4517129607287  0.3189507130516  0.4999999698474 1.0
C      1  0.4999999921063  0.4517129347996  0.3189506886451 1.0
C      1  0.5000000071491  0.5482870618194  0.6810493131532 1.0
C      1  0.3189507162162  0.5000000008556  0.4517129489698 1.0
C      1  0.6810492814555  0.4999999983739  0.5482870582263 1.0
C      1  0.6810492784881  0.5000000037124  0.4517129579353 1.0
END
