TITL C-24094-3863-34 -0.829 3375.00 -133.36271681 0 0 18 (C2v) n - 1
REM
REM Run started: at 2020.12.01 07:49:40 in /rds/project/t2_vol4/rds-t2-cs072/BORA/CARBON/AIRSS/Generating-Clusters/Str-Search/Higher-Symm/C10-100
REM VASP from code version vasp.5.4.4.18Apr17-6-g9f103f2a35 (build Oct 11 2019 16:45:47) gamma-only
REM
REM
REM
REM
REM ./C.cell (f39ce9773e2efe3fa5bbdf770a4156b8)
REM AIRSS Version 0.9.1 bugfix July 2018 build 013d7b7c2542+ Fri, 06 Jul 2018 19:26:36 +0100
REM compiler GCC version 4.8.5 20150623 (Red Hat 4.8.5-39)
REM options -cpp -mtune=generic -march=x86-64 -g -O0
REM seed 912454759 1107263892 -1740762839 -16633647 2120812400 -983711129 278436065 122537379 -575151493 391400181 -408989795 234204875
REM
REM C.POTCAR (d86ddea03c3ceb6dc662c8ad6801f873)
REM 
CELL 1.54180   15.00000   15.00000   15.00000   90.00000   90.00000   90.00000
LATT -1
SFAC C  
C      1  0.3986607127098  0.4150564871441  0.6017499724825 1.0
C      1  0.3986580259909  0.5849405838660  0.3982512030770 1.0
C      1  0.3986498853388  0.5849593457669  0.6017236962621 1.0
C      1  0.3986524701197  0.4150373425568  0.3982762400347 1.0
C      1  0.5756908541138  0.5947372667677  0.5473331266883 1.0
C      1  0.5756918344760  0.4052643168070  0.4526666750070 1.0
C      1  0.5756952036229  0.4052771789748  0.5473539747947 1.0
C      1  0.5756924166806  0.5947240635143  0.4526458151378 1.0
C      1  0.4828984972346  0.4463949460541  0.5542864281736 1.0
C      1  0.4828962182427  0.5536040758814  0.4457146371879 1.0
C      1  0.4828944696219  0.5536173631775  0.5542719264928 1.0
C      1  0.4828950541450  0.4463820944080  0.4457290676283 1.0
C      1  0.6617438171145  0.4533103838860  0.4481337426613 1.0
C      1  0.6617431459169  0.5466927748240  0.5518649864795 1.0
C      1  0.6617441285771  0.5466840723807  0.4481253888842 1.0
C      1  0.6617460300707  0.4533189676684  0.5518738673748 1.0
C      1  0.3771085150049  0.5000265599650  0.6175423114655 1.0
C      1  0.3771089210192  0.4999721763572  0.3824569401679 1.0
END
