TITL C-24094-3863-24 -1.626 3375.00 -241.33956396 0 0 31 (C1) n - 1
REM
REM Run started: at 2020.12.01 04:21:05 in /rds/project/t2_vol4/rds-t2-cs072/BORA/CARBON/AIRSS/Generating-Clusters/Str-Search/Higher-Symm/C10-100
REM VASP from code version vasp.5.4.4.18Apr17-6-g9f103f2a35 (build Oct 11 2019 16:45:47) gamma-only
REM
REM
REM
REM
REM ./C.cell (f39ce9773e2efe3fa5bbdf770a4156b8)
REM AIRSS Version 0.9.1 bugfix July 2018 build 013d7b7c2542+ Fri, 06 Jul 2018 19:26:36 +0100
REM compiler GCC version 4.8.5 20150623 (Red Hat 4.8.5-39)
REM options -cpp -mtune=generic -march=x86-64 -g -O0
REM seed -1931148215 -1263759955 1579057443 1528652746 1893234646 -810566957 -737881490 -360304823 1213281771 244573831 -73100762 -572933792
REM
REM C.POTCAR (d86ddea03c3ceb6dc662c8ad6801f873)
REM 
CELL 1.54180   15.00000   15.00000   15.00000   90.00000   90.00000   90.00000
LATT -1
SFAC C  
C      1  0.4107944964249  0.6732786311637  0.5779391312393 1.0
C      1  0.3621299210954  0.4063423505982  0.5686451887348 1.0
C      1  0.5889635924438  0.3459101811390  0.5608559254554 1.0
C      1  0.6431399354084  0.5927532553850  0.5714328276090 1.0
C      1  0.3840937509170  0.6407345000237  0.4053549152425 1.0
C      1  0.3620037180487  0.4079564339912  0.3981975408744 1.0
C      1  0.6293493295012  0.3603359014247  0.3883848888092 1.0
C      1  0.6344779516683  0.6068677510258  0.3945119797863 1.0
C      1  0.4982753397634  0.6796172537766  0.6056532864065 1.0
C      1  0.3786744730523  0.5062687452671  0.5906688646903 1.0
C      1  0.5042169751860  0.3323558328527  0.6013038465166 1.0
C      1  0.6572640687820  0.5017024320173  0.5991305876443 1.0
C      1  0.4721225376470  0.6626174030980  0.3778467490194 1.0
C      1  0.3238277616086  0.4858420842745  0.3548459554082 1.0
C      1  0.5386896241462  0.3283787750724  0.3915758190373 1.0
C      1  0.6653790814994  0.5239858101083  0.3586124750160 1.0
C      1  0.4619846515928  0.3901063196236  0.3780810669707 1.0
C      1  0.6655779445353  0.4403271151967  0.3613921153215 1.0
C      1  0.5538014153058  0.6513169398721  0.3664378697294 1.0
C      1  0.3423240716915  0.5663373774396  0.3638065860817 1.0
C      1  0.4224106730854  0.3432058472138  0.6112321208387 1.0
C      1  0.6399442473457  0.4210001539071  0.5885524772795 1.0
C      1  0.5766684713761  0.6505398695527  0.6082232511714 1.0
C      1  0.3490245819647  0.5997385730168  0.5748136621133 1.0
C      1  0.3641133312949  0.6552033737359  0.4972513650707 1.0
C      1  0.5959458448414  0.3227608565200  0.4689305424339 1.0
C      1  0.6551818207742  0.6106310643902  0.4830322591872 1.0
C      1  0.3378925767491  0.3909735002206  0.4833181124876 1.0
C      1  0.4950188232252  0.4659806535345  0.4121643845212 1.0
C      1  0.4621722636502  0.5106871089307  0.5584102143644 1.0
C      1  0.5059678253751  0.5077164056274  0.4854679909392 1.0
END
