TITL C-248689-1498-2 -8.376 3375.00 -1474.46610074 0 0 180 (C1) n - 1
REM
REM Run started: at 2020.12.23 07:37:23 in /rds/project/t2_vol4/rds-t2-cs072/BORA/CARBON/AIRSS/Generating-Clusters/Str-Search/Higher-Symm/Only-C180
REM VASP from code version vasp.5.4.4.18Apr17-6-g9f103f2a35 (build Oct 11 2019 16:45:47) gamma-only
REM
REM
REM
REM
REM ./C.cell (f712cfaf3acf65fd2d5dcba0fd1fd40b)
REM AIRSS Version 0.9.1 bugfix July 2018 build 013d7b7c2542+ Fri, 06 Jul 2018 19:26:36 +0100
REM compiler GCC version 4.8.5 20150623 (Red Hat 4.8.5-39)
REM options -cpp -mtune=generic -march=x86-64 -g -O0
REM seed -521590577 -1028045154 -112635043 -1329025086 -1728258261 901763151 -1929604660 1781657763 -997940497 -167746515 -845669855 506600760
REM
REM C.POTCAR (d86ddea03c3ceb6dc662c8ad6801f873)
REM 
CELL 1.54180   15.00000   15.00000   15.00000   90.00000   90.00000   90.00000
LATT -1
SFAC C  
C      1  0.7085861504634  0.8138323288908  0.6245356601345 1.0
C      1  0.5910672813074  0.8077741735333  0.3006253770627 1.0
C      1  0.1366082395917  0.6934676880002  0.4587536221385 1.0
C      1  0.5262662520517  0.5206876892286  0.3861981513460 1.0
C      1  0.2995371499078  0.5212526802162  0.5032204261240 1.0
C      1  0.8471502963939  0.4528045467295  0.3943997717213 1.0
C      1  0.6869229549617  0.5616147331570  0.4524528401179 1.0
C      1  0.8251629033705  0.6181635559737  0.4465679811329 1.0
C      1  0.6330284877469  0.4225928796598  0.4541770308054 1.0
C      1  0.8050639673605  0.3018358326069  0.3991823418721 1.0
C      1  0.5991007391776  0.6985288535045  0.8392110678549 1.0
C      1  0.6257571519537  0.9511867966822  0.6082909466802 1.0
C      1  0.5799235712908  0.8692673989620  0.7337008922760 1.0
C      1  0.7523616301411  0.6002732868907  0.7798610702214 1.0
C      1  0.7727523997744  0.6500411960980  0.2591176184456 1.0
C      1  0.7725965063638  0.3897409402235  0.2579950751981 1.0
C      1  0.7090255316665  0.2775635140520  0.6981270982260 1.0
C      1  0.4676837454930  0.1558828573157  0.6787712842114 1.0
C      1  0.3263408806386  0.6581179293456  0.7036839685217 1.0
C      1  0.6364840959205  0.7910678152031  0.6982259805447 1.0
C      1  0.6968745974433  0.3279586268519  0.5585548065109 1.0
C      1  0.3593554928431  0.1419250771540  0.5721068488052 1.0
C      1  0.8179992183826  0.3791184367966  0.3379708021901 1.0
C      1  0.5362422283051  0.7523665379970  0.1359346214742 1.0
C      1  0.4005291563452  0.3961283782203  0.8143018743411 1.0
C      1  0.7843618577167  0.7001723771053  0.4164297591313 1.0
C      1  0.8462055481613  0.6396986925364  0.7443850624995 1.0
C      1  0.1030590760295  0.2466685571863  0.4344897391995 1.0
C      1  0.4080116838252  0.7112803038987  0.2653580077435 1.0
C      1  0.4428234156491  0.6265358711275  0.8050663265128 1.0
C      1  0.3760386078286  0.3487614132234  0.1142979805674 1.0
C      1  0.6047642548479  0.3247532622114  0.6026442442270 1.0
C      1  0.7373548412839  0.6479548649452  0.5986841194945 1.0
C      1  0.3031372834719  0.8194276491598  0.3175931706650 1.0
C      1  0.4997556200705  0.6871785677168  0.0986559886241 1.0
C      1  0.3240981267665  0.3418417509343  0.4403347658401 1.0
C      1  0.5888994627240  0.7101282387391  0.5377932313850 1.0
C      1  0.5612981260219  0.9463102073834  0.6747108831805 1.0
C      1  0.3374731012118  0.3172871196268  0.7999640100405 1.0
C      1  0.4059120299728  0.4026369543611  0.4751381426235 1.0
C      1  0.5187204095462  0.3234300934640  0.1916757688308 1.0
C      1  0.7845370979054  0.4696337904226  0.5506815361339 1.0
C      1  0.3177419561375  0.1944023230648  0.6420050184734 1.0
C      1  0.7712136452182  0.3219671125201  0.6301315669110 1.0
C      1  0.7214440123018  0.5430148258461  0.3720211974994 1.0
C      1  0.5645786419265  0.4068462728470  0.1763994729378 1.0
C      1  0.8248749135470  0.5476100902425  0.3717902341656 1.0
C      1  0.5911198504659  0.4851057625728  0.8505546112390 1.0
C      1  0.2212806817155  0.2770242581421  0.0267463855131 1.0
C      1  0.3672992105962  0.2891172746924  0.3527814523804 1.0
C      1  0.4008163040301  0.4085363177724  0.7120977782697 1.0
C      1  0.3921386951770  0.8051821123089  0.2757133747338 1.0
C      1  0.4711566126368  0.6974062826506  0.6495047491444 1.0
C      1  0.6696884785727  0.5081455611561  0.3003138154054 1.0
C      1  0.4375876958652  0.8635010124386  0.3359743131838 1.0
C      1  0.6583362168175  0.4058883355275  0.1783096011735 1.0
C      1  0.6508654590014  0.1804131073622  0.5620658801339 1.0
C      1  0.7298847291439  0.2493639818242  0.4175083696983 1.0
C      1  0.2720310220719  0.2680712986521  0.6041049911661 1.0
C      1  0.4148147841068  0.3721657298751  0.6322954606989 1.0
C      1  0.1768842477933  0.4414821577055  0.6821913122157 1.0
C      1  0.7236415120331  0.2347870993116  0.5159153831801 1.0
C      1  0.4541731884793  0.2354456136993  0.3855947359375 1.0
C      1  0.1571681854651  0.5223846974863  0.6340559071150 1.0
C      1  0.5126865767242  0.4776061678197  0.2342910133484 1.0
C      1  0.3661976740857  0.5714419533506  0.8431918113737 1.0
C      1  0.6309873564416  0.6429184111974  0.6075229340966 1.0
C      1  0.1942440326847  0.2213310603792  0.0914223494757 1.0
C      1  0.5471366209685  0.2715464823863  0.3627501338066 1.0
C      1  0.5976706679952  0.5168351158865  0.4564050237580 1.0
C      1  0.2520706802478  0.2050915491035  0.2496463985743 1.0
C      1  0.2434065211287  0.6274372163347  0.7459322078661 1.0
C      1  0.4682308818581  0.5427877539318  0.5569663251753 1.0
C      1  0.4222592165851  0.5386916377060  0.0600736410145 1.0
C      1  0.6820183730768  0.4808225599407  0.8666988976827 1.0
C      1  0.3957745297772  0.2459652630366  0.7791356481031 1.0
C      1  0.8455516545119  0.3253174426838  0.4846970579065 1.0
C      1  0.2065195033068  0.6028330170398  0.4027836589034 1.0
C      1  0.1936729874817  0.2445593165407  0.4647517232005 1.0
C      1  0.3574551729358  0.5916943323816  0.6486594159299 1.0
C      1  0.1808918280171  0.6126263084716  0.6724435948191 1.0
C      1  0.4352797311487  0.1703234713846  0.4458976083975 1.0
C      1  0.7233625997178  0.4742774790280  0.2217703341840 1.0
C      1  0.4902625890691  0.5697479114307  0.7400266992041 1.0
C      1  0.1502686945444  0.5218630707374  0.5325643114288 1.0
C      1  0.1708823672659  0.7328403533403  0.5371731129114 1.0
C      1  0.4791529891107  0.4260551581575  0.3994834478044 1.0
C      1  0.6277286389284  0.1292051081577  0.4051576917681 1.0
C      1  0.6457307152517  0.7326490182123  0.3469301517918 1.0
C      1  0.2113200853561  0.1997773720359  0.1700078304634 1.0
C      1  0.2937607744984  0.5804669690494  0.4269169392577 1.0
C      1  0.3649787430949  0.6055772128264  0.3699524565759 1.0
C      1  0.6104926986902  0.3909149043875  0.6792112899313 1.0
C      1  0.8349102280759  0.5809440123418  0.2782932888590 1.0
C      1  0.5747524086732  0.6977880815105  0.2825884592491 1.0
C      1  0.5825854153502  0.7652799507369  0.2143202454322 1.0
C      1  0.3387321407547  0.3881665751118  0.0430870774369 1.0
C      1  0.6923435887730  0.9017152822143  0.5951175188974 1.0
C      1  0.5953254237158  0.1405833842738  0.4989847026192 1.0
C      1  0.7481102534820  0.7468880545399  0.5726339944697 1.0
C      1  0.4950621171170  0.3519818206116  0.8291387491044 1.0
C      1  0.6543620658863  0.2646532031604  0.2668442481544 1.0
C      1  0.5629862265379  0.5222555898227  0.7633347373769 1.0
C      1  0.5570067457715  0.3579601951596  0.4302847761598 1.0
C      1  0.6879001656770  0.6632995062990  0.8152371081231 1.0
C      1  0.3283649475728  0.4204684026314  0.6456836597215 1.0
C      1  0.5540196670865  0.4040942723178  0.8729072331397 1.0
C      1  0.4999169859490  0.1302954827945  0.5100825736506 1.0
C      1  0.6583182741011  0.7432343543184  0.7823268052197 1.0
C      1  0.4532451170092  0.1228828243083  0.5903063009336 1.0
C      1  0.8108120397228  0.2734559007343  0.5537307922897 1.0
C      1  0.2546102570229  0.3422392274378  0.7595282824823 1.0
C      1  0.4585527837949  0.5933948283389  0.3617059404560 1.0
C      1  0.3761738181043  0.4755408398774  0.0353191340406 1.0
C      1  0.6069758332144  0.5481440353256  0.6145280461161 1.0
C      1  0.3801835103877  0.1814412450615  0.7154034054107 1.0
C      1  0.4688073531259  0.5992789200800  0.1145527524180 1.0
C      1  0.7784216316577  0.5616838447306  0.2083995870655 1.0
C      1  0.4907681161462  0.8535553620152  0.7663799495912 1.0
C      1  0.5380981556377  0.2122595084223  0.7129246799999 1.0
C      1  0.1391355597586  0.5929150540458  0.4725911003941 1.0
C      1  0.6531483590445  0.2256606636741  0.3605697707295 1.0
C      1  0.5802002659493  0.7207298753743  0.6438896162921 1.0
C      1  0.4917429413778  0.2662646323058  0.7826719652991 1.0
C      1  0.5376455074512  0.3326507807510  0.5289039102341 1.0
C      1  0.7035972070133  0.4104986271127  0.5110619034261 1.0
C      1  0.2868223614207  0.2558717685115  0.4990603120526 1.0
C      1  0.5626206117911  0.2772116158013  0.2619617055134 1.0
C      1  0.2674019980778  0.3405794785868  0.9989286840669 1.0
C      1  0.2208429045014  0.4628052089737  0.4892578851874 1.0
C      1  0.3345611749676  0.6733259187551  0.3066566725247 1.0
C      1  0.2603384060153  0.7341140507577  0.3281837704962 1.0
C      1  0.2675998352699  0.5832340185499  0.8231294643628 1.0
C      1  0.4764024275849  0.9060556021243  0.6850040349612 1.0
C      1  0.2566128643469  0.4873989037516  0.8305606350384 1.0
C      1  0.4309206214003  0.7493630812527  0.5700452257018 1.0
C      1  0.3015478105603  0.2302140863466  0.3105004058537 1.0
C      1  0.7520297135510  0.4360280651943  0.7305750239299 1.0
C      1  0.2130423244868  0.4278583776679  0.7737086066095 1.0
C      1  0.5042299879334  0.7576718105593  0.5117025385814 1.0
C      1  0.5538600552255  0.5272463040044  0.5391420425735 1.0
C      1  0.4550378758285  0.5943716036354  0.6428702722454 1.0
C      1  0.3525951722237  0.8650692399527  0.3913133886505 1.0
C      1  0.3412140572247  0.7846099898724  0.5488558588773 1.0
C      1  0.5048419465541  0.7010870493777  0.8430934828757 1.0
C      1  0.3911946956644  0.4930916029888  0.5207288770183 1.0
C      1  0.7378994443780  0.7563830930118  0.4774062712135 1.0
C      1  0.4200418922600  0.3296548453319  0.1871945662312 1.0
C      1  0.4870310543172  0.6470568023151  0.2794593942918 1.0
C      1  0.4873614110521  0.5729111457071  0.2035239234421 1.0
C      1  0.2521762112228  0.7558313116881  0.5796349155226 1.0
C      1  0.7368123152295  0.5059921610307  0.7945444226832 1.0
C      1  0.7838899471406  0.6303408364527  0.6843263190190 1.0
C      1  0.8482941143759  0.4234808339307  0.4837386121260 1.0
C      1  0.2298089358961  0.3892045337097  0.4379845217498 1.0
C      1  0.1600460819609  0.3238889097231  0.4307014396947 1.0
C      1  0.5792851081965  0.5035296215036  0.3034234117783 1.0
C      1  0.6014502680726  0.4864105632301  0.6827542238936 1.0
C      1  0.7627355405453  0.5765245271065  0.5216239483592 1.0
C      1  0.3418370954817  0.8424386248075  0.4763220784366 1.0
C      1  0.5269261000782  0.8455764483971  0.3629035453192 1.0
C      1  0.2468299110316  0.3533774896560  0.6582838866506 1.0
C      1  0.3254838468622  0.5122048196081  0.6010225659638 1.0
C      1  0.3542563081369  0.4783465014903  0.8511910595059 1.0
C      1  0.7399437899030  0.7032226573372  0.3267672456973 1.0
C      1  0.3472191887759  0.1753431027472  0.4889976508328 1.0
C      1  0.7055273636285  0.3317445112653  0.2209377170893 1.0
C      1  0.1906305293735  0.6904876095867  0.6179342257065 1.0
C      1  0.7902440301601  0.4214784003820  0.6466472662831 1.0
C      1  0.4483549996517  0.4224559828047  0.3039231889244 1.0
C      1  0.6381050007863  0.7582060697786  0.4522145000586 1.0
C      1  0.6825022326656  0.3604498127033  0.7348237762870 1.0
C      1  0.1909829255585  0.6938175936400  0.3759971376051 1.0
C      1  0.6231680339579  0.2319221702109  0.6527374291847 1.0
C      1  0.3962697996195  0.3539127052732  0.2802197934499 1.0
C      1  0.4530312816293  0.3537907437665  0.5488651654742 1.0
C      1  0.5505902357353  0.8123655346481  0.4481410103465 1.0
C      1  0.6445701456705  0.0754063931753  0.3389894124080 1.0
C      1  0.4100557804011  0.7032455952904  0.7382368312042 1.0
C      1  0.4585010011409  0.7716283226150  0.7955080270705 1.0
END
