TITL C-25379-3091-4 -4.18 3375.00 -557.96437574 0 0 69 (C1) n - 1
REM
REM Run started: at 2021.01.04 07:19:45 in /gpfs/home/chem/mssmkc/CARBON/AIRSS/Generating-Clusters/Str-Search/Higher-Symm/C4-100
REM VASP from code version vasp.5.4.4.18Apr17-6-g9f103f2a35 (build Oct 11 2019 16:45:47) gamma-only
REM
REM
REM
REM
REM ./C.cell (6bd13a13d554368a30d355f37ece5b26)
REM AIRSS Version 0.9.1 bugfix July 2018 build 013d7b7c2542+ Fri, 06 Jul 2018 19:26:36 +0100
REM compiler GCC version 6.3.0
REM options -cpp -iprefix /gpfs/warwick/csc/orac/software/Core/GCCcore/6.3.0/bin/../lib/gcc/x86_64-pc-linux-gnu/6.3.0/ -mtune=generic -march=x86-64 -g -O0
REM seed -1145857072 -665855549 -480771299 -2088654078 -2031223885 996126566 -1070428155 -1739835432 396073154 -1350823841 -1134670419 726037783
REM
REM C.POTCAR (d86ddea03c3ceb6dc662c8ad6801f873)
REM 
CELL 1.54180   15.00000   15.00000   15.00000   90.00000   90.00000   90.00000
LATT -1
SFAC C  
C      1  0.7076267751332  0.4811995817168  0.6856863109241 1.0
C      1  0.7819981518191  0.4020452803475  0.4618688793386 1.0
C      1  0.6807635622070  0.6858013342174  0.2482511272693 1.0
C      1  0.3664365625930  0.2779859687858  0.6548815768237 1.0
C      1  0.4179164840080  0.4963431089024  0.2288658321285 1.0
C      1  0.3363210454682  0.5815887960792  0.7586999767522 1.0
C      1  0.4977355693719  0.4920568822764  0.0716230176854 1.0
C      1  0.3633055941528  0.7504464047287  0.7334048740979 1.0
C      1  0.5161898617640  0.2426122140266  0.5892883660745 1.0
C      1  0.9389143420769  0.4391149648935  0.4231700587412 1.0
C      1  0.8762472401345  0.4744241753499  0.5925862129358 1.0
C      1  0.7842978242496  0.4733624723622  0.6328026347214 1.0
C      1  0.4250060754833  0.2690401427293  0.5952664583016 1.0
C      1  0.4520755574745  0.4960006248784  0.1406604392977 1.0
C      1  0.3616990133634  0.6713039438693  0.7744580577675 1.0
C      1  0.5665421447008  0.2976754000084  0.2317881161780 1.0
C      1  0.5351878702288  0.9827827904370  0.4519632395172 1.0
C      1  0.3720486392961  0.2313626920501  0.8797730520784 1.0
C      1  0.1753643372604  0.4926571084400  0.4407929768371 1.0
C      1  0.2111679217979  0.5198866569734  0.6497221223258 1.0
C      1  0.3233891933828  0.5031232079554  0.2615778973100 1.0
C      1  0.4309735521308  0.9363519618425  0.5769576500199 1.0
C      1  0.5272033776478  0.1755346773512  0.8303107823477 1.0
C      1  0.6468348036975  0.4445916943740  0.1713557500634 1.0
C      1  0.4533271776363  0.2008781780567  0.8657603717130 1.0
C      1  0.5918318153217  0.3839580410125  0.2315158335656 1.0
C      1  0.4785494185115  0.9730204384258  0.5137398204947 1.0
C      1  0.2906517109255  0.5148090853018  0.5971553620613 1.0
C      1  0.3274813918506  0.4982169417328  0.3590584048645 1.0
C      1  0.2683846136502  0.4986372124900  0.4337819958910 1.0
C      1  0.6610657046340  0.6048274873577  0.2404658533314 1.0
C      1  0.6135691493401  0.4871212180068  0.6689506102953 1.0
C      1  0.6339023960226  0.5189518492238  0.2369531423848 1.0
C      1  0.1205462899897  0.5151027649779  0.6493818699604 1.0
C      1  0.2532636173263  0.5198362810219  0.2095699251977 1.0
C      1  0.0948404362716  0.4833380068006  0.4591610434742 1.0
C      1  0.3931416609685  0.8856681315492  0.6326673170600 1.0
C      1  0.5501388976018  0.1850651738673  0.7448259453019 1.0
C      1  0.6435397395946  0.4528311681301  0.0830078086502 1.0
C      1  0.3741727298808  0.8184270523015  0.6854603608175 1.0
C      1  0.5585628373155  0.1995997066219  0.6624939533324 1.0
C      1  0.5792564636615  0.4766675847786  0.0213842824933 1.0
C      1  0.5740651909081  0.2709732448790  0.5236389805378 1.0
C      1  0.6414857200867  0.9177888366649  0.3387569874408 1.0
C      1  0.5966224942894  0.4824003685945  0.9273920126798 1.0
C      1  0.6387536515263  0.3104794392124  0.4852160026304 1.0
C      1  0.6725968550455  0.8488533258803  0.2953467376768 1.0
C      1  0.6221553229840  0.4851415677975  0.8483706597298 1.0
C      1  0.7069148576718  0.3523926612606  0.4550989477105 1.0
C      1  0.6871084153597  0.7714935547545  0.2656777175033 1.0
C      1  0.6451146573641  0.4864080170110  0.7587293478916 1.0
C      1  0.3330466321658  0.2618782452012  0.8069376410022 1.0
C      1  0.5448182576586  0.2152821624167  0.2399969687050 1.0
C      1  0.5933699282397  0.9650616710789  0.3893987756693 1.0
C      1  0.3135718097267  0.2844772946796  0.7266255112502 1.0
C      1  0.4735055808777  0.4876482479621  0.3055232355591 1.0
C      1  0.3737145432145  0.6033098202436  0.8414010158287 1.0
C      1  0.0051428685163  0.4698474771387  0.4818871569902 1.0
C      1  0.4191012571843  0.4935731180145  0.3864347378811 1.0
C      1  0.8018045245076  0.4467789969172  0.5452413963274 1.0
C      1  0.2941358398070  0.5379192451027  0.6883942071076 1.0
C      1  0.5662804982131  0.4649745649243  0.2797139170329 1.0
C      1  0.0398023853922  0.5048700398822  0.6336430719494 1.0
C      1  0.4905633314445  0.4958947541464  0.5452110312129 1.0
C      1  0.9702658854049  0.4839350900208  0.5750344498882 1.0
C      1  0.5474147531121  0.4933317737530  0.6062752179912 1.0
C      1  0.4206231984962  0.4980754528926  0.4840445794983 1.0
C      1  0.3264498365891  0.5031245084185  0.5124989594450 1.0
C      1  0.8619692542689  0.4120110149001  0.4111057224342 1.0
END
