TITL C-250796-8668-4 -5.22 3375.00 -923.09688125 0 0 109 (C1) n - 1
REM
REM Run started: at 2020.12.28 18:52:21 in /rds/project/t2_vol4/rds-t2-cs072/BORA/CARBON/AIRSS/Generating-Clusters/Str-Search/Higher-Symm/C100-200
REM VASP from code version vasp.5.4.4.18Apr17-6-g9f103f2a35 (build Oct 11 2019 16:45:47) gamma-only
REM
REM
REM
REM
REM ./C.cell (533062f00bc710175b3da973d35f2034)
REM AIRSS Version 0.9.1 bugfix July 2018 build 013d7b7c2542+ Fri, 06 Jul 2018 19:26:36 +0100
REM compiler GCC version 4.8.5 20150623 (Red Hat 4.8.5-39)
REM options -cpp -mtune=generic -march=x86-64 -g -O0
REM seed -1597822499 1924831663 919791806 621210393 -1154213579 241474834 -971380266 535585102 885278999 -460905201 -797256831 -1779100760
REM
REM C.POTCAR (d86ddea03c3ceb6dc662c8ad6801f873)
REM 
CELL 1.54180   15.00000   15.00000   15.00000   90.00000   90.00000   90.00000
LATT -1
SFAC C  
C      1  0.3188539062167  0.6125708158307  0.7034431223059 1.0
C      1  0.3214960457008  0.4231178959947  0.7517663726203 1.0
C      1  0.3161280787579  0.2963912852844  0.6047962334264 1.0
C      1  0.3170016895559  0.3233179386054  0.3726842054019 1.0
C      1  0.3269392814613  0.4749874062036  0.2528099802525 1.0
C      1  0.3279559611987  0.6579171687184  0.3145809108220 1.0
C      1  0.3268064826556  0.7169962374815  0.5018327099876 1.0
C      1  0.4465837692605  0.2859236841711  0.2545673318717 1.0
C      1  0.4523031950693  0.5581048890226  0.1599163561263 1.0
C      1  0.4481004090917  0.7861275057767  0.3318373544548 1.0
C      1  0.4333542565863  0.7945332338748  0.6151277708738 1.0
C      1  0.4517920754193  0.5910839247894  0.8149337962082 1.0
C      1  0.4535740330613  0.3080695723757  0.7807510915269 1.0
C      1  0.4336457190077  0.1935628861544  0.5246529683166 1.0
C      1  0.7756541780448  0.6202900020166  0.5102560993486 1.0
C      1  0.7801975065271  0.5740740429949  0.5994248333504 1.0
C      1  0.7743615926463  0.4813994661631  0.6230775405548 1.0
C      1  0.7434600259919  0.4156117452884  0.5520699967299 1.0
C      1  0.7417294698742  0.4222404001325  0.4511182714246 1.0
C      1  0.7697226150811  0.4952587003312  0.3947106912022 1.0
C      1  0.7772453482655  0.5893013514901  0.4239023490226 1.0
C      1  0.4347662810925  0.7470489092007  0.6985265563473 1.0
C      1  0.4555210679327  0.4969355065929  0.8344599892193 1.0
C      1  0.4487486432871  0.2423429089301  0.7125175072903 1.0
C      1  0.4332058150459  0.2034697612868  0.4293366094990 1.0
C      1  0.4504736184077  0.3618525919514  0.1975905787664 1.0
C      1  0.4515792725549  0.6495369745738  0.1895149573884 1.0
C      1  0.4446512134813  0.8190462782417  0.4209561406419 1.0
C      1  0.6412023588231  0.4773883048862  0.2791187517978 1.0
C      1  0.6604662242699  0.6709376847350  0.3128016587562 1.0
C      1  0.6545604593966  0.7533026624872  0.5280123542890 1.0
C      1  0.6567099967401  0.6555221383328  0.7023106816004 1.0
C      1  0.6685431288308  0.4167343356847  0.7354831717037 1.0
C      1  0.6559747854407  0.2590125061439  0.5847011303345 1.0
C      1  0.6538199272483  0.2816348678289  0.3854089814509 1.0
C      1  0.6055551520541  0.7767397618546  0.4440507249768 1.0
C      1  0.5980319251040  0.7325849007330  0.6858038078249 1.0
C      1  0.5974216205108  0.4949040437333  0.7472256586689 1.0
C      1  0.6096161192721  0.2673618330040  0.6726171220228 1.0
C      1  0.5966974296317  0.2186163966309  0.4318240392805 1.0
C      1  0.6073791659140  0.3859155368339  0.2467990007181 1.0
C      1  0.6067277552869  0.6356609247114  0.2381015322474 1.0
C      1  0.7233478506860  0.6937510246337  0.5515152344370 1.0
C      1  0.7263283175409  0.6456268878821  0.6375716653541 1.0
C      1  0.7457574141601  0.4424054223022  0.7004426590460 1.0
C      1  0.7187814418561  0.3146466050292  0.5395611490812 1.0
C      1  0.7174076959099  0.3246999049192  0.4423606267206 1.0
C      1  0.7263688511628  0.5168360282751  0.3149835172589 1.0
C      1  0.7274271297556  0.6131881284202  0.3407655252814 1.0
C      1  0.5415917358908  0.4067064592295  0.4253792002135 1.0
C      1  0.5730264625693  0.4832593203570  0.3624465266449 1.0
C      1  0.5759677155528  0.5625753844195  0.4244200723104 1.0
C      1  0.6162946464410  0.5454762269993  0.5078861858738 1.0
C      1  0.5652660624815  0.5672999558278  0.5833356246072 1.0
C      1  0.5525388443935  0.4935531020870  0.6518505329854 1.0
C      1  0.5327913447663  0.4107755323963  0.5923504419589 1.0
C      1  0.3021043070271  0.5877295234107  0.3795003206441 1.0
C      1  0.3287637293985  0.6185549560504  0.4725635327003 1.0
C      1  0.2819447655626  0.5466306063851  0.6452581533385 1.0
C      1  0.2811723185368  0.4521795766281  0.6645301257704 1.0
C      1  0.2791614441988  0.3865269514824  0.5928317765732 1.0
C      1  0.2818812452797  0.4126332450133  0.4009070744718 1.0
C      1  0.2939448033285  0.4925761088712  0.3467336139894 1.0
C      1  0.3515981076439  0.6973411633067  0.6729985590276 1.0
C      1  0.3588869178867  0.4894253782357  0.8073212874058 1.0
C      1  0.3555940055167  0.2742525428786  0.6885984992059 1.0
C      1  0.3471781410968  0.2558304050881  0.4351579608862 1.0
C      1  0.3585493188864  0.3898078698925  0.2287326324741 1.0
C      1  0.3600658702725  0.6341005095350  0.2293134648920 1.0
C      1  0.3554027152085  0.7739392847758  0.4325533439063 1.0
C      1  0.5133137423035  0.2093366651657  0.3828140755296 1.0
C      1  0.5299816885860  0.4100473975220  0.1915838650356 1.0
C      1  0.5275279797350  0.6884770849322  0.2271093958015 1.0
C      1  0.5200808383295  0.8153672358898  0.4739059395543 1.0
C      1  0.5162308312128  0.7197148124278  0.7347065614797 1.0
C      1  0.5294970608901  0.4498953326335  0.8087836708032 1.0
C      1  0.5233328833777  0.2219971154028  0.6617337538491 1.0
C      1  0.6062870197734  0.3070636223431  0.2996842416020 1.0
C      1  0.6027936476218  0.5455060793630  0.2158043983085 1.0
C      1  0.6088276861957  0.7450849301337  0.3539824073430 1.0
C      1  0.5965989503920  0.7770163169887  0.6033312358348 1.0
C      1  0.6097860329196  0.5948410875680  0.7610811401750 1.0
C      1  0.6143914240359  0.3345535513616  0.7408375762165 1.0
C      1  0.5972735679556  0.2088010226451  0.5255552623790 1.0
C      1  0.3560115990314  0.3158299568962  0.2869890189754 1.0
C      1  0.3613554870797  0.5454214721483  0.2008707226300 1.0
C      1  0.3591787098487  0.7428970324788  0.3435364844088 1.0
C      1  0.3504406865608  0.7428137623862  0.5893011925869 1.0
C      1  0.3580242917212  0.5819043784685  0.7859161699397 1.0
C      1  0.3595069350398  0.3374526424682  0.7579393738575 1.0
C      1  0.3474745748962  0.2450043143445  0.5302840035720 1.0
C      1  0.4720556026835  0.5037735148825  0.3644744380788 1.0
C      1  0.4827133117786  0.5847202170915  0.4179952458082 1.0
C      1  0.4252438651652  0.6022561253757  0.4908781213540 1.0
C      1  0.4708699814534  0.5906284463844  0.5735594182586 1.0
C      1  0.4542763120660  0.5134838766785  0.6294735538417 1.0
C      1  0.4419477220633  0.4306991386566  0.5835710068551 1.0
C      1  0.4507330238086  0.4276884155582  0.4193674626692 1.0
C      1  0.5127055980944  0.8105290044583  0.5695886443150 1.0
C      1  0.5257214603794  0.6378372709846  0.7842860974575 1.0
C      1  0.5324088046038  0.3559827096285  0.7896692077256 1.0
C      1  0.5137715185108  0.1909412340266  0.5714175441997 1.0
C      1  0.5219137137373  0.2569677733115  0.3001425586717 1.0
C      1  0.5286300095328  0.5053921538953  0.1720267390375 1.0
C      1  0.5284129325008  0.7539585980202  0.2979536345871 1.0
C      1  0.5798267056933  0.4020445051582  0.5108641989888 1.0
C      1  0.3947403002947  0.4259214245521  0.4995726620512 1.0
C      1  0.6612505500199  0.4549198463105  0.5097479783855 1.0
C      1  0.3042193472990  0.4197486460501  0.4990647501214 1.0
END
