TITL C-252128-7050-21 -1.472 3375.00 -236.95724225 0 0 31 (C1) n - 1
REM
REM Run started: at 2020.11.29 19:01:21 in /rds/project/t2_vol4/rds-t2-cs072/BORA/CARBON/AIRSS/Generating-Clusters/Str-Search/Higher-Symm/C10-100
REM VASP from code version vasp.5.4.4.18Apr17-6-g9f103f2a35 (build Oct 11 2019 16:45:47) gamma-only
REM
REM
REM
REM
REM ./C.cell (f39ce9773e2efe3fa5bbdf770a4156b8)
REM AIRSS Version 0.9.1 bugfix July 2018 build 013d7b7c2542+ Fri, 06 Jul 2018 19:26:36 +0100
REM compiler GCC version 4.8.5 20150623 (Red Hat 4.8.5-39)
REM options -cpp -mtune=generic -march=x86-64 -g -O0
REM seed -1165927039 -1529248640 225669553 1831639221 -424896819 -755382204 1301431107 518206438 468522933 1169912136 1352868236 348441731
REM
REM C.POTCAR (d86ddea03c3ceb6dc662c8ad6801f873)
REM 
CELL 1.54180   15.00000   15.00000   15.00000   90.00000   90.00000   90.00000
LATT -1
SFAC C  
C      1  0.4324353545970  0.6542244210457  0.4498216251256 1.0
C      1  0.4203318700664  0.3741999709412  0.4764099345644 1.0
C      1  0.5123330371431  0.6793943679854  0.5033851916853 1.0
C      1  0.4662042832236  0.3144241973962  0.5301403986005 1.0
C      1  0.3521091953743  0.5936273809646  0.4720563308351 1.0
C      1  0.3458268940894  0.4439784848507  0.4824681753626 1.0
C      1  0.5228859840825  0.6550691577428  0.5930344707611 1.0
C      1  0.5542806614415  0.2947680890901  0.5266269003384 1.0
C      1  0.5902184465404  0.6417002790898  0.4487295339546 1.0
C      1  0.5910575742757  0.3743481589295  0.4904973332895 1.0
C      1  0.2918234946516  0.4797959863497  0.5650840104555 1.0
C      1  0.2964469383282  0.5756230579414  0.5589498207556 1.0
C      1  0.5074824576541  0.4219429499241  0.4659107453867 1.0
C      1  0.5077685762380  0.5951700966604  0.4313377680420 1.0
C      1  0.6637073702817  0.4378601376837  0.4834373970547 1.0
C      1  0.6575672233694  0.5742014037920  0.4693005663903 1.0
C      1  0.5413222137280  0.4931013625520  0.2867719237640 1.0
C      1  0.5105403831780  0.4970655397722  0.7342892722077 1.0
C      1  0.4055047217951  0.5197488983947  0.5211462931380 1.0
C      1  0.3377398194958  0.5131523848249  0.4064069518751 1.0
C      1  0.5955978711359  0.4976525431846  0.7100932896747 1.0
C      1  0.6142692568691  0.4893438451726  0.3299251803821 1.0
C      1  0.6640518561716  0.4977672512917  0.4051132467243 1.0
C      1  0.4576206708599  0.5254185580499  0.6632237957610 1.0
C      1  0.3786165906895  0.5046385652786  0.3264640033195 1.0
C      1  0.4534067012323  0.4984042261350  0.2866398252601 1.0
C      1  0.4986752498198  0.5162431288580  0.4949068173613 1.0
C      1  0.5281680680384  0.5550583334028  0.5915145298732 1.0
C      1  0.6731122527143  0.5161976457753  0.5461513615407 1.0
C      1  0.3737203951794  0.5244936121393  0.6132235546736 1.0
C      1  0.6183399877361  0.5228534647812  0.6247806518430 1.0
END
