TITL C-25327-2823-36 -10.095 3375.00 -1648.55407519 0 0 198 (C1) n - 1
REM
REM Run started: at 2021.01.01 13:31:36 in /gpfs/home/chem/mssmkc/CARBON/AIRSS/Generating-Clusters/Str-Search/Higher-Symm/C100-200
REM VASP from code version vasp.5.4.4.18Apr17-6-g9f103f2a35 (build Oct 11 2019 16:45:47) gamma-only
REM
REM
REM
REM
REM ./C.cell (533062f00bc710175b3da973d35f2034)
REM AIRSS Version 0.9.1 bugfix July 2018 build 013d7b7c2542+ Fri, 06 Jul 2018 19:26:36 +0100
REM compiler GCC version 6.3.0
REM options -cpp -iprefix /gpfs/warwick/csc/orac/software/Core/GCCcore/6.3.0/bin/../lib/gcc/x86_64-pc-linux-gnu/6.3.0/ -mtune=generic -march=x86-64 -g -O0
REM seed -459231229 -1289947839 -2079889189 1402588197 -2023002010 1425295147 -58048953 247037418 1098244886 -45542942 1140349625 -1664878608
REM
REM C.POTCAR (d86ddea03c3ceb6dc662c8ad6801f873)
REM 
CELL 1.54180   15.00000   15.00000   15.00000   90.00000   90.00000   90.00000
LATT -1
SFAC C  
C      1  0.1649100329835  0.5150261729682  0.6491967055895 1.0
C      1  0.8509517021605  0.6204454239455  0.4666341407541 1.0
C      1  0.1420139019245  0.4768967038359  0.4060434096501 1.0
C      1  0.8471282882834  0.3740508939560  0.5036925291531 1.0
C      1  0.4021476899951  0.5282462502060  0.2949471258812 1.0
C      1  0.5670118127159  0.3035961674809  0.4602553072921 1.0
C      1  0.4471841613349  0.4620010508657  0.6912765565027 1.0
C      1  0.5837210234055  0.7028694246317  0.5227441360928 1.0
C      1  0.7104413904177  0.5702100747201  0.3762137058081 1.0
C      1  0.2616523432200  0.3527371175677  0.4163096076782 1.0
C      1  0.7334519216962  0.4016960499112  0.6271236656466 1.0
C      1  0.2936002548190  0.6045726682509  0.5818429721568 1.0
C      1  0.3276470407928  0.3903071452700  0.3536468636205 1.0
C      1  0.6569980472742  0.3524687775174  0.5913584115532 1.0
C      1  0.3620469947299  0.5968606113675  0.6526315329434 1.0
C      1  0.6535716342794  0.6517773065195  0.3823519271631 1.0
C      1  0.4120240462020  0.2043705277782  0.4092992366615 1.0
C      1  0.5925158988696  0.4067541391394  0.7789019263739 1.0
C      1  0.4281279989343  0.7951287618077  0.5861118358606 1.0
C      1  0.5877138973332  0.5823906692390  0.1867128340883 1.0
C      1  0.2744424314035  0.0880863710034  0.5577909963977 1.0
C      1  0.7419980172525  0.5485682093500  0.8902525028781 1.0
C      1  0.2791805540347  0.8921276004584  0.5017802043496 1.0
C      1  0.7226652220504  0.4610519281010  0.0931119661714 1.0
C      1  0.6049192825094  0.1312400950648  0.3444234965934 1.0
C      1  0.4334416437268  0.3460581985599  0.8850348239309 1.0
C      1  0.5907981260046  0.8918784500162  0.6389758494213 1.0
C      1  0.3396764041071  0.6517184455548  0.1221879055300 1.0
C      1  0.2301429525232  0.3747858319607  0.1620441597005 1.0
C      1  0.7235125757092  0.1539272463649  0.6270119520091 1.0
C      1  0.3108257487401  0.6317698022191  0.8654888214914 1.0
C      1  0.7493675271610  0.8534392322547  0.3483809651367 1.0
C      1  0.4339466979011  0.6526287361046  0.6667463959717 1.0
C      1  0.5821805243479  0.6780157370803  0.3267584823835 1.0
C      1  0.3983198796554  0.3397149652930  0.3183045220374 1.0
C      1  0.5833329802042  0.3277157287295  0.6419030126102 1.0
C      1  0.8792896687770  0.4765418316737  0.9053833472485 1.0
C      1  0.1617850949721  0.8714709650618  0.6062920240820 1.0
C      1  0.8203020590983  0.5916374205372  0.1126940468100 1.0
C      1  0.1200602763583  0.0848052392618  0.5273815957174 1.0
C      1  0.5657531948414  0.4384270782239  0.8636925714891 1.0
C      1  0.4433403499098  0.8917129592847  0.5507857835052 1.0
C      1  0.5907911376935  0.5501705598402  0.0980951106456 1.0
C      1  0.4585462189700  0.1255114254852  0.4386479859402 1.0
C      1  0.6686636213993  0.5314746812757  0.0358212882152 1.0
C      1  0.3555897297001  0.0371027556664  0.5434465844922 1.0
C      1  0.6618307283376  0.5405877383677  0.9392629316705 1.0
C      1  0.3577373451278  0.9451441644790  0.5330601539256 1.0
C      1  0.2014018228535  0.9333993766281  0.5496451847467 1.0
C      1  0.7805883610610  0.5307643932754  0.0503547156814 1.0
C      1  0.1915699670343  0.0334959944592  0.5487567527374 1.0
C      1  0.8142348326856  0.5197228843001  0.9506105586902 1.0
C      1  0.8824542130507  0.5369108123897  0.5066134234444 1.0
C      1  0.1151022355257  0.5224217005632  0.4860157826664 1.0
C      1  0.8785803112531  0.4518925007153  0.4574305351928 1.0
C      1  0.1242947924267  0.4739722177704  0.5708360016287 1.0
C      1  0.5668895594204  0.6651783444102  0.2299665780991 1.0
C      1  0.4114385666027  0.2427389992922  0.3259673421914 1.0
C      1  0.5746311561661  0.3263669434601  0.7377760051408 1.0
C      1  0.4463742906024  0.7501890276220  0.6632252185062 1.0
C      1  0.5702775711128  0.9624999962584  0.4894103804200 1.0
C      1  0.4112182462523  0.5230158314051  0.0276219783511 1.0
C      1  0.5788678661954  0.0524627567137  0.4932105606475 1.0
C      1  0.4538957767115  0.5097580942816  0.9424419386732 1.0
C      1  0.2503352418715  0.5812092575307  0.8304086546354 1.0
C      1  0.7911730403442  0.8173809887765  0.4100440506950 1.0
C      1  0.1737805334693  0.4195807910885  0.2034519584070 1.0
C      1  0.7859101056976  0.1999614936477  0.5842463612423 1.0
C      1  0.2382579971125  0.4925089271245  0.8029597531178 1.0
C      1  0.7936820849899  0.7824539967537  0.4976249525573 1.0
C      1  0.1635643029271  0.5072126643378  0.2377079019047 1.0
C      1  0.7915091245664  0.2144596691366  0.4913197951141 1.0
C      1  0.8524509802634  0.6130933122804  0.2794519224250 1.0
C      1  0.0905295827430  0.2446237955652  0.4760821990089 1.0
C      1  0.9052478305536  0.4367268556713  0.7400187154319 1.0
C      1  0.1527642741450  0.7035641862787  0.6420925493920 1.0
C      1  0.3314069583249  0.4830808919291  0.3281089772642 1.0
C      1  0.6443762826810  0.3254643676251  0.5007500544378 1.0
C      1  0.3703472820367  0.5079240484799  0.6865416597471 1.0
C      1  0.6558077123083  0.6847714855225  0.4717996587279 1.0
C      1  0.7867804336881  0.3211627016689  0.3638126961280 1.0
C      1  0.2220970951360  0.3726159863818  0.6890123578007 1.0
C      1  0.8057905676194  0.6658591000712  0.6102033086257 1.0
C      1  0.1871919938406  0.6226505441258  0.3488818052616 1.0
C      1  0.0942813674536  0.1630850531187  0.5028218151178 1.0
C      1  0.9011443672117  0.4539377513220  0.8239529629250 1.0
C      1  0.1589286223373  0.7961432154875  0.6421000918853 1.0
C      1  0.8357791605459  0.6208830275765  0.1879713223997 1.0
C      1  0.2939342095731  0.8157268662983  0.4480674543222 1.0
C      1  0.6929766418826  0.4227061661822  0.1710956084669 1.0
C      1  0.2950971711557  0.1774727258248  0.5805175740739 1.0
C      1  0.7254412599443  0.5688684566061  0.7991971889238 1.0
C      1  0.5123014343291  0.4868944661775  0.4094610524694 1.0
C      1  0.4718794829444  0.4328192550145  0.4970550537999 1.0
C      1  0.5307199994601  0.5109995269611  0.5529202442917 1.0
C      1  0.4807666415749  0.5771275863921  0.4719194933049 1.0
C      1  0.8888065089145  0.4396817292553  0.6511995979961 1.0
C      1  0.1279531814017  0.6511709051144  0.5759251408297 1.0
C      1  0.8720854003108  0.5419184704068  0.3273511528530 1.0
C      1  0.1113094558720  0.3315457945324  0.4763423032780 1.0
C      1  0.7557368355220  0.5634482813391  0.7023915255750 1.0
C      1  0.2604011235824  0.7150826332847  0.4378891936858 1.0
C      1  0.7238159392938  0.4161279320744  0.2710736986178 1.0
C      1  0.2620812438721  0.2768603038807  0.5807267898450 1.0
C      1  0.5708437723516  0.6395937906690  0.7541698282402 1.0
C      1  0.4316261691004  0.7553885119488  0.3467577386876 1.0
C      1  0.5413375578899  0.3482096612747  0.2280308641646 1.0
C      1  0.4559338545233  0.2275386730815  0.6345293206163 1.0
C      1  0.5038241553089  0.2969484766176  0.5992332971646 1.0
C      1  0.5135755196624  0.6069247305351  0.6915705149538 1.0
C      1  0.5078262310969  0.7115143533260  0.3772993217644 1.0
C      1  0.4733323827935  0.3855241674199  0.2799738744411 1.0
C      1  0.5235947960470  0.7091740097575  0.8076243868745 1.0
C      1  0.4223376532028  0.7502667308745  0.2528967986759 1.0
C      1  0.5410415710680  0.2526077618740  0.2192522053919 1.0
C      1  0.5082180375632  0.1785823341575  0.7035629034570 1.0
C      1  0.6155084867406  0.4855772478761  0.7181986924807 1.0
C      1  0.4113979239127  0.7338928390622  0.5070983876945 1.0
C      1  0.5804916780893  0.5037391220430  0.2507893314166 1.0
C      1  0.3936780493545  0.2623964377258  0.4882286292481 1.0
C      1  0.4814006476022  0.3264719727306  0.5056213819364 1.0
C      1  0.5283743222511  0.5117147756789  0.6596618930700 1.0
C      1  0.4991748380076  0.6829174751520  0.4747973517774 1.0
C      1  0.4899300211169  0.4826504525535  0.3054735867989 1.0
C      1  0.6322762595739  0.3582985267526  0.4070194605520 1.0
C      1  0.3707446374795  0.4210489825644  0.6355998718914 1.0
C      1  0.6506196518210  0.6346732811173  0.5601031692773 1.0
C      1  0.3447700103563  0.5775263281122  0.3617401035446 1.0
C      1  0.2986830419766  0.3016527797160  0.4879453500112 1.0
C      1  0.7080925328092  0.4768420293395  0.6771509160769 1.0
C      1  0.3309001359818  0.6683079405054  0.5034812024116 1.0
C      1  0.6630076330862  0.4938073859684  0.3145816086540 1.0
C      1  0.1978661933052  0.6086403729993  0.6291238721066 1.0
C      1  0.8118632689730  0.6042654465382  0.3739997935967 1.0
C      1  0.1691966278619  0.3828555300242  0.4154019346866 1.0
C      1  0.8252766100269  0.3833505323989  0.5995098745811 1.0
C      1  0.5914416409197  0.4220378468432  0.1850961289708 1.0
C      1  0.3943763425977  0.1907360273102  0.5672052188901 1.0
C      1  0.6265093794113  0.5646018792102  0.7863623991169 1.0
C      1  0.3923354757629  0.8003305633147  0.4278690007122 1.0
C      1  0.4343931202305  0.0992027458857  0.5358590919914 1.0
C      1  0.5861511842584  0.5365837326204  0.8744318544604 1.0
C      1  0.4576728585172  0.8713164256654  0.4525360062214 1.0
C      1  0.5399372839656  0.4644297253751  0.1104822385354 1.0
C      1  0.3999375423842  0.7086097872530  0.1722227582626 1.0
C      1  0.5625242075291  0.1745973545205  0.2741500830094 1.0
C      1  0.4645618529550  0.2718085087929  0.8391411189773 1.0
C      1  0.5599750705004  0.8452486040982  0.7098965178665 1.0
C      1  0.7192195542929  0.6404210223824  0.6337903725496 1.0
C      1  0.2758812431882  0.6503180609154  0.3545515236107 1.0
C      1  0.6984645423934  0.3374641510358  0.3354571133525 1.0
C      1  0.3049648198662  0.3470408242597  0.6526610484266 1.0
C      1  0.1214851851268  0.3775459899782  0.5628857257512 1.0
C      1  0.8896886587263  0.5267661595191  0.6037069491286 1.0
C      1  0.1148080427390  0.6212746715445  0.4886037034423 1.0
C      1  0.8746790072287  0.4539910840606  0.3593027526897 1.0
C      1  0.8181527862273  0.3952592688616  0.3144360862689 1.0
C      1  0.1793964648328  0.3278387131779  0.6165685027483 1.0
C      1  0.8416112163027  0.5889909565393  0.6536017034648 1.0
C      1  0.1636828931141  0.6705478387621  0.4265968420686 1.0
C      1  0.5244180848946  0.2499234774365  0.7743900556334 1.0
C      1  0.5044540779204  0.7812212157489  0.7386689934760 1.0
C      1  0.4895566877870  0.7081253394061  0.2008815595080 1.0
C      1  0.4754051416954  0.2065826487136  0.2651925516344 1.0
C      1  0.4997916416625  0.5782758838543  0.9007845443679 1.0
C      1  0.5354015116719  0.9060240714100  0.4182626649645 1.0
C      1  0.4516365772431  0.4519829500977  0.0886893811678 1.0
C      1  0.5237860329591  0.0605110360093  0.5799213887693 1.0
C      1  0.1965460509573  0.5755109395759  0.1802668235618 1.0
C      1  0.7518026354187  0.1546180736977  0.4294733677537 1.0
C      1  0.2846641685742  0.4258027582998  0.8511458556556 1.0
C      1  0.7389273167309  0.8316453230785  0.5591919730450 1.0
C      1  0.4883271763503  0.4212894985497  0.9115889459034 1.0
C      1  0.5281234382102  0.9494190256506  0.5800750155521 1.0
C      1  0.3754130208572  0.5950899202278  0.0617551907474 1.0
C      1  0.5465119192246  0.1043190079982  0.4174120087287 1.0
C      1  0.3112045035519  0.3612711210960  0.1265500805977 1.0
C      1  0.6537079955560  0.1253572375416  0.6671866106379 1.0
C      1  0.3775557719262  0.6867689993523  0.8787528889891 1.0
C      1  0.6686011727154  0.8830373531066  0.3226770639257 1.0
C      1  0.3793803652413  0.4507224260326  0.5402660744468 1.0
C      1  0.6264937936518  0.5416740127777  0.5319732758340 1.0
C      1  0.3760230118901  0.5848206532378  0.4585250241977 1.0
C      1  0.6142139312036  0.4580862215346  0.3995872129478 1.0
C      1  0.4705135939407  0.6676864907379  0.8753366558485 1.0
C      1  0.5889421436825  0.8963787316584  0.3416724854578 1.0
C      1  0.3888073727319  0.3867491178003  0.1115095271685 1.0
C      1  0.5617874854747  0.1135017294168  0.6604505078018 1.0
C      1  0.6722168536079  0.8620801868583  0.5978976585033 1.0
C      1  0.2522665503846  0.6273697720508  0.1502167511551 1.0
C      1  0.6942721854894  0.1386863463766  0.3728062015441 1.0
C      1  0.3433393956570  0.3735273806851  0.8746853775908 1.0
C      1  0.1981071814511  0.4618306745614  0.7205619089379 1.0
C      1  0.8287538812265  0.6967568814369  0.5215783708121 1.0
C      1  0.1561473836936  0.5324993846878  0.3274281899397 1.0
C      1  0.8170692532845  0.2983836289372  0.4532806111171 1.0
C      1  0.6683987579324  0.5165748081423  0.4563039699273 1.0
C      1  0.3312741752017  0.5251813512552  0.5220525611630 1.0
END
