TITL C-25379-3091-56 -2.676 3375.00 -455.65800074 0 0 54 (C1) n - 1
REM
REM Run started: at 2021.01.04 17:06:46 in /gpfs/home/chem/mssmkc/CARBON/AIRSS/Generating-Clusters/Str-Search/Higher-Symm/C4-100
REM VASP from code version vasp.5.4.4.18Apr17-6-g9f103f2a35 (build Oct 11 2019 16:45:47) gamma-only
REM
REM
REM
REM
REM ./C.cell (6bd13a13d554368a30d355f37ece5b26)
REM AIRSS Version 0.9.1 bugfix July 2018 build 013d7b7c2542+ Fri, 06 Jul 2018 19:26:36 +0100
REM compiler GCC version 6.3.0
REM options -cpp -iprefix /gpfs/warwick/csc/orac/software/Core/GCCcore/6.3.0/bin/../lib/gcc/x86_64-pc-linux-gnu/6.3.0/ -mtune=generic -march=x86-64 -g -O0
REM seed 1092756983 339809863 -682543861 -302269895 -1007063257 1426501399 -809817570 775451333 -1618078171 1187778963 286555377 1092086545
REM
REM C.POTCAR (d86ddea03c3ceb6dc662c8ad6801f873)
REM 
CELL 1.54180   15.00000   15.00000   15.00000   90.00000   90.00000   90.00000
LATT -1
SFAC C  
C      1  0.5655062808248  0.7001239941761  0.4282596488247 1.0
C      1  0.7146896546133  0.4039570641087  0.5928748163424 1.0
C      1  0.3835527850428  0.6160107678950  0.7029240486421 1.0
C      1  0.4279437491013  0.6853838154708  0.5518427877433 1.0
C      1  0.3582786962362  0.3090057647856  0.3743093561467 1.0
C      1  0.5960464555760  0.2870740214326  0.5915141595075 1.0
C      1  0.2891518321310  0.4343965260366  0.4332707084206 1.0
C      1  0.3118348704729  0.5688774822350  0.5559441163250 1.0
C      1  0.7136215276293  0.6217179383780  0.3947727133606 1.0
C      1  0.5817565450884  0.5999083903472  0.3013990430776 1.0
C      1  0.5999415216403  0.3997537682746  0.7121251446323 1.0
C      1  0.3550066998081  0.3784385431251  0.3065787597274 1.0
C      1  0.5609141956530  0.3232542800305  0.4401798091336 1.0
C      1  0.6939512216881  0.5598119053632  0.5740635538221 1.0
C      1  0.4442686444031  0.4263557457137  0.6941527378447 1.0
C      1  0.4405054205467  0.3072467083542  0.5719653848681 1.0
C      1  0.3652205878137  0.6961457101551  0.3486641297997 1.0
C      1  0.5792290731248  0.6733810081526  0.5805634918620 1.0
C      1  0.2991151495501  0.6244061207618  0.3483812346784 1.0
C      1  0.3236139073486  0.4172427527100  0.5850095911911 1.0
C      1  0.6838423301257  0.4388335379629  0.4413411272884 1.0
C      1  0.5601522512327  0.4482036029641  0.3290680901656 1.0
C      1  0.5722215973292  0.5552512002357  0.6934110840098 1.0
C      1  0.4288331775534  0.5700775175963  0.2884934913304 1.0
C      1  0.6630862576229  0.5686088795725  0.3382860663719 1.0
C      1  0.5624642121745  0.3227928708433  0.6722236644685 1.0
C      1  0.3454828667753  0.6507150852995  0.5144992468469 1.0
C      1  0.3411844235856  0.5541030612087  0.6480553973687 1.0
C      1  0.3153317171166  0.4572433078972  0.3429672292115 1.0
C      1  0.6770479949059  0.4376319827711  0.6729864069321 1.0
C      1  0.4367257630369  0.3393951797184  0.3324912438322 1.0
C      1  0.4435028429158  0.6574974753439  0.6452475559161 1.0
C      1  0.5360931557852  0.6740412243426  0.3410781004362 1.0
C      1  0.6578977117787  0.6703706731379  0.4503217584971 1.0
C      1  0.6715430372846  0.3292226479892  0.5544175990476 1.0
C      1  0.3219033743509  0.3437822739588  0.4526804402988 1.0
C      1  0.6475487794023  0.4775608037773  0.3628736909200 1.0
C      1  0.5363882734798  0.6355092705465  0.6559846708524 1.0
C      1  0.3565037131761  0.3408575238618  0.5416076920044 1.0
C      1  0.3627834638703  0.4609637114547  0.6591398213805 1.0
C      1  0.3390534176384  0.5448410427268  0.3149882230224 1.0
C      1  0.6601777935040  0.5312561100389  0.6598241156989 1.0
C      1  0.4443238276036  0.6632074129801  0.3142507104675 1.0
C      1  0.4687919895615  0.3394327041566  0.6588175639309 1.0
C      1  0.5210248297895  0.3663241008121  0.3624143533737 1.0
C      1  0.6485776461051  0.3527943693563  0.4640414307767 1.0
C      1  0.6596795261888  0.6432090180509  0.5421386296819 1.0
C      1  0.3197834098425  0.6715092118572  0.4268930475606 1.0
C      1  0.5173893794550  0.5269584121591  0.2907087005248 1.0
C      1  0.5294757257606  0.4699554057372  0.7196711016086 1.0
C      1  0.5228856457917  0.2856905482562  0.5235758206053 1.0
C      1  0.2915010250591  0.4827713920127  0.5184093121205 1.0
C      1  0.5160109613837  0.7035460064071  0.5128090490752 1.0
C      1  0.7191080605218  0.4776501274603  0.5257346284239 1.0
END
