TITL C-25327-2823-27 -6.724 3375.00 -1131.73288385 0 0 140 (C2h) n - 1
REM
REM Run started: at 2021.01.01 04:01:10 in /gpfs/home/chem/mssmkc/CARBON/AIRSS/Generating-Clusters/Str-Search/Higher-Symm/C100-200
REM VASP from code version vasp.5.4.4.18Apr17-6-g9f103f2a35 (build Oct 11 2019 16:45:47) gamma-only
REM
REM
REM
REM
REM ./C.cell (533062f00bc710175b3da973d35f2034)
REM AIRSS Version 0.9.1 bugfix July 2018 build 013d7b7c2542+ Fri, 06 Jul 2018 19:26:36 +0100
REM compiler GCC version 6.3.0
REM options -cpp -iprefix /gpfs/warwick/csc/orac/software/Core/GCCcore/6.3.0/bin/../lib/gcc/x86_64-pc-linux-gnu/6.3.0/ -mtune=generic -march=x86-64 -g -O0
REM seed 112743188 -1082006072 166247693 994319547 -650651167 354868118 662296720 417688085 -633114918 -959850538 -1662810954 -1470892588
REM
REM C.POTCAR (d86ddea03c3ceb6dc662c8ad6801f873)
REM 
CELL 1.54180   15.00000   15.00000   15.00000   90.00000   90.00000   90.00000
LATT -1
SFAC C  
C      1  0.5519677476432  0.5092959315210  0.2992481416802 1.0
C      1  0.4480282845271  0.4906991449286  0.2992493415145 1.0
C      1  0.5519717639342  0.5093026143712  0.7007498237960 1.0
C      1  0.4480311295676  0.4907063472827  0.7007512520468 1.0
C      1  0.4215912020339  0.1850664125678  0.3977583509299 1.0
C      1  0.5784034257507  0.8149264679962  0.3977375935369 1.0
C      1  0.4215969249243  0.1850711525505  0.6022596370561 1.0
C      1  0.5784064348142  0.8149292043915  0.6022419182196 1.0
C      1  0.5722133345825  0.3943468127387  0.8352221259262 1.0
C      1  0.4277879435975  0.6056739453855  0.8352199017727 1.0
C      1  0.5722082764654  0.3943318363451  0.1647874444267 1.0
C      1  0.4277781310648  0.6056571823448  0.1647747259230 1.0
C      1  0.1470035214597  0.4440883945389  0.4047265800250 1.0
C      1  0.8529922863698  0.5559128219611  0.4047225625062 1.0
C      1  0.1470061456024  0.4440888364034  0.5952782755571 1.0
C      1  0.8529975437612  0.5559139796465  0.5952715353636 1.0
C      1  0.8641916005337  0.4715655317607  0.4517974138407 1.0
C      1  0.1358094560861  0.5284383194428  0.4517996678931 1.0
C      1  0.8641937650584  0.4715647936656  0.5481990026404 1.0
C      1  0.1358090679402  0.5284376699557  0.5482028845179 1.0
C      1  0.3966989017992  0.5175267786597  0.7851823499928 1.0
C      1  0.6033049180504  0.4824907575315  0.7851814065335 1.0
C      1  0.3966946169910  0.5175125836509  0.2148165640552 1.0
C      1  0.6033000924927  0.4824770334705  0.2148189427194 1.0
C      1  0.3379472637963  0.6955817240880  0.2820255696208 1.0
C      1  0.6620463145582  0.3044112614675  0.2820371030129 1.0
C      1  0.3379525206048  0.6955918351002  0.7179679677380 1.0
C      1  0.6620520868167  0.3044279185817  0.7179672061068 1.0
C      1  0.3723837520509  0.6596788540506  0.2040740564804 1.0
C      1  0.6276068088379  0.3403144388470  0.2040867014318 1.0
C      1  0.3723855384717  0.6596897313048  0.7959226385391 1.0
C      1  0.6276087257175  0.3403290988419  0.7959183960320 1.0
C      1  0.5114083027826  0.8459251461784  0.7758487753959 1.0
C      1  0.4886413738483  0.1540448317659  0.7758459859941 1.0
C      1  0.5114061856511  0.8459126736579  0.2241280142662 1.0
C      1  0.4886277520245  0.1540347359437  0.2241715355586 1.0
C      1  0.2458641248985  0.6799729354471  0.3070236136749 1.0
C      1  0.7541285181381  0.3200240165084  0.3070297939568 1.0
C      1  0.2458692997280  0.6799789227607  0.6929724241213 1.0
C      1  0.7541367205344  0.3200356497382  0.6929782353027 1.0
C      1  0.7521457933145  0.2433162436231  0.4585331280089 1.0
C      1  0.2478555629255  0.7566855784779  0.4585169118155 1.0
C      1  0.7521485288092  0.2433179720970  0.5414787684118 1.0
C      1  0.2478535524980  0.7566860135977  0.5414773418309 1.0
C      1  0.3907634252904  0.3988478525160  0.6885275939951 1.0
C      1  0.6092395587642  0.6011614701272  0.6885229284085 1.0
C      1  0.3907587419872  0.3988399532250  0.3114761528849 1.0
C      1  0.6092355285610  0.6011542407878  0.3114722497384 1.0
C      1  0.7660924331598  0.4439195241311  0.2182296354368 1.0
C      1  0.2339039246317  0.5560761790751  0.2182306845438 1.0
C      1  0.7660963220941  0.4439285667006  0.7817747681927 1.0
C      1  0.2339037538520  0.5560797797487  0.7817704808135 1.0
C      1  0.2177439839782  0.6895235970882  0.6006504000726 1.0
C      1  0.7822596805719  0.3104846564467  0.6006565392538 1.0
C      1  0.2177444418349  0.6895211656927  0.3993463575981 1.0
C      1  0.7822547718247  0.3104787909354  0.3993495371558 1.0
C      1  0.5506658699640  0.7223045741494  0.5604118194583 1.0
C      1  0.4493332672433  0.2776963680087  0.5604232466197 1.0
C      1  0.5506655276113  0.7223025979404  0.4395768452046 1.0
C      1  0.4493307921003  0.2776935165104  0.4395861478541 1.0
C      1  0.5444663787124  0.8333509005551  0.6862691499109 1.0
C      1  0.4555550148398  0.1666456033313  0.6862754521726 1.0
C      1  0.5444645299473  0.8333403214202  0.3137105246049 1.0
C      1  0.4555415957072  0.1666368284188  0.3137422616074 1.0
C      1  0.6152327652841  0.6484012387353  0.5971475716835 1.0
C      1  0.3847680381596  0.3516024460712  0.5971537560228 1.0
C      1  0.6152292292196  0.6483975486697  0.4028468983163 1.0
C      1  0.3847650835094  0.3515996259702  0.4028504703452 1.0
C      1  0.4487843766082  0.5137551376335  0.4050035466908 1.0
C      1  0.5512106945365  0.4862414729459  0.4050046992904 1.0
C      1  0.4487845432776  0.5137581963044  0.5949951798289 1.0
C      1  0.5512111541757  0.4862451152893  0.5949939009021 1.0
C      1  0.7642395898898  0.7469858781166  0.5966201097465 1.0
C      1  0.2357599923034  0.2530168854502  0.5966201868063 1.0
C      1  0.7642331838368  0.7469863515013  0.4033776272887 1.0
C      1  0.2357601345105  0.2530161340929  0.4033831564725 1.0
C      1  0.8020492173410  0.3728958228574  0.2465864082600 1.0
C      1  0.1979448863028  0.6270970059087  0.2465834111944 1.0
C      1  0.8020564782625  0.3729085383995  0.7534235235244 1.0
C      1  0.1979503990583  0.6271054023221  0.7534132133128 1.0
C      1  0.4383275297800  0.6040006649704  0.4535039046411 1.0
C      1  0.5616698043116  0.3960007592666  0.4535088917277 1.0
C      1  0.4383275259797  0.6039999760147  0.5464909183700 1.0
C      1  0.5616702656831  0.3960015585636  0.5464940557998 1.0
C      1  0.2999780379421  0.4959317874342  0.2278834335225 1.0
C      1  0.7000176368606  0.5040623006109  0.2278818184556 1.0
C      1  0.2999823799919  0.4959414691482  0.7721180996882 1.0
C      1  0.7000205213366  0.5040736660814  0.7721193678859 1.0
C      1  0.4577469849329  0.5213433004142  0.1363000068274 1.0
C      1  0.5422459487018  0.4786443395175  0.1363011080215 1.0
C      1  0.4577521951221  0.5213609427024  0.8636998817781 1.0
C      1  0.5422492442492  0.4786621994345  0.8637011210586 1.0
C      1  0.2938496187628  0.4654370412607  0.4540502873888 1.0
C      1  0.7061466579290  0.5345615797389  0.4540480307147 1.0
C      1  0.2938507058655  0.4654367344919  0.5459511581300 1.0
C      1  0.7061479124973  0.5345615853612  0.5459492829569 1.0
C      1  0.1049668901211  0.3798600276226  0.5424287345743 1.0
C      1  0.8950327055690  0.6201452042361  0.5424215352448 1.0
C      1  0.1049646637825  0.3798586946584  0.4575758380064 1.0
C      1  0.8950309945410  0.6201442224619  0.4575703297880 1.0
C      1  0.5850816796521  0.2714139126508  0.6644103595169 1.0
C      1  0.4149275389729  0.7285938458857  0.6644102054432 1.0
C      1  0.5850747748245  0.2714036024627  0.3355972691205 1.0
C      1  0.4149249118653  0.7285870557291  0.3355799422878 1.0
C      1  0.6973635948626  0.5707513404868  0.2942242378320 1.0
C      1  0.3026319253931  0.4292421600558  0.2942256911609 1.0
C      1  0.6973664807462  0.5707585588210  0.7057731231846 1.0
C      1  0.3026356908275  0.4292506012011  0.7057769784825 1.0
C      1  0.6092333878892  0.5557440860205  0.5499618571211 1.0
C      1  0.3907647114178  0.4442561479646  0.5499632761739 1.0
C      1  0.6092323050098  0.5557422631154  0.4500364847069 1.0
C      1  0.3907639918718  0.4442547240209  0.4500372826864 1.0
C      1  0.3869174964194  0.1271782449257  0.5418946120219 1.0
C      1  0.6130740665439  0.8728187731735  0.5418671908297 1.0
C      1  0.3869162387001  0.1271796617777  0.4581328898833 1.0
C      1  0.6130738109899  0.8728226972390  0.4581046786538 1.0
C      1  0.7568915386329  0.5790359201545  0.3779057494085 1.0
C      1  0.2431025173817  0.4209627673548  0.3779119757969 1.0
C      1  0.7568947623728  0.5790369225190  0.6220879859912 1.0
C      1  0.2431054106805  0.4209653344334  0.6220935824813 1.0
C      1  0.5417549459053  0.3106024203383  0.5921495309784 1.0
C      1  0.4582442135974  0.6893995922763  0.5921446495786 1.0
C      1  0.5417527188522  0.3105992798462  0.4078571228877 1.0
C      1  0.4582432166483  0.6893991844866  0.4078487810759 1.0
C      1  0.5346302669722  0.2060061690310  0.7117482588750 1.0
C      1  0.4653954720368  0.7939861706155  0.7117499377528 1.0
C      1  0.5346185958106  0.2059986984760  0.2882694118523 1.0
C      1  0.4653902589374  0.7939758901847  0.2882295453780 1.0
C      1  0.1950270104907  0.1992499871204  0.5435525709979 1.0
C      1  0.8049528736152  0.8007509214494  0.5435435701757 1.0
C      1  0.1950302314798  0.1992570671213  0.4564582934576 1.0
C      1  0.8049538931628  0.8007566995180  0.4564471438210 1.0
C      1  0.1732284563646  0.6238466741152  0.5478876685869 1.0
C      1  0.8267735266323  0.3761567396195  0.5478870180015 1.0
C      1  0.1732287748202  0.6238454483015  0.4521113131250 1.0
C      1  0.8267712411310  0.3761564302511  0.4521131916771 1.0
C      1  0.7165718845307  0.6717341087701  0.4025866961736 1.0
C      1  0.2834241700897  0.3282657249681  0.4025890279862 1.0
C      1  0.7165743901000  0.6717350086992  0.5974089879824 1.0
C      1  0.2834242498003  0.3282676885638  0.5974160572876 1.0
END
