TITL C-257256-4901-6 -8.691 3375.00 -1531.59326411 0 0 185 (C1) n - 1
REM
REM Run started: at 2020.11.24 18:41:22 in /rds/project/t2_vol4/rds-t2-cs072/BORA/CARBON/AIRSS/Generating-Clusters/Str-Search/Higher-Symm
REM VASP from code version vasp.5.4.4.18Apr17-6-g9f103f2a35 (build Oct 11 2019 16:45:47) gamma-only
REM
REM
REM
REM
REM ./C.cell (e5ae0387ce4d49c7c0135a1433873289)
REM AIRSS Version 0.9.1 bugfix July 2018 build 013d7b7c2542+ Fri, 06 Jul 2018 19:26:36 +0100
REM compiler GCC version 4.8.5 20150623 (Red Hat 4.8.5-39)
REM options -cpp -mtune=generic -march=x86-64 -g -O0
REM seed 89563069 808021219 -1743117894 1072481999 1642755527 581694039 2123550469 -1203538352 -1110673306 -694642061 -135286464 1268396827
REM
REM C.POTCAR (d86ddea03c3ceb6dc662c8ad6801f873)
REM 
CELL 1.54180   15.00000   15.00000   15.00000   90.00000   90.00000   90.00000
LATT -1
SFAC C  
C      1  0.7626007426636  0.3819315261643  0.3213274239513 1.0
C      1  0.5176653106602  0.3880271541066  0.8255470513135 1.0
C      1  0.2025793460338  0.3748381421150  0.3505362041495 1.0
C      1  0.1898498093473  0.6199753455391  0.3080527105773 1.0
C      1  0.4877840141146  0.6146145602531  0.8283188049656 1.0
C      1  0.7967740220195  0.6148999050483  0.3480982967624 1.0
C      1  0.1867857800287  0.4537856422676  0.2977463968635 1.0
C      1  0.8196801344214  0.4549367168096  0.3390557822133 1.0
C      1  0.4754076473186  0.4621741865755  0.8670923641222 1.0
C      1  0.8007113098674  0.5376381335366  0.2934222850889 1.0
C      1  0.1545199318009  0.5342921806013  0.3381304965212 1.0
C      1  0.5300283323897  0.5394953427642  0.8705147719913 1.0
C      1  0.6131790048856  0.7047682424807  0.4001479874943 1.0
C      1  0.5535785303898  0.7168837459993  0.6437680475965 1.0
C      1  0.3957283270962  0.6586960580556  0.4414066817484 1.0
C      1  0.3990895397222  0.2726634463389  0.3937808463628 1.0
C      1  0.4523549934091  0.2835475101686  0.6355672742338 1.0
C      1  0.6158290755983  0.3373913883786  0.4428141589034 1.0
C      1  0.5850546072843  0.1556490610476  0.6651987993440 1.0
C      1  0.3348296464186  0.1547221664116  0.5004365927413 1.0
C      1  0.6107918520005  0.1817814710772  0.3892188491570 1.0
C      1  0.4185129220730  0.8402244160377  0.6562390790803 1.0
C      1  0.6736956645430  0.8359517610761  0.5018380857714 1.0
C      1  0.4169769122042  0.7913728993420  0.3771986377689 1.0
C      1  0.5629955930397  0.7400992768253  0.1951240076786 1.0
C      1  0.7397607844950  0.7509062506263  0.7173170453453 1.0
C      1  0.2053464562182  0.7449689989474  0.5918440038801 1.0
C      1  0.4295926368531  0.2497023089437  0.1772061334851 1.0
C      1  0.2653750188286  0.2512613627593  0.7116721615956 1.0
C      1  0.7962718984021  0.2515274736689  0.6035238668327 1.0
C      1  0.4951218731827  0.6279228931038  0.3114234315889 1.0
C      1  0.6897046009728  0.6087183660323  0.6486714873233 1.0
C      1  0.3011339574671  0.6099641489084  0.5653015168514 1.0
C      1  0.4665641734503  0.3857019357416  0.2759058775579 1.0
C      1  0.3169236452242  0.3934970889809  0.6332103104408 1.0
C      1  0.6963499735971  0.3889666743992  0.5756710427410 1.0
C      1  0.5777249214685  0.6139940135250  0.3761108244613 1.0
C      1  0.5932337652947  0.6295160443378  0.6489341608225 1.0
C      1  0.3219352354879  0.6045811437770  0.4683623567818 1.0
C      1  0.4212599257795  0.3570434221800  0.3583545464367 1.0
C      1  0.4126725474198  0.3715721466898  0.6360236952651 1.0
C      1  0.6752946519203  0.4043591050134  0.4806594999103 1.0
C      1  0.4223640044614  0.1865584595347  0.6345039299235 1.0
C      1  0.4340997818611  0.1833274286442  0.3708271019044 1.0
C      1  0.6663789194899  0.1103059226822  0.5264037439087 1.0
C      1  0.5834796594607  0.8127202373780  0.6368939099450 1.0
C      1  0.5789858456081  0.7969921479497  0.3733176198290 1.0
C      1  0.3426950791152  0.8597244214041  0.5064638884902 1.0
C      1  0.3133484447100  0.4608802855811  0.5636336726705 1.0
C      1  0.5168757146187  0.4685164259285  0.2835381902846 1.0
C      1  0.6594065915280  0.4616036003527  0.6190575098681 1.0
C      1  0.6989253989157  0.5434302331084  0.5807980900565 1.0
C      1  0.4566150740583  0.5385817036710  0.3100409014566 1.0
C      1  0.3486608856345  0.5430121461941  0.6084495882135 1.0
C      1  0.7634742049391  0.5770293477806  0.8149141747768 1.0
C      1  0.1044187253089  0.5775668381099  0.5665393828920 1.0
C      1  0.6381112751874  0.5841522095557  0.1232945939872 1.0
C      1  0.2415663655682  0.4436322559111  0.7896314022712 1.0
C      1  0.8787456720183  0.4323735043891  0.5738494275465 1.0
C      1  0.3733449073001  0.4458534095033  0.1372985864555 1.0
C      1  0.8110208844842  0.5825801934150  0.7317028157664 1.0
C      1  0.1604827738461  0.5833610294383  0.6419091248019 1.0
C      1  0.5457058193471  0.5823946534751  0.1434945117249 1.0
C      1  0.1904893211114  0.4169170023944  0.7127098816471 1.0
C      1  0.8310526110509  0.4165746877615  0.6543870354659 1.0
C      1  0.4654048036562  0.4200243551646  0.1271413118406 1.0
C      1  0.7565715776703  0.4806387785548  0.8049196845779 1.0
C      1  0.1117749074436  0.4788531582773  0.5694781068444 1.0
C      1  0.6348767105775  0.4849676748241  0.1249980591343 1.0
C      1  0.2471607988095  0.5339904275200  0.8134306744002 1.0
C      1  0.9071996004451  0.5231136645804  0.5598988551977 1.0
C      1  0.3460806794150  0.5338694268477  0.1308109348676 1.0
C      1  0.4096630600125  0.6927025886313  0.3446100904172 1.0
C      1  0.7146666635190  0.7330544061958  0.3955964545328 1.0
C      1  0.4921674267219  0.7331234347424  0.7330884491568 1.0
C      1  0.6522059730561  0.2756118917140  0.3667341145742 1.0
C      1  0.2939100560024  0.2558215326849  0.3933992219881 1.0
C      1  0.5112225774808  0.2714197022920  0.7277646381069 1.0
C      1  0.5626068629058  0.6613338043007  0.4710717110412 1.0
C      1  0.5351020467000  0.6507678366131  0.5681247433353 1.0
C      1  0.4696818669639  0.6606194785718  0.4949522248267 1.0
C      1  0.4427354734029  0.3317389967957  0.4573297567540 1.0
C      1  0.4698570640644  0.3480351054936  0.5558183870548 1.0
C      1  0.5349141682307  0.3367008636449  0.4832302947961 1.0
C      1  0.6037819645219  0.2981931912721  0.7329268675509 1.0
C      1  0.2464593284702  0.2855959415686  0.4730580772033 1.0
C      1  0.6398674819425  0.3071368537502  0.2713606971107 1.0
C      1  0.4006023873476  0.7028144010907  0.7327037210011 1.0
C      1  0.7684226257963  0.7098952536453  0.4738163642739 1.0
C      1  0.3397136035179  0.6865954493802  0.2624887028526 1.0
C      1  0.4986438553919  0.1722085332497  0.7074241697507 1.0
C      1  0.3322055955144  0.1590097750727  0.3982920167494 1.0
C      1  0.6743725867399  0.1331746416338  0.4363546633627 1.0
C      1  0.5034643301717  0.8306669835657  0.7052252152070 1.0
C      1  0.6758161122133  0.8268875846510  0.4002172732900 1.0
C      1  0.3403904738074  0.8270342150978  0.4191291421459 1.0
C      1  0.1480735481643  0.6965126962881  0.4455466841416 1.0
C      1  0.7131535000094  0.6996831607640  0.2321389236357 1.0
C      1  0.6284234351170  0.7006730437852  0.8197320017858 1.0
C      1  0.8153050297331  0.3014139556426  0.4536847422811 1.0
C      1  0.2949868021376  0.2961525120045  0.2361554446924 1.0
C      1  0.3732057626096  0.3069174141364  0.8094019403759 1.0
C      1  0.6352603714968  0.8376230463969  0.3048725028218 1.0
C      1  0.6053186429928  0.8451433904047  0.7260946118673 1.0
C      1  0.2623479929227  0.8186153087100  0.4717857677409 1.0
C      1  0.3724538297399  0.1479872244936  0.3017548689538 1.0
C      1  0.3987107407863  0.1582472484008  0.7253488229281 1.0
C      1  0.7460822358713  0.1542703835294  0.4926504843722 1.0
C      1  0.6683254710908  0.6078332005558  0.8200744341305 1.0
C      1  0.1133136063480  0.6112863770738  0.4783595753092 1.0
C      1  0.7087489119417  0.6185319187634  0.1801842724173 1.0
C      1  0.3364713103336  0.4014312047254  0.8020343767712 1.0
C      1  0.8581935652009  0.3851164575937  0.4830131991700 1.0
C      1  0.3132427765152  0.3949349635882  0.2087044569686 1.0
C      1  0.4726300020007  0.7396655730171  0.1877120293072 1.0
C      1  0.7696537394837  0.7516350720706  0.6318382790283 1.0
C      1  0.2643312241919  0.7452405488454  0.6594544313358 1.0
C      1  0.5202402289313  0.2449497881089  0.1783258390805 1.0
C      1  0.2373261223804  0.2454641661304  0.6270037479425 1.0
C      1  0.7410437007942  0.2499127655984  0.6736809020473 1.0
C      1  0.1731799728483  0.6971429834988  0.3568952312424 1.0
C      1  0.7555408109679  0.6910351237951  0.3161309261295 1.0
C      1  0.5338673405226  0.6911879241359  0.8107795305290 1.0
C      1  0.7576696668209  0.3060810004541  0.3753828506954 1.0
C      1  0.2470759345429  0.3002198185907  0.3184903548051 1.0
C      1  0.4681972453562  0.3152161011112  0.8031180690658 1.0
C      1  0.3564747250963  0.2228480427637  0.2329336650117 1.0
C      1  0.8013797718462  0.2257510811781  0.5130263350677 1.0
C      1  0.3429851612655  0.2316133554813  0.7638011578959 1.0
C      1  0.6445837706655  0.7699661730479  0.2349373788994 1.0
C      1  0.1895927982328  0.7666801871643  0.5008843486043 1.0
C      1  0.6606575482064  0.7724270398301  0.7684188093756 1.0
C      1  0.6083346021209  0.4659731492576  0.3056608848153 1.0
C      1  0.6237921527773  0.4714565235848  0.7047225572210 1.0
C      1  0.2855777420060  0.4505114293806  0.4766096296705 1.0
C      1  0.3747222807638  0.5051619562386  0.3415854973851 1.0
C      1  0.3856750046902  0.5328880955982  0.6937619191182 1.0
C      1  0.7274438288817  0.5546836120337  0.4954883407849 1.0
C      1  0.3761988621723  0.4343387961820  0.7075711151275 1.0
C      1  0.3714599407651  0.4161357663633  0.2986068375467 1.0
C      1  0.6814265412466  0.4905072039184  0.4430290618740 1.0
C      1  0.6291383662633  0.5697482989279  0.7209687398012 1.0
C      1  0.6286745571244  0.5281622906735  0.3716425276090 1.0
C      1  0.3192487933326  0.5237687099074  0.4198292961687 1.0
C      1  0.3988798943393  0.6072078164441  0.7739569443530 1.0
C      1  0.2633409332856  0.6224646503328  0.2476316641531 1.0
C      1  0.8020230176792  0.6133527589915  0.4516257903354 1.0
C      1  0.6080230918088  0.3943423805669  0.7761916587422 1.0
C      1  0.6797714952310  0.3986588150414  0.2652378687171 1.0
C      1  0.2083388155357  0.3829575844431  0.4520070336510 1.0
C      1  0.2735961428545  0.5472795257016  0.1911544228600 1.0
C      1  0.8750933923869  0.5436139750538  0.4754534891618 1.0
C      1  0.3359943439989  0.5526386353620  0.8348723268657 1.0
C      1  0.6998322021659  0.4574148082520  0.1852201113498 1.0
C      1  0.1314781935265  0.4483561814563  0.4837329327585 1.0
C      1  0.6729564956415  0.4495371531306  0.8362810175238 1.0
C      1  0.7680636850055  0.6618345702478  0.6792043105111 1.0
C      1  0.2327523191428  0.6553149972947  0.6245908866624 1.0
C      1  0.5226154933153  0.6503875962016  0.2122929998679 1.0
C      1  0.2390881815950  0.3382976580997  0.6682142939890 1.0
C      1  0.7651965984502  0.3399605787917  0.6338323778389 1.0
C      1  0.4694738105191  0.3392858366391  0.1863175131140 1.0
C      1  0.4960645699465  0.8283746839122  0.4150606690937 1.0
C      1  0.5914644257216  0.8513995404667  0.5461927806765 1.0
C      1  0.4198429925715  0.8631991079126  0.5606796060142 1.0
C      1  0.5202182406225  0.1564090592946  0.4187595614539 1.0
C      1  0.4170099638353  0.1413020676259  0.5464622425460 1.0
C      1  0.5863843908687  0.1220189403532  0.5733481813955 1.0
C      1  0.6227346373750  0.5313563891218  0.8664479126158 1.0
C      1  0.1211753550357  0.5300540664191  0.4256629601769 1.0
C      1  0.7515158345197  0.5380293819724  0.2127404978780 1.0
C      1  0.3836463993250  0.4702031337869  0.8585506992901 1.0
C      1  0.8611798179058  0.4584879768996  0.4232579286729 1.0
C      1  0.2391422147603  0.4619565660226  0.2213734138010 1.0
C      1  0.3853289594441  0.7228408084260  0.1923299742256 1.0
C      1  0.7461883960589  0.7712276183013  0.5404837394858 1.0
C      1  0.3529466040217  0.7686693233670  0.6875090772845 1.0
C      1  0.5997361490744  0.2549562019960  0.2125860739759 1.0
C      1  0.2644292582447  0.2223275119816  0.5381475427008 1.0
C      1  0.6513633648635  0.2267526577448  0.6968211234172 1.0
C      1  0.8152309632604  0.4823564180242  0.7224815125134 1.0
C      1  0.1529907217627  0.4831584015219  0.6582064937098 1.0
C      1  0.5350131182650  0.4838747196858  0.1263843471380 1.0
C      1  0.5073544572088  0.1267887425088  0.5105237133344 1.0
C      1  0.5021891519896  0.8610238246148  0.5052134970448 1.0
END
