TITL C-251552-4247-8 -6.817 3375.00 -1262.67002786 0 0 157 (C1) n - 1
REM
REM Run started: at 2020.12.07 07:08:28 in /rds/project/t2_vol4/rds-t2-cs072/BORA/CARBON/AIRSS/Generating-Clusters/Str-Search/Higher-Symm/C100-200
REM VASP from code version vasp.5.4.4.18Apr17-6-g9f103f2a35 (build Oct 11 2019 16:45:47) gamma-only
REM
REM
REM
REM
REM ./C.cell (533062f00bc710175b3da973d35f2034)
REM AIRSS Version 0.9.1 bugfix July 2018 build 013d7b7c2542+ Fri, 06 Jul 2018 19:26:36 +0100
REM compiler GCC version 4.8.5 20150623 (Red Hat 4.8.5-39)
REM options -cpp -mtune=generic -march=x86-64 -g -O0
REM seed 1139687203 -814247824 683275040 -86064282 -1341206688 1386022279 -1351287353 1591044983 -776771748 1184980934 930638537 830656932
REM
REM C.POTCAR (d86ddea03c3ceb6dc662c8ad6801f873)
REM 
CELL 1.54180   15.00000   15.00000   15.00000   90.00000   90.00000   90.00000
LATT -1
SFAC C  
C      1  0.3629406352337  0.4937688535909  0.3549451203351 1.0
C      1  0.5414040373191  0.5201162694271  0.3061961629868 1.0
C      1  0.6145194823135  0.5190010799257  0.4624610267869 1.0
C      1  0.6256235745198  0.5022498156424  0.6317965257279 1.0
C      1  0.4585640207457  0.5493527240814  0.6870558445923 1.0
C      1  0.3569795193769  0.5362356758774  0.5310712744340 1.0
C      1  0.6247775283605  0.4930320870894  0.3616428747570 1.0
C      1  0.4559429959383  0.4501902092314  0.3062003561954 1.0
C      1  0.3273552228706  0.4460379884799  0.4510737375537 1.0
C      1  0.3736435005435  0.5032641698182  0.6324235509630 1.0
C      1  0.5429813498978  0.4824293302453  0.6956838964505 1.0
C      1  0.6450160538440  0.4480750099372  0.5363004296323 1.0
C      1  0.4551373686859  0.5288066191909  0.7958290971695 1.0
C      1  0.2011970224428  0.4951104031019  0.6304124360324 1.0
C      1  0.2746055009675  0.5033962982745  0.2969361541632 1.0
C      1  0.5472933086208  0.5047237701512  0.2030006074090 1.0
C      1  0.7951203723567  0.5085582021015  0.3653653884770 1.0
C      1  0.7153725167611  0.5059626766732  0.6857583354498 1.0
C      1  0.5491930260284  0.5055916196561  0.7969321383762 1.0
C      1  0.7972549436270  0.5067695435061  0.6409756565343 1.0
C      1  0.7171017035937  0.5020319008471  0.3139031258157 1.0
C      1  0.4547645806830  0.4750886656906  0.2016651849929 1.0
C      1  0.1924857090874  0.5242381807540  0.3425923630967 1.0
C      1  0.2785963504165  0.4958641390417  0.6877537501143 1.0
C      1  0.3277245785251  0.6763969422364  0.6770792293256 1.0
C      1  0.3545204340549  0.6585085597773  0.4180671776203 1.0
C      1  0.4700940155426  0.6645194546320  0.2611982377508 1.0
C      1  0.6846410345943  0.6845544478224  0.3316923222106 1.0
C      1  0.6604053544556  0.6729452539477  0.5795822357219 1.0
C      1  0.5394284810948  0.6812976807696  0.7478566838599 1.0
C      1  0.6877764202469  0.3162704476258  0.6749124751818 1.0
C      1  0.6607705865990  0.3250319349061  0.4142186096851 1.0
C      1  0.5362941008535  0.3087353066229  0.2490616216549 1.0
C      1  0.2951716113403  0.3109530472122  0.2901024230801 1.0
C      1  0.3682772687757  0.3208314362873  0.6292078375020 1.0
C      1  0.4785318025810  0.3337803435484  0.7656696287514 1.0
C      1  0.5198833917163  0.1616095643698  0.6656049202334 1.0
C      1  0.3557462010502  0.1224304168853  0.6311087571472 1.0
C      1  0.3515099081972  0.2104942453375  0.4580466110890 1.0
C      1  0.4997744441726  0.1876502283562  0.3528966830036 1.0
C      1  0.6000256632720  0.1644142136423  0.3852845716686 1.0
C      1  0.6492323722317  0.1600027352501  0.5581859166459 1.0
C      1  0.4928618805663  0.8191544324951  0.6611390566674 1.0
C      1  0.6338543533065  0.8328701017811  0.5910657292276 1.0
C      1  0.6404842637161  0.8362015054015  0.4291621062230 1.0
C      1  0.5028183579523  0.8315372124695  0.3403463255642 1.0
C      1  0.3591844280057  0.8258077337536  0.4153612425234 1.0
C      1  0.3571547101130  0.8286960517643  0.5761754541487 1.0
C      1  0.2656412175478  0.5393263603364  0.7771905865001 1.0
C      1  0.1686698706574  0.5732293971055  0.4180632783406 1.0
C      1  0.3983256679685  0.5444949437173  0.1488681635667 1.0
C      1  0.7365757109672  0.5451240655301  0.2250887407442 1.0
C      1  0.8441729046093  0.5556393218095  0.5793494883077 1.0
C      1  0.6144846885781  0.5517085153537  0.8554890817647 1.0
C      1  0.7356260312748  0.4617647770486  0.7742959845413 1.0
C      1  0.8366941545959  0.4617980330841  0.4325245507209 1.0
C      1  0.6135427010742  0.4563102820924  0.1454904814890 1.0
C      1  0.2606196258534  0.4612793018976  0.2052474710355 1.0
C      1  0.1555544085022  0.4603020134149  0.5569364636204 1.0
C      1  0.3984465454946  0.4633739070702  0.8538616616396 1.0
C      1  0.3203944253223  0.3983470131586  0.1631481618700 1.0
C      1  0.6723110530321  0.3940825211992  0.1902380684608 1.0
C      1  0.8132189793479  0.4049713547964  0.5033025278361 1.0
C      1  0.6752405266237  0.4001840909343  0.8140212818439 1.0
C      1  0.3402578389372  0.3953228268943  0.8187393306161 1.0
C      1  0.1584451663851  0.4147615853085  0.4730059827284 1.0
C      1  0.6743863413165  0.6070215374193  0.1884904112641 1.0
C      1  0.3397341203510  0.6103226675972  0.1877402859501 1.0
C      1  0.2030139505118  0.6086446398517  0.4976021345860 1.0
C      1  0.3225313208614  0.6053073888100  0.8178524640972 1.0
C      1  0.6732779089884  0.6132388766963  0.8104917313339 1.0
C      1  0.8120927707931  0.6113805168442  0.5063694858838 1.0
C      1  0.7384881104505  0.5538747912411  0.7731448978862 1.0
C      1  0.3898745663653  0.5548083885754  0.8621116928304 1.0
C      1  0.1692382343479  0.5534211818242  0.5654154380541 1.0
C      1  0.2654790775688  0.5528142337643  0.2079291003427 1.0
C      1  0.6119621714060  0.5484116324756  0.1447671235716 1.0
C      1  0.8384741255563  0.5577042277150  0.4299283375997 1.0
C      1  0.2695024521892  0.4477206113480  0.7782042630143 1.0
C      1  0.6124759347000  0.4590815528133  0.8568780384855 1.0
C      1  0.8408368541293  0.4590756329171  0.5750320820426 1.0
C      1  0.7392036916921  0.4533580294252  0.2273468339150 1.0
C      1  0.3914012495540  0.4536869591934  0.1324508079310 1.0
C      1  0.1393658806058  0.4823199473384  0.4066490749620 1.0
C      1  0.5777273234671  0.9039305518003  0.5531115499546 1.0
C      1  0.4949782964916  0.8962549009202  0.5978139171544 1.0
C      1  0.4136703277890  0.9005161220318  0.5476570411589 1.0
C      1  0.4128727202932  0.9023272793982  0.4514344945700 1.0
C      1  0.4966062175672  0.9057485893695  0.4060800852744 1.0
C      1  0.5800882905004  0.9088563284813  0.4571408870996 1.0
C      1  0.4158310033521  0.0927111335858  0.5653428222217 1.0
C      1  0.5084076372454  0.0882276939423  0.5977787479800 1.0
C      1  0.5828980481523  0.0896230353885  0.5354722440431 1.0
C      1  0.5609481296154  0.0925983425078  0.4426990339654 1.0
C      1  0.4711954764951  0.1150164626114  0.4156277426667 1.0
C      1  0.4007840385244  0.1249933309185  0.4753809817824 1.0
C      1  0.3243322510874  0.7084212163246  0.3291224892108 1.0
C      1  0.5504840479372  0.7160662491623  0.2389501348453 1.0
C      1  0.7203183240071  0.7071135590360  0.4107821267393 1.0
C      1  0.6822647751263  0.7165551511841  0.6743582105920 1.0
C      1  0.4526483214920  0.7164782202647  0.7819913508676 1.0
C      1  0.3246017394454  0.6931390505093  0.5838849808128 1.0
C      1  0.6813018683042  0.2777726697683  0.3167197705078 1.0
C      1  0.4408535377811  0.2824570860217  0.2148827607703 1.0
C      1  0.2564559754463  0.3150314577202  0.3712619021243 1.0
C      1  0.3423948632838  0.2714755833072  0.7046730484158 1.0
C      1  0.5583864470078  0.2800589644217  0.7695017815681 1.0
C      1  0.7156369393981  0.2979738177677  0.5914777664396 1.0
C      1  0.4508922220899  0.5428814464061  0.4842882299811 1.0
C      1  0.4122069392895  0.5785012207423  0.3911914559067 1.0
C      1  0.4845524069043  0.5997101671709  0.3257323357415 1.0
C      1  0.5492874578333  0.5789115678552  0.5070338002112 1.0
C      1  0.5910722930840  0.5962953067971  0.5970148226494 1.0
C      1  0.5153099891148  0.6389141791764  0.6573982440009 1.0
C      1  0.5661226678546  0.4290291346347  0.4800681042833 1.0
C      1  0.5972929497623  0.3976900282752  0.3882574105032 1.0
C      1  0.5159874786541  0.3605158730067  0.3369949100680 1.0
C      1  0.4042349147368  0.3901479934003  0.4690335513834 1.0
C      1  0.4079510589478  0.4095274148822  0.6436066876804 1.0
C      1  0.4847215914696  0.4009962643973  0.6964182478306 1.0
C      1  0.4973280555033  0.2808406962672  0.4048185520996 1.0
C      1  0.5885782544441  0.2604239638950  0.4482736112610 1.0
C      1  0.5808886261821  0.2315865538487  0.5377103017813 1.0
C      1  0.5087010911071  0.2342595538233  0.5942061292993 1.0
C      1  0.4312390996227  0.2779040996579  0.5674307578864 1.0
C      1  0.4203262663841  0.2922995750776  0.4701596690879 1.0
C      1  0.4992203295058  0.7563834519469  0.4114307314393 1.0
C      1  0.4112561248434  0.7389022934710  0.4520430661033 1.0
C      1  0.4112273392209  0.7399326040255  0.5524085317097 1.0
C      1  0.4979534649686  0.7290528050941  0.6023755382803 1.0
C      1  0.5893115319258  0.7447588400245  0.5521766567343 1.0
C      1  0.5761604813411  0.7612164144047  0.4572389756458 1.0
C      1  0.5457091331850  0.1933948889187  0.7438028136207 1.0
C      1  0.3326805611071  0.1796308005548  0.6862386438239 1.0
C      1  0.2764412546361  0.2362048982733  0.4193823914084 1.0
C      1  0.4858072912850  0.2224951994130  0.2634267578938 1.0
C      1  0.6673801795781  0.1892459075330  0.3245568197094 1.0
C      1  0.7261068212188  0.2008719973961  0.5773451161848 1.0
C      1  0.4812824245749  0.7948479895740  0.7464704440742 1.0
C      1  0.6836978912738  0.8068016457118  0.6621077221267 1.0
C      1  0.7228303399961  0.8063044161559  0.4094363416496 1.0
C      1  0.5342326712898  0.8016889589599  0.2632072665250 1.0
C      1  0.3132001349615  0.7986892629172  0.3408520649165 1.0
C      1  0.2766229604430  0.7878650019484  0.5852413603457 1.0
C      1  0.6371585730186  0.6817098813173  0.7585380696470 1.0
C      1  0.3588508285850  0.6764989760835  0.7608747305275 1.0
C      1  0.3022593133546  0.6252551769052  0.5080320807209 1.0
C      1  0.3709507587493  0.6744081831586  0.2469716895041 1.0
C      1  0.6429481685475  0.6753067480867  0.2509303766988 1.0
C      1  0.7334106737613  0.6618024603539  0.5017726405882 1.0
C      1  0.3785181672462  0.3182185696888  0.7841037993233 1.0
C      1  0.6476505669303  0.3264001287163  0.7553610134344 1.0
C      1  0.7170915358876  0.3667164034287  0.5115186925856 1.0
C      1  0.6382325573106  0.3208780343932  0.2349503478598 1.0
C      1  0.3480455792931  0.3219077437831  0.2173687214382 1.0
C      1  0.2445814313838  0.3881007600425  0.4388446421038 1.0
C      1  0.4730304824259  0.4460991661312  0.4859977570484 1.0
END
