TITL C-257256-4901-11 -2.555 3375.00 -437.23396445 0 0 54 (C1) n - 1
REM
REM Run started: at 2020.11.24 20:01:30 in /rds/project/t2_vol4/rds-t2-cs072/BORA/CARBON/AIRSS/Generating-Clusters/Str-Search/Higher-Symm
REM VASP from code version vasp.5.4.4.18Apr17-6-g9f103f2a35 (build Oct 11 2019 16:45:47) gamma-only
REM
REM
REM
REM
REM ./C.cell (e5ae0387ce4d49c7c0135a1433873289)
REM AIRSS Version 0.9.1 bugfix July 2018 build 013d7b7c2542+ Fri, 06 Jul 2018 19:26:36 +0100
REM compiler GCC version 4.8.5 20150623 (Red Hat 4.8.5-39)
REM options -cpp -mtune=generic -march=x86-64 -g -O0
REM seed 1922615960 562791044 -818201314 546858903 -176561567 54231182 -66092044 1004731013 -1266773135 -550525219 1649191681 -1352331868
REM
REM C.POTCAR (d86ddea03c3ceb6dc662c8ad6801f873)
REM 
CELL 1.54180   15.00000   15.00000   15.00000   90.00000   90.00000   90.00000
LATT -1
SFAC C  
C      1  0.4180976526718  0.7081706331326  0.4067781908060 1.0
C      1  0.3983868313491  0.6885778999471  0.5725516959618 1.0
C      1  0.4959641216096  0.6811622885248  0.5812319945256 1.0
C      1  0.5132897375697  0.6835789013179  0.4184115624278 1.0
C      1  0.5307987545934  0.5534161388980  0.6959646142809 1.0
C      1  0.5393728592835  0.5568881503863  0.2995928864762 1.0
C      1  0.4504116651948  0.5072293823043  0.6981630785107 1.0
C      1  0.4566103867518  0.5148350594402  0.3000959495079 1.0
C      1  0.3735512228601  0.5585007600195  0.3295038392097 1.0
C      1  0.3633475472027  0.5468489983692  0.6685977386762 1.0
C      1  0.4874382293009  0.2816317386997  0.5800248129628 1.0
C      1  0.4873633094209  0.2843871077101  0.4182168351471 1.0
C      1  0.5464736680490  0.6405413254548  0.6520023077411 1.0
C      1  0.5661606792521  0.6373776594967  0.3509114370697 1.0
C      1  0.6214248748406  0.5273889626635  0.6733526839035 1.0
C      1  0.6292631632345  0.5202402374710  0.3112317632150 1.0
C      1  0.6339549041199  0.6148143839024  0.6224118634771 1.0
C      1  0.6509280560701  0.5964078787558  0.3718696251646 1.0
C      1  0.5831568739182  0.3196026293218  0.5757440970655 1.0
C      1  0.5838065112387  0.3168531670436  0.4197660475537 1.0
C      1  0.3431177226670  0.6123178034827  0.6050638570203 1.0
C      1  0.3564370421435  0.6391458859096  0.3730622484539 1.0
C      1  0.2823816095684  0.4243039970094  0.5884240606232 1.0
C      1  0.2953436057683  0.4399580526641  0.4254704619558 1.0
C      1  0.6252705264222  0.3591954001599  0.6530531435464 1.0
C      1  0.6229899126427  0.3520282735470  0.3405519447640 1.0
C      1  0.3256038346273  0.4564723903461  0.6636712750444 1.0
C      1  0.3331638863492  0.4722023904032  0.3462269944958 1.0
C      1  0.4203050963943  0.3418462518679  0.3789708275490 1.0
C      1  0.4197334758343  0.3354064029182  0.6204971411612 1.0
C      1  0.4119451466126  0.4145322440885  0.6802434097971 1.0
C      1  0.4149913009342  0.4228328760780  0.3245383004120 1.0
C      1  0.6438574952948  0.4385202710982  0.6711728628594 1.0
C      1  0.6403669432343  0.4304344674567  0.3175700622396 1.0
C      1  0.3454384078061  0.3559822283661  0.4492350315178 1.0
C      1  0.3447324667141  0.3533366212977  0.5537424650587 1.0
C      1  0.3044150343897  0.6463122780211  0.4574123233271 1.0
C      1  0.6914795519529  0.5941213907420  0.4596731462152 1.0
C      1  0.3857970169330  0.4338418243431  0.5020192847801 1.0
C      1  0.2889222971377  0.5840912923180  0.5255190444293 1.0
C      1  0.3651407755885  0.7153389706493  0.4885747173852 1.0
C      1  0.2841483320758  0.4879498625777  0.5116884800255 1.0
C      1  0.5303166767806  0.5256100904753  0.5001061115170 1.0
C      1  0.5068340181884  0.6148199366085  0.4980854220435 1.0
C      1  0.5618522744325  0.3920394811175  0.5017243101508 1.0
C      1  0.7266654777800  0.3373943523408  0.4973091898503 1.0
C      1  0.6446536793334  0.2928096423683  0.4981006708755 1.0
C      1  0.6495466312853  0.6451129235196  0.5305172965542 1.0
C      1  0.7011837689486  0.4979409798590  0.4868396611106 1.0
C      1  0.4778919914573  0.4507274879407  0.4984925642325 1.0
C      1  0.7519346962560  0.4168840344183  0.4846508667668 1.0
C      1  0.5646386903531  0.6966267130359  0.5063780489923 1.0
C      1  0.6137928611465  0.4753843614704  0.5018358103276 1.0
C      1  0.4574995044160  0.2460866186419  0.4982126412350 1.0
END
