TITL C-25379-3091-35 -2.73 3375.00 -440.32078952 0 0 56 (C1) n - 1
REM
REM Run started: at 2021.01.04 13:17:56 in /gpfs/home/chem/mssmkc/CARBON/AIRSS/Generating-Clusters/Str-Search/Higher-Symm/C4-100
REM VASP from code version vasp.5.4.4.18Apr17-6-g9f103f2a35 (build Oct 11 2019 16:45:47) gamma-only
REM
REM
REM
REM
REM ./C.cell (6bd13a13d554368a30d355f37ece5b26)
REM AIRSS Version 0.9.1 bugfix July 2018 build 013d7b7c2542+ Fri, 06 Jul 2018 19:26:36 +0100
REM compiler GCC version 6.3.0
REM options -cpp -iprefix /gpfs/warwick/csc/orac/software/Core/GCCcore/6.3.0/bin/../lib/gcc/x86_64-pc-linux-gnu/6.3.0/ -mtune=generic -march=x86-64 -g -O0
REM seed -1197481686 28919988 1220307171 -80814514 318712787 1867661385 -1305848950 890026172 750795050 294998730 -1484526808 1638782912
REM
REM C.POTCAR (d86ddea03c3ceb6dc662c8ad6801f873)
REM 
CELL 1.54180   15.00000   15.00000   15.00000   90.00000   90.00000   90.00000
LATT -1
SFAC C  
C      1  0.4541709623185  0.7051162976664  0.4746237010273 1.0
C      1  0.2826031375057  0.5100328154336  0.4844884572212 1.0
C      1  0.4030104036586  0.2896221243021  0.4887824344270 1.0
C      1  0.6615959224637  0.3383984444689  0.4892311750622 1.0
C      1  0.7015552725540  0.5907131439092  0.4867440579921 1.0
C      1  0.5613204835609  0.6314650128001  0.3083634646593 1.0
C      1  0.3700912748014  0.5644622106781  0.3209434538313 1.0
C      1  0.3947797165988  0.3993707009731  0.3333743045950 1.0
C      1  0.5602594081973  0.3598250258279  0.3376797589610 1.0
C      1  0.6562110787099  0.4993792923692  0.3349049139930 1.0
C      1  0.7215176896585  0.5061593745382  0.5329012824118 1.0
C      1  0.5411678043760  0.6783218348989  0.5246222937696 1.0
C      1  0.3323913996368  0.5866054267588  0.5291342751543 1.0
C      1  0.3367649863863  0.3461184855076  0.5304071266364 1.0
C      1  0.5816261672790  0.2969508156289  0.5328622032307 1.0
C      1  0.2884592807762  0.4156603781021  0.4829331264376 1.0
C      1  0.4970676636777  0.2698609745625  0.4887267584775 1.0
C      1  0.7147718983205  0.4173334361429  0.4904079867696 1.0
C      1  0.6370601475394  0.6596788358141  0.4838732241086 1.0
C      1  0.3693894539343  0.6645305962094  0.4792218064399 1.0
C      1  0.3996300125364  0.6628402550322  0.3069214855411 1.0
C      1  0.3187883381199  0.4731656984635  0.3167939789070 1.0
C      1  0.4623077859241  0.3169597844090  0.3238429444246 1.0
C      1  0.6612428802774  0.3952547401702  0.3244977168951 1.0
C      1  0.6603624106568  0.6042805365749  0.3162067386392 1.0
C      1  0.5839314851944  0.5019214447907  0.3921346898551 1.0
C      1  0.5256452022918  0.5739037222232  0.3781855638387 1.0
C      1  0.4397012597201  0.5393805989310  0.3759119937624 1.0
C      1  0.4442697531499  0.4467028211528  0.3940331373768 1.0
C      1  0.5351058978593  0.4219609537049  0.4000402662291 1.0
C      1  0.5526585331742  0.3763606436887  0.6729395576156 1.0
C      1  0.6412321607949  0.5269585694587  0.6699166161029 1.0
C      1  0.5327116634890  0.6706562490278  0.7106838755358 1.0
C      1  0.3725530816899  0.5786118326549  0.6765263278508 1.0
C      1  0.3804901185724  0.3990879306220  0.7026565874189 1.0
C      1  0.2763291095190  0.4660513641821  0.4008765101324 1.0
C      1  0.4502853391296  0.2724615988490  0.4059866112832 1.0
C      1  0.6984801298202  0.3710977600056  0.4072881403596 1.0
C      1  0.6829371708718  0.6339411811008  0.4025741044617 1.0
C      1  0.3948504017227  0.7009705928321  0.3971454682955 1.0
C      1  0.5336898983134  0.4323207008763  0.7531366245468 1.0
C      1  0.5803316355657  0.5171675958220  0.7491223943991 1.0
C      1  0.5139110819650  0.5905343924482  0.7548251298757 1.0
C      1  0.4250819468162  0.5501367363132  0.7515637752445 1.0
C      1  0.4363518080470  0.4524822371746  0.7551227290569 1.0
C      1  0.4330689017145  0.4547266393368  0.5841424179699 1.0
C      1  0.5214805353311  0.4439094653981  0.6051204831243 1.0
C      1  0.5671687260205  0.5231843342215  0.6023026947338 1.0
C      1  0.5091864301217  0.5924030399264  0.5740109121029 1.0
C      1  0.4153760292626  0.5514160350536  0.5792262619119 1.0
C      1  0.3696166905104  0.3869962269882  0.6153909930637 1.0
C      1  0.5788639615040  0.3080232390381  0.6246123443793 1.0
C      1  0.7167791266870  0.5107852027174  0.6263948744146 1.0
C      1  0.5315797871115  0.6801333844203  0.6236625336289 1.0
C      1  0.3031654731592  0.6094463087541  0.6292870934354 1.0
C      1  0.4868359814031  0.6718561570447  0.2778493183814 1.0
END
