TITL C-25379-3091-67 -3.264 3375.00 -567.87826914 0 0 71 (C2) n - 1
REM
REM Run started: at 2021.01.04 19:46:35 in /gpfs/home/chem/mssmkc/CARBON/AIRSS/Generating-Clusters/Str-Search/Higher-Symm/C4-100
REM VASP from code version vasp.5.4.4.18Apr17-6-g9f103f2a35 (build Oct 11 2019 16:45:47) gamma-only
REM
REM
REM
REM
REM ./C.cell (6bd13a13d554368a30d355f37ece5b26)
REM AIRSS Version 0.9.1 bugfix July 2018 build 013d7b7c2542+ Fri, 06 Jul 2018 19:26:36 +0100
REM compiler GCC version 6.3.0
REM options -cpp -iprefix /gpfs/warwick/csc/orac/software/Core/GCCcore/6.3.0/bin/../lib/gcc/x86_64-pc-linux-gnu/6.3.0/ -mtune=generic -march=x86-64 -g -O0
REM seed 1724775479 -1230172180 765228425 1156416044 -1614735628 -576708487 1092548681 -516125804 -743133574 -62370511 -1665122153 89687914
REM
REM C.POTCAR (d86ddea03c3ceb6dc662c8ad6801f873)
REM 
CELL 1.54180   15.00000   15.00000   15.00000   90.00000   90.00000   90.00000
LATT -1
SFAC C  
C      1  0.5426188535253  0.7513024785742  0.6092978977311 1.0
C      1  0.4554471718804  0.7512336207370  0.3896932019436 1.0
C      1  0.4537628486052  0.2554597198212  0.6166564924994 1.0
C      1  0.5457455239172  0.2556891805625  0.3821764641295 1.0
C      1  0.3639845638417  0.4255291651378  0.7382469019019 1.0
C      1  0.6345876472128  0.4261329837377  0.2607737904567 1.0
C      1  0.6040960857102  0.5543351348619  0.7071776552048 1.0
C      1  0.3945448410394  0.5540419655984  0.2916638554983 1.0
C      1  0.5761978767698  0.7249303388178  0.6922655887263 1.0
C      1  0.4222548438414  0.7247382231977  0.3066048170510 1.0
C      1  0.4270220552608  0.2713795568427  0.7041710648001 1.0
C      1  0.5725019788922  0.2717568229574  0.2947271613898 1.0
C      1  0.4101613853224  0.6588456708150  0.6398902826387 1.0
C      1  0.5881462328384  0.6591204534381  0.3591149594589 1.0
C      1  0.5807791187562  0.3477936741613  0.6425481953199 1.0
C      1  0.4183581237926  0.3474547394576  0.3563534368850 1.0
C      1  0.7234779065755  0.4226467186171  0.5616198898816 1.0
C      1  0.2754874489026  0.4218742844880  0.4372695019055 1.0
C      1  0.2702734882097  0.5862608977233  0.5639666779649 1.0
C      1  0.7281413296896  0.5870791963112  0.4350313393077 1.0
C      1  0.5349994865061  0.6067810255576  0.5412799654226 1.0
C      1  0.4634395383288  0.6066973643508  0.4577129262200 1.0
C      1  0.4461539696624  0.4092720572649  0.5737792720959 1.0
C      1  0.5527156958939  0.4094715683870  0.4251640514167 1.0
C      1  0.5689434358272  0.3570264113073  0.2703177024180 1.0
C      1  0.4297236190301  0.3565926347325  0.7286503667962 1.0
C      1  0.4387837264634  0.6392185871271  0.2914556771083 1.0
C      1  0.5596341424430  0.6393542373817  0.7074659644434 1.0
C      1  0.3042967056968  0.3527940094208  0.5929902729244 1.0
C      1  0.6947790170591  0.3536327548370  0.4058622124816 1.0
C      1  0.6851249554444  0.6409219216911  0.5891037493538 1.0
C      1  0.3132950105615  0.6402931260574  0.4099028074174 1.0
C      1  0.3795878436258  0.7165664564942  0.5450134866861 1.0
C      1  0.6185473264563  0.7169776254970  0.4539841941838 1.0
C      1  0.6116942347534  0.2962923028650  0.5402613060571 1.0
C      1  0.3876504503996  0.2958620249574  0.4585392799257 1.0
C      1  0.5488600766254  0.2617380259845  0.6064617910071 1.0
C      1  0.4506201202845  0.2615023721113  0.3923619612511 1.0
C      1  0.4471278517246  0.7458067315796  0.6077102403821 1.0
C      1  0.5509478749742  0.7459780886554  0.3913338809332 1.0
C      1  0.2636234468171  0.5096335940715  0.4080944535161 1.0
C      1  0.7352202936434  0.5104201862861  0.5908322007120 1.0
C      1  0.7120394430149  0.4917174793335  0.4056204833924 1.0
C      1  0.2865469408205  0.4908712203251  0.5933454308521 1.0
C      1  0.6007102399871  0.6882054990662  0.5483538675827 1.0
C      1  0.3975013363167  0.6879095322094  0.4506146049927 1.0
C      1  0.3942973442124  0.3150643613837  0.5579936794779 1.0
C      1  0.6049658491036  0.3155151237833  0.4408480297883 1.0
C      1  0.3167981442306  0.5641766841550  0.3468178860798 1.0
C      1  0.6818616274897  0.5647282384604  0.6521267557670 1.0
C      1  0.6933245072459  0.4216662405003  0.3305163779384 1.0
C      1  0.3053960586712  0.4208285205100  0.6683751827580 1.0
C      1  0.6160945690905  0.4856554113150  0.4403393142620 1.0
C      1  0.3825175117187  0.4852163171873  0.5585730150901 1.0
C      1  0.4258910738355  0.5185930230601  0.4858207034032 1.0
C      1  0.5727594329827  0.5187737295373  0.5132173721145 1.0
C      1  0.2579283621943  0.5878101003328  0.4702701022787 1.0
C      1  0.7406023190049  0.5886515552648  0.5287014881326 1.0
C      1  0.7365056001134  0.4130147534267  0.4655184548091 1.0
C      1  0.2624463118241  0.4121149599428  0.5333546312970 1.0
C      1  0.3339516680357  0.3548147855043  0.4026994133428 1.0
C      1  0.6651451629123  0.3554567770309  0.5961332713400 1.0
C      1  0.6748828716750  0.6575479512419  0.3998987281146 1.0
C      1  0.3234440681977  0.6569188243122  0.5990065101380 1.0
C      1  0.4949258575588  0.4114502099202  0.3384172539680 1.0
C      1  0.5040221845757  0.4115515886790  0.6604043490665 1.0
C      1  0.5089471690620  0.5945887459951  0.3567771659602 1.0
C      1  0.4895257719304  0.5945692493879  0.6422441009965 1.0
C      1  0.5220316145975  0.5046493894459  0.6830592141738 1.0
C      1  0.4767088005495  0.5045989498865  0.3158168212878 1.0
C      1  0.4994093122444  0.4530736463269  0.4994920541479 1.0
END
