TITL C-252128-7050-7 -1.795 3375.00 -287.32046340 0 0 37 (C1) n - 1
REM
REM Run started: at 2020.11.29 13:45:47 in /rds/project/t2_vol4/rds-t2-cs072/BORA/CARBON/AIRSS/Generating-Clusters/Str-Search/Higher-Symm/C10-100
REM VASP from code version vasp.5.4.4.18Apr17-6-g9f103f2a35 (build Oct 11 2019 16:45:47) gamma-only
REM
REM
REM
REM
REM ./C.cell (f39ce9773e2efe3fa5bbdf770a4156b8)
REM AIRSS Version 0.9.1 bugfix July 2018 build 013d7b7c2542+ Fri, 06 Jul 2018 19:26:36 +0100
REM compiler GCC version 4.8.5 20150623 (Red Hat 4.8.5-39)
REM options -cpp -mtune=generic -march=x86-64 -g -O0
REM seed -1618195106 1555905312 473057867 321434650 -1355420758 -2080552542 1217698348 -352157999 1901058577 -1897197110 -2095748449 541369115
REM
REM C.POTCAR (d86ddea03c3ceb6dc662c8ad6801f873)
REM 
CELL 1.54180   15.00000   15.00000   15.00000   90.00000   90.00000   90.00000
LATT -1
SFAC C  
C      1  0.3610011895516  0.5258103610636  0.5097744878990 1.0
C      1  0.4729335000793  0.4223224633581  0.6466661769737 1.0
C      1  0.3606676498667  0.6817307497035  0.3980533896469 1.0
C      1  0.6013223523776  0.3536273363589  0.4834694780441 1.0
C      1  0.3120030993346  0.3984897983941  0.4301212953639 1.0
C      1  0.4045762339684  0.6808432869325  0.5434045014890 1.0
C      1  0.6374091692066  0.2704587672318  0.5224503941648 1.0
C      1  0.3821644002778  0.4497303940929  0.6659164593871 1.0
C      1  0.3469797565691  0.4024230710596  0.5880764033811 1.0
C      1  0.6809988337135  0.4907970216830  0.4153264127491 1.0
C      1  0.4395933793784  0.6970477588849  0.4493077183332 1.0
C      1  0.5517942676026  0.2625412099375  0.4919364703525 1.0
C      1  0.6458025452663  0.5597879019413  0.3508464303501 1.0
C      1  0.7043167687956  0.5018846976994  0.6450196839691 1.0
C      1  0.5491567461504  0.5245419419887  0.3168382497368 1.0
C      1  0.3746708501782  0.5435023557525  0.6870271315823 1.0
C      1  0.4589908924716  0.5806224622016  0.6720304531514 1.0
C      1  0.5268735751081  0.5339147304457  0.5514287018240 1.0
C      1  0.6258898461282  0.5016411174078  0.6718920750008 1.0
C      1  0.5419600764722  0.6270528843339  0.5357612787080 1.0
C      1  0.5231973244791  0.6543099577550  0.4443672619271 1.0
C      1  0.4712772189768  0.6481207416896  0.6016833985176 1.0
C      1  0.4481096583207  0.3929931365084  0.5534278234916 1.0
C      1  0.3738208160036  0.3811779129167  0.3763494513453 1.0
C      1  0.3034546703648  0.4442968366911  0.5106967158743 1.0
C      1  0.4663556698898  0.3787502899232  0.3893619218914 1.0
C      1  0.7453556120579  0.5010839883440  0.4820579211038 1.0
C      1  0.5316839178633  0.5048007770932  0.6501729817663 1.0
C      1  0.4505712488251  0.4904105634600  0.5144645114670 1.0
C      1  0.6325406174325  0.5183298569387  0.2632196717230 1.0
C      1  0.5354741578266  0.4364477487839  0.3635888115683 1.0
C      1  0.7461539575780  0.5006999772192  0.5651982632039 1.0
C      1  0.3360636190085  0.6194022006017  0.5091746134655 1.0
C      1  0.4942126234021  0.3388931830557  0.4803702776061 1.0
C      1  0.5621829023054  0.6046594157914  0.3717052096616 1.0
C      1  0.6162293731609  0.4215873996434  0.4176797993698 1.0
C      1  0.2842112800081  0.6552657031134  0.4311341739107 1.0
END
