TITL C-252128-7050-13 -2.52 3375.00 -419.22003634 0 0 50 (C1) n - 1
REM
REM Run started: at 2020.11.29 16:18:55 in /rds/project/t2_vol4/rds-t2-cs072/BORA/CARBON/AIRSS/Generating-Clusters/Str-Search/Higher-Symm/C10-100
REM VASP from code version vasp.5.4.4.18Apr17-6-g9f103f2a35 (build Oct 11 2019 16:45:47) gamma-only
REM
REM
REM
REM
REM ./C.cell (f39ce9773e2efe3fa5bbdf770a4156b8)
REM AIRSS Version 0.9.1 bugfix July 2018 build 013d7b7c2542+ Fri, 06 Jul 2018 19:26:36 +0100
REM compiler GCC version 4.8.5 20150623 (Red Hat 4.8.5-39)
REM options -cpp -mtune=generic -march=x86-64 -g -O0
REM seed 447588927 162708593 -1999937444 -117935024 -1476496800 1797770757 823487759 623878817 869182908 -2023331440 1747625827 452724113
REM
REM C.POTCAR (d86ddea03c3ceb6dc662c8ad6801f873)
REM 
CELL 1.54180   15.00000   15.00000   15.00000   90.00000   90.00000   90.00000
LATT -1
SFAC C  
C      1  0.5933314688249  0.3129537801094  0.5247384327955 1.0
C      1  0.6412027095608  0.6472697636827  0.3661439714874 1.0
C      1  0.5279016982774  0.3548707636097  0.3213198685873 1.0
C      1  0.4353257815385  0.6930579044643  0.4366479715281 1.0
C      1  0.4151759397380  0.3100595310135  0.5009141395614 1.0
C      1  0.3969549171613  0.6770471057466  0.5850601625332 1.0
C      1  0.4864271827229  0.3104682961908  0.6349936360803 1.0
C      1  0.5552055874549  0.6746130310591  0.5708613945683 1.0
C      1  0.3454268628088  0.5796612340593  0.3730419295141 1.0
C      1  0.2979806226038  0.4121445389616  0.5284156180222 1.0
C      1  0.3871358939584  0.5841394714690  0.7240955766679 1.0
C      1  0.5234686306160  0.4210879013188  0.7315732742776 1.0
C      1  0.6896455329168  0.5841404285158  0.5954922874634 1.0
C      1  0.7131379998066  0.4047429261142  0.4835165091698 1.0
C      1  0.6054346074212  0.5959180980005  0.2932938262138 1.0
C      1  0.4061438594414  0.4506563304991  0.3101615867711 1.0
C      1  0.3868200407551  0.3430556952799  0.4169041150463 1.0
C      1  0.3239607131984  0.6407338823434  0.5349317520037 1.0
C      1  0.4026654059951  0.3516187551213  0.6554154802204 1.0
C      1  0.5274967149663  0.6441738732396  0.6604227519838 1.0
C      1  0.6286524090558  0.3543871748943  0.6053703104492 1.0
C      1  0.6810827828928  0.6312015577114  0.4483565441738 1.0
C      1  0.6108728310437  0.3596250218775  0.3638745858789 1.0
C      1  0.4710167216007  0.6737504010532  0.3506116735837 1.0
C      1  0.5586416272882  0.5046861687477  0.7468828521248 1.0
C      1  0.7050665155312  0.5033798451837  0.6090336546974 1.0
C      1  0.7533642289912  0.4750647890060  0.4370107008446 1.0
C      1  0.5607876186540  0.5129591981366  0.2766021396742 1.0
C      1  0.4636610023622  0.5218666035243  0.2809390992745 1.0
C      1  0.3353230669029  0.4832623853415  0.3705518606467 1.0
C      1  0.2613850621245  0.4907819297651  0.5607337702626 1.0
C      1  0.3829176317165  0.5011313673005  0.7323555483899 1.0
C      1  0.3551019364450  0.3506528202797  0.5708845772418 1.0
C      1  0.4289199429334  0.6449858301409  0.6672793269887 1.0
C      1  0.5602567815192  0.3540747436769  0.6746847373260 1.0
C      1  0.6426275285503  0.6439039729820  0.5396258176510 1.0
C      1  0.6467969849329  0.3455167814118  0.4497261653544 1.0
C      1  0.5607844455301  0.6713496910830  0.3256550754823 1.0
C      1  0.4366154210932  0.3655150358333  0.3377576982209 1.0
C      1  0.3502398083887  0.6448178594742  0.4427547967600 1.0
C      1  0.6974744488798  0.4156828384341  0.5812908318252 1.0
C      1  0.7383448763065  0.5565729412994  0.4429592549029 1.0
C      1  0.5878503152089  0.4233620193625  0.2970497977611 1.0
C      1  0.4209151932290  0.6012872377642  0.3148595788269 1.0
C      1  0.3209740395911  0.4120171950258  0.4320955081586 1.0
C      1  0.2657577636549  0.5734651065945  0.5607691157564 1.0
C      1  0.4212277949754  0.4181532598664  0.7214242670178 1.0
C      1  0.5649542235706  0.5830376976401  0.7184045293191 1.0
C      1  0.4718355695318  0.6989380139914  0.5252453533624 1.0
C      1  0.5001329577284  0.2921572017995  0.5408262435489 1.0
END
