TITL C-25327-2823-18 -6.078 3375.00 -972.38658386 0 0 120 (C1) n - 1
REM
REM Run started: at 2020.12.31 20:57:24 in /gpfs/home/chem/mssmkc/CARBON/AIRSS/Generating-Clusters/Str-Search/Higher-Symm/C100-200
REM VASP from code version vasp.5.4.4.18Apr17-6-g9f103f2a35 (build Oct 11 2019 16:45:47) gamma-only
REM
REM
REM
REM
REM ./C.cell (533062f00bc710175b3da973d35f2034)
REM AIRSS Version 0.9.1 bugfix July 2018 build 013d7b7c2542+ Fri, 06 Jul 2018 19:26:36 +0100
REM compiler GCC version 6.3.0
REM options -cpp -iprefix /gpfs/warwick/csc/orac/software/Core/GCCcore/6.3.0/bin/../lib/gcc/x86_64-pc-linux-gnu/6.3.0/ -mtune=generic -march=x86-64 -g -O0
REM seed -957276181 -286215131 -1977241194 -653557292 -833347188 539874694 -143673562 -1576794303 864088677 -404873893 -894189427 1006997632
REM
REM C.POTCAR (d86ddea03c3ceb6dc662c8ad6801f873)
REM 
CELL 1.54180   15.00000   15.00000   15.00000   90.00000   90.00000   90.00000
LATT -1
SFAC C  
C      1  0.3671899789195  0.6112302730434  0.5005388023505 1.0
C      1  0.5617804264342  0.3162380913628  0.7851461329099 1.0
C      1  0.2742627703083  0.7138696898795  0.6261230472839 1.0
C      1  0.4727327493896  0.3020956980774  0.8058845307699 1.0
C      1  0.4680267821612  0.6282918469391  0.2310816286211 1.0
C      1  0.2749982638632  0.6451651096667  0.3699403468706 1.0
C      1  0.6184968275887  0.5929039984194  0.2137022650335 1.0
C      1  0.5425133417198  0.3181443387296  0.2474174668743 1.0
C      1  0.4159271454407  0.2746484472849  0.7356221976078 1.0
C      1  0.6098646820646  0.8274455548958  0.5726185643498 1.0
C      1  0.3376155608462  0.7231157271865  0.6944841720215 1.0
C      1  0.5675741622149  0.4164744947916  0.2120013128127 1.0
C      1  0.3545758886491  0.4940883924914  0.4337893668234 1.0
C      1  0.5448653110994  0.4770751040128  0.1416076047097 1.0
C      1  0.7119662594455  0.6947735316437  0.6081275783384 1.0
C      1  0.4767117048366  0.3231846558691  0.4910650457745 1.0
C      1  0.6254710195273  0.5327118312687  0.4461250576900 1.0
C      1  0.4733797623289  0.6117448024553  0.6708960369242 1.0
C      1  0.4279190594288  0.1576395394770  0.5600674255975 1.0
C      1  0.5675184222790  0.4187979070845  0.6729479503136 1.0
C      1  0.6541494398181  0.5897346350827  0.2953681955687 1.0
C      1  0.6838829222524  0.2322199287556  0.2901258954192 1.0
C      1  0.7904419690108  0.5493292834951  0.4337009393040 1.0
C      1  0.5092491346964  0.1905046896522  0.5960051920780 1.0
C      1  0.2338438331806  0.6246636164105  0.6281177330669 1.0
C      1  0.4146859918470  0.7383447592140  0.3453798505745 1.0
C      1  0.3144518309541  0.5483604160988  0.2493953727410 1.0
C      1  0.6408778337381  0.2737211203191  0.6181203141056 1.0
C      1  0.5954910003024  0.6850363824672  0.7842715562396 1.0
C      1  0.7655895717320  0.2618592872774  0.5097319432313 1.0
C      1  0.2759554419461  0.6525358361030  0.4741454285435 1.0
C      1  0.2237898576962  0.5919909571172  0.5420483305678 1.0
C      1  0.7891167465508  0.7218993636455  0.4577343630311 1.0
C      1  0.4120344196981  0.2788947478992  0.3533068633185 1.0
C      1  0.3741827401481  0.6237776005751  0.2444649107386 1.0
C      1  0.4776679103824  0.5292013434950  0.5151830869964 1.0
C      1  0.5983066226053  0.8086796353269  0.4019104500669 1.0
C      1  0.4999499733141  0.6933679647602  0.3113910488623 1.0
C      1  0.1705972462534  0.4281029718976  0.6117038369123 1.0
C      1  0.8435532106670  0.4236571214007  0.5306771129237 1.0
C      1  0.6243429545641  0.5098421656015  0.8118848811425 1.0
C      1  0.1567896546424  0.3805407660262  0.4672357476845 1.0
C      1  0.7220475713676  0.2134176834922  0.4427856578155 1.0
C      1  0.2606463201218  0.5304040412783  0.6682336258746 1.0
C      1  0.6267078764958  0.6056928572694  0.8337295403651 1.0
C      1  0.5737472930473  0.3152180022926  0.6824041077874 1.0
C      1  0.7464369296144  0.6407486605199  0.4214535594681 1.0
C      1  0.7391706776125  0.7995712088075  0.4821778687465 1.0
C      1  0.3837333382802  0.3852926139908  0.2403621668469 1.0
C      1  0.7257915214838  0.2967449713132  0.5890616483334 1.0
C      1  0.4174403270467  0.7722325485466  0.4316581946356 1.0
C      1  0.2134971743320  0.3983978045740  0.4005647616696 1.0
C      1  0.7125869760373  0.5716703051133  0.4922338774617 1.0
C      1  0.8073913703466  0.5541087922244  0.6300345297283 1.0
C      1  0.8445615731215  0.4858589105899  0.6018788158768 1.0
C      1  0.4327831631948  0.5686507568854  0.4284610674101 1.0
C      1  0.2948796081909  0.3751539882419  0.2642130069100 1.0
C      1  0.2109139552225  0.4406949159964  0.7019958849164 1.0
C      1  0.7383763506555  0.2176609013547  0.3513107825752 1.0
C      1  0.4737755092898  0.7360628047216  0.5048693467424 1.0
C      1  0.6410474059630  0.7569614496675  0.6367102748694 1.0
C      1  0.4105265966953  0.1782301904249  0.4699596402817 1.0
C      1  0.2896544662846  0.7427056146806  0.5320197322496 1.0
C      1  0.3223661025955  0.2192759347723  0.4629552414806 1.0
C      1  0.8015590030213  0.3379741785440  0.5454943518565 1.0
C      1  0.2633549152191  0.3735879190777  0.7329658121982 1.0
C      1  0.5957442148207  0.7404934457128  0.7160773537367 1.0
C      1  0.2620178226471  0.5598298001402  0.3306991029682 1.0
C      1  0.3428750290037  0.3375539741533  0.7150769693902 1.0
C      1  0.3287153107164  0.4584882509877  0.2292231508069 1.0
C      1  0.5650393041931  0.2204665167191  0.3906627589621 1.0
C      1  0.5021191808202  0.6077871057089  0.5725225602815 1.0
C      1  0.5855735955938  0.6228482770436  0.4291702778002 1.0
C      1  0.3426659668420  0.6867250071311  0.3136049244661 1.0
C      1  0.5790336222532  0.4488021026259  0.3042522365324 1.0
C      1  0.5225456339820  0.3918561238460  0.4501059771420 1.0
C      1  0.3875636631376  0.3969251152032  0.6439533456720 1.0
C      1  0.3307972358057  0.4751773440695  0.6061943645342 1.0
C      1  0.5379196209720  0.6349015819334  0.8457839630411 1.0
C      1  0.4846372525049  0.5567730705816  0.8237517013736 1.0
C      1  0.6012853320082  0.4635945046382  0.5905027289898 1.0
C      1  0.4231488622601  0.6670377183335  0.5587469525549 1.0
C      1  0.4115777962007  0.6831918715101  0.6587609494424 1.0
C      1  0.5004313564491  0.3967562466513  0.8054185430160 1.0
C      1  0.4721133852722  0.2419710988910  0.4222110151004 1.0
C      1  0.3792091720443  0.5105306385217  0.5303511712693 1.0
C      1  0.5609179437075  0.4713349744030  0.5000739311348 1.0
C      1  0.4652549295765  0.5397871589287  0.7344858453777 1.0
C      1  0.3580524762397  0.8032379340576  0.5052855217997 1.0
C      1  0.8346644688279  0.4765828515587  0.4546514863988 1.0
C      1  0.2704246658506  0.4835723977658  0.3947047540930 1.0
C      1  0.5938686222027  0.2104727960113  0.5584437112571 1.0
C      1  0.4738363292020  0.4420989236365  0.7098818934545 1.0
C      1  0.5228318208390  0.8582144972738  0.5844687469048 1.0
C      1  0.3637768594256  0.2344352478849  0.5499203415476 1.0
C      1  0.5529565961497  0.6726696507088  0.5101523193295 1.0
C      1  0.4822797474228  0.2693093630744  0.6543175026061 1.0
C      1  0.1274667668253  0.3802129839010  0.5477390751108 1.0
C      1  0.5399489662177  0.4658445683075  0.0456152424677 1.0
C      1  0.2332986949792  0.4956118824382  0.5769238664978 1.0
C      1  0.6561524345728  0.5219256672294  0.6366188118861 1.0
C      1  0.5180272504472  0.3987665647051  0.3559845115665 1.0
C      1  0.6348681626188  0.5091744571114  0.3451810780090 1.0
C      1  0.4553687583272  0.3437764568381  0.2945593603069 1.0
C      1  0.4266449292344  0.3185929668244  0.5798383346276 1.0
C      1  0.5338867811010  0.4741176778530  0.8634218875848 1.0
C      1  0.5375976382957  0.4673052085624  0.9628338400309 1.0
C      1  0.6486637365450  0.8283525610639  0.4794685528177 1.0
C      1  0.7666837625938  0.7387234020246  0.5487364909558 1.0
C      1  0.7196921738946  0.5915312190366  0.5981445689461 1.0
C      1  0.6584820418007  0.6603273530459  0.3646788529806 1.0
C      1  0.5011523028508  0.6182657816625  0.3798383338704 1.0
C      1  0.2594362706769  0.3363378587006  0.3412733254570 1.0
C      1  0.5949235676110  0.7423377330884  0.3416083627465 1.0
C      1  0.6333056878503  0.4824119617366  0.7242799090107 1.0
C      1  0.5354689928810  0.5733623281360  0.1837739031247 1.0
C      1  0.4473503159074  0.8255938357430  0.5544368072475 1.0
C      1  0.5934173681104  0.2537407571017  0.2994888272936 1.0
C      1  0.6259177981322  0.2025055877462  0.4616682528941 1.0
C      1  0.3230316317701  0.2755346158584  0.3818091206904 1.0
END
