TITL C-25327-2823-35 -8.911 3375.00 -1532.81577903 0 0 185 (C2) n - 1
REM
REM Run started: at 2021.01.01 11:27:08 in /gpfs/home/chem/mssmkc/CARBON/AIRSS/Generating-Clusters/Str-Search/Higher-Symm/C100-200
REM VASP from code version vasp.5.4.4.18Apr17-6-g9f103f2a35 (build Oct 11 2019 16:45:47) gamma-only
REM
REM
REM
REM
REM ./C.cell (533062f00bc710175b3da973d35f2034)
REM AIRSS Version 0.9.1 bugfix July 2018 build 013d7b7c2542+ Fri, 06 Jul 2018 19:26:36 +0100
REM compiler GCC version 6.3.0
REM options -cpp -iprefix /gpfs/warwick/csc/orac/software/Core/GCCcore/6.3.0/bin/../lib/gcc/x86_64-pc-linux-gnu/6.3.0/ -mtune=generic -march=x86-64 -g -O0
REM seed -1916677181 1789849213 -1710906277 -1519601067 1153048542 -897820399 156253568 -1571280180 1199911211 1276445224 -230958144 -1765966683
REM
REM C.POTCAR (d86ddea03c3ceb6dc662c8ad6801f873)
REM 
CELL 1.54180   15.00000   15.00000   15.00000   90.00000   90.00000   90.00000
LATT -1
SFAC C  
C      1  0.5500040549745  0.6861391537633  0.4801162088796 1.0
C      1  0.4497720761907  0.3136458352128  0.4795138132384 1.0
C      1  0.4508945644570  0.6864452515347  0.4811548690130 1.0
C      1  0.5488771557406  0.3133007486387  0.4806470709815 1.0
C      1  0.2696840615702  0.6187629152931  0.7642708191027 1.0
C      1  0.7298481652493  0.3804250735578  0.7641561784619 1.0
C      1  0.7303445105589  0.6198067082104  0.7648965328282 1.0
C      1  0.2692526694501  0.3792455502861  0.7644867735087 1.0
C      1  0.5522335259162  0.5522667918913  0.3349083104779 1.0
C      1  0.4476966484642  0.4478173570901  0.3348140380533 1.0
C      1  0.4477842464058  0.5523239506129  0.3348237066751 1.0
C      1  0.5521328360222  0.4477574479392  0.3348075011522 1.0
C      1  0.5866178335636  0.3164355484065  0.7485563998097 1.0
C      1  0.4129001737192  0.6826590899349  0.7488117508822 1.0
C      1  0.4183457705642  0.3190688567406  0.7665537879954 1.0
C      1  0.5812194145725  0.6799450571829  0.7669652310975 1.0
C      1  0.6359834051996  0.3104760124515  0.4529062249748 1.0
C      1  0.3638240993593  0.6894418568805  0.4533590207014 1.0
C      1  0.3624088389389  0.3107442005046  0.4522902617170 1.0
C      1  0.6373204384983  0.6892022605128  0.4527422661484 1.0
C      1  0.8791940194140  0.4530837838068  0.5860430447349 1.0
C      1  0.1205267584878  0.5469000608307  0.5859358531234 1.0
C      1  0.1200501533073  0.4537777105877  0.5857436443010 1.0
C      1  0.8796269164036  0.5461670462782  0.5859111284514 1.0
C      1  0.4503627173553  0.5898787540856  0.5218807786913 1.0
C      1  0.5493636353416  0.4097087021923  0.5216766336706 1.0
C      1  0.5504749454155  0.5904916037371  0.5216363399077 1.0
C      1  0.4492292207151  0.4091446553982  0.5213788167533 1.0
C      1  0.5944588376570  0.4498982678643  0.4323946682609 1.0
C      1  0.4053356244087  0.5499763420994  0.4324217940020 1.0
C      1  0.4047574029374  0.4502438657705  0.4322852792256 1.0
C      1  0.5950494695272  0.5496427107592  0.4324147516178 1.0
C      1  0.2222831552296  0.1776570315088  0.4959020924968 1.0
C      1  0.7774683282279  0.8223164374959  0.4960979162075 1.0
C      1  0.7781969104305  0.1785432375459  0.4962817667025 1.0
C      1  0.2217794997024  0.8215228642171  0.4962643500950 1.0
C      1  0.4512145493031  0.1046420124653  0.5317870385590 1.0
C      1  0.5486824033139  0.8948267118106  0.5319115126574 1.0
C      1  0.5491887157033  0.1042264688990  0.5316821806095 1.0
C      1  0.4507643115511  0.8951922195185  0.5317236623576 1.0
C      1  0.6939088263922  0.5948137769940  0.2229697438579 1.0
C      1  0.3061702438891  0.4052849779554  0.2228921769268 1.0
C      1  0.3059346400776  0.5945459377343  0.2227455890997 1.0
C      1  0.6940939487800  0.4055642419753  0.2228849263310 1.0
C      1  0.1554040453344  0.2882784446507  0.6348201908061 1.0
C      1  0.8441712472682  0.7113763078655  0.6350568454326 1.0
C      1  0.8442652993471  0.2861711942907  0.6354639070995 1.0
C      1  0.1554604576911  0.7137547964280  0.6353554220565 1.0
C      1  0.5912653706437  0.2326436707227  0.2619403360722 1.0
C      1  0.4087757157808  0.7674356494297  0.2618096550452 1.0
C      1  0.4092917394425  0.2327522247476  0.2621819629166 1.0
C      1  0.5907615660758  0.7673131168077  0.2622114738260 1.0
C      1  0.4476101400334  0.3563155679006  0.8517739585889 1.0
C      1  0.5518669957321  0.6430434231097  0.8523002586578 1.0
C      1  0.4729744643613  0.4258557659894  0.8915520094972 1.0
C      1  0.5258689822639  0.5736127045404  0.8918586840707 1.0
C      1  0.3977386548364  0.4061496116806  0.6098811921624 1.0
C      1  0.6018936751136  0.5931880262148  0.6101945374514 1.0
C      1  0.6007075978476  0.4107581631201  0.6093711785604 1.0
C      1  0.3989148668001  0.5885573502275  0.6095786977971 1.0
C      1  0.4552569989170  0.2299612889529  0.7411256629051 1.0
C      1  0.5443634023987  0.7689709508718  0.7412296511293 1.0
C      1  0.5458723676780  0.2297563755431  0.7390484952996 1.0
C      1  0.4537990734957  0.7692341425432  0.7391157885541 1.0
C      1  0.8161981820419  0.7844742890410  0.5771653213708 1.0
C      1  0.1832605650284  0.2152004587259  0.5769307577959 1.0
C      1  0.1820399566726  0.7859847961772  0.5774113625295 1.0
C      1  0.8179027818101  0.2139730376329  0.5774601812914 1.0
C      1  0.3146604875356  0.7599659508750  0.2740941140285 1.0
C      1  0.6853942677721  0.2401522818244  0.2741800073346 1.0
C      1  0.6848759082639  0.7603568507416  0.2741235224238 1.0
C      1  0.3151678861149  0.2398439950265  0.2741404169125 1.0
C      1  0.4540797841466  0.5494253097298  0.1726146553466 1.0
C      1  0.5460350142307  0.4505623863133  0.1726590661710 1.0
C      1  0.5456545526702  0.5488924098076  0.1733913148648 1.0
C      1  0.4544762737204  0.4510816195634  0.1733441617682 1.0
C      1  0.2629592677712  0.5567658865991  0.5123485934262 1.0
C      1  0.7368071187109  0.4430326356255  0.5123205112720 1.0
C      1  0.7374096612111  0.5569543177548  0.5125335280769 1.0
C      1  0.2622819996917  0.4428001650514  0.5123248384129 1.0
C      1  0.5913096416288  0.4014017122614  0.2442576821854 1.0
C      1  0.4087459029291  0.5986787548890  0.2441383662204 1.0
C      1  0.4089274193565  0.4014454767621  0.2443467420881 1.0
C      1  0.5911232687945  0.5985993082118  0.2444134723643 1.0
C      1  0.6238773873268  0.8870294474165  0.4722996986150 1.0
C      1  0.3759916198620  0.1129663647482  0.4722614332151 1.0
C      1  0.3758863643675  0.8859499153036  0.4725741432921 1.0
C      1  0.6241109114345  0.1138917257672  0.4726381770842 1.0
C      1  0.2067947861585  0.6421235746686  0.3109786196017 1.0
C      1  0.7933131313192  0.3579909276138  0.3110299064432 1.0
C      1  0.7932217582809  0.6426466252929  0.3107807840421 1.0
C      1  0.2068138469419  0.3574982294314  0.3107375072711 1.0
C      1  0.6783390604442  0.6999300781597  0.7596428903560 1.0
C      1  0.3212075505842  0.2990952757157  0.7592120728498 1.0
C      1  0.3205927722923  0.6999120301683  0.7559766532393 1.0
C      1  0.6789291963325  0.2993135836904  0.7557904495720 1.0
C      1  0.3067291033393  0.2241107255252  0.7037592995515 1.0
C      1  0.6927487581819  0.7748294171858  0.7040168619917 1.0
C      1  0.6962505875081  0.2183875539111  0.7056132806403 1.0
C      1  0.3035133236028  0.7809201272812  0.7057348887166 1.0
C      1  0.3936237279260  0.8250087788581  0.6895000424269 1.0
C      1  0.6061994882941  0.1740627331821  0.6895085745441 1.0
C      1  0.6037049255850  0.8197444489455  0.6877025832912 1.0
C      1  0.3959082449876  0.1791297847575  0.6876015181204 1.0
C      1  0.7779258187172  0.7836568324524  0.4070939785267 1.0
C      1  0.2219140881811  0.2164891717167  0.4070085616376 1.0
C      1  0.2208488643205  0.7833213622003  0.4067143621961 1.0
C      1  0.7792453475796  0.2167940405132  0.4067825455125 1.0
C      1  0.5489083836836  0.6228428140441  0.6832394289832 1.0
C      1  0.4506732492088  0.3761619603242  0.6828076832469 1.0
C      1  0.4516546840668  0.6207975221496  0.6835846213653 1.0
C      1  0.5479239467612  0.3782666343316  0.6832603514529 1.0
C      1  0.1489923702304  0.6184706687871  0.6471742117596 1.0
C      1  0.8506087813005  0.3815028536372  0.6472320436047 1.0
C      1  0.8536307112835  0.6169922023063  0.6489259042476 1.0
C      1  0.1459704271947  0.3827302222850  0.6486146971932 1.0
C      1  0.6754469510080  0.3942724514887  0.4487820257155 1.0
C      1  0.3244338455581  0.6056170321798  0.4490245361471 1.0
C      1  0.3235948098435  0.3947794193503  0.4483694781967 1.0
C      1  0.6760857825645  0.6051518069036  0.4487375812139 1.0
C      1  0.1390040195047  0.3516339447403  0.4518307931952 1.0
C      1  0.8605521273340  0.6484563712483  0.4520583242190 1.0
C      1  0.8616688507547  0.3514540365625  0.4523165099908 1.0
C      1  0.1384221323753  0.6486635719415  0.4522804852861 1.0
C      1  0.7642359220521  0.5471110324131  0.2897271695742 1.0
C      1  0.2358862924091  0.4530243438245  0.2897013394021 1.0
C      1  0.2357327348783  0.5466944239264  0.2896064076824 1.0
C      1  0.7643489402515  0.4534429246831  0.2897087384568 1.0
C      1  0.6969835365267  0.4183551614464  0.6042616924497 1.0
C      1  0.3025950627350  0.5812155908976  0.6043857654192 1.0
C      1  0.3007506842629  0.4157579585796  0.6045528845773 1.0
C      1  0.6989121086312  0.5837286172516  0.6048666577994 1.0
C      1  0.7041495545354  0.4584961681270  0.1395831253014 1.0
C      1  0.2958321416957  0.5415720057947  0.1394533451143 1.0
C      1  0.2961496014473  0.4579309173695  0.1393321635818 1.0
C      1  0.7038587263243  0.5421430346585  0.1394197331195 1.0
C      1  0.2386484011338  0.3993781495945  0.6730268509286 1.0
C      1  0.7609961695470  0.5999469714852  0.6733803185407 1.0
C      1  0.7590253477279  0.4004639664595  0.6725131181983 1.0
C      1  0.2404906350300  0.5991320081432  0.6725731426158 1.0
C      1  0.3765066760483  0.8576157097436  0.3808092827916 1.0
C      1  0.6234801334873  0.1425124744320  0.3809297912706 1.0
C      1  0.6228619508316  0.8587394881518  0.3805375762983 1.0
C      1  0.3771114518172  0.1414211762813  0.3805617613926 1.0
C      1  0.4488451832024  0.8709316634830  0.6271688722838 1.0
C      1  0.5509697723446  0.1280629209301  0.6272287574937 1.0
C      1  0.5504202945646  0.8697019906604  0.6265546738165 1.0
C      1  0.4493644649343  0.1292199156947  0.6265191525179 1.0
C      1  0.7063011082679  0.1887048179550  0.3518362051231 1.0
C      1  0.2937056750179  0.8115091370278  0.3516879884327 1.0
C      1  0.2944141962805  0.1880699610915  0.3515547370720 1.0
C      1  0.7056314238565  0.8122529070901  0.3514986378504 1.0
C      1  0.4539006885185  0.3110397088240  0.2394913248725 1.0
C      1  0.5461580255164  0.6890065569761  0.2394257322437 1.0
C      1  0.5465443991454  0.3110123486380  0.2394438099845 1.0
C      1  0.4535324819630  0.6890701333588  0.2392946298991 1.0
C      1  0.5492134664711  0.1677395342595  0.3215478213425 1.0
C      1  0.4508043420633  0.8323395153109  0.3214151297940 1.0
C      1  0.4514038088049  0.1675988687128  0.3216264596564 1.0
C      1  0.5485782728306  0.8324635597181  0.3215930683056 1.0
C      1  0.1771143579171  0.3036616695472  0.3859759556121 1.0
C      1  0.8227411673480  0.6964831744916  0.3860925725682 1.0
C      1  0.8232570284575  0.3040084376436  0.3860475476709 1.0
C      1  0.1769144816865  0.6960704835696  0.3860229545256 1.0
C      1  0.8375883147988  0.4168797345166  0.5046529262136 1.0
C      1  0.1622305813911  0.5830938439235  0.5045756139906 1.0
C      1  0.1613055753423  0.4176229100384  0.5041664078116 1.0
C      1  0.8383564390494  0.5824192051925  0.5043728362965 1.0
C      1  0.7056520163797  0.8773663873130  0.5182883289939 1.0
C      1  0.2942193708956  0.1228174826638  0.5182108723099 1.0
C      1  0.2939357001602  0.8762622480027  0.5182285105562 1.0
C      1  0.7060418669195  0.1237915020534  0.5182324719064 1.0
C      1  0.7237008820773  0.5423368175392  0.8105452596066 1.0
C      1  0.2760946926703  0.4566720869484  0.8101517268892 1.0
C      1  0.2764350134296  0.5419120135901  0.8105893983801 1.0
C      1  0.7233383380613  0.4570970182001  0.8107505137322 1.0
C      1  0.7317987999755  0.6823464530417  0.2525724630520 1.0
C      1  0.2682302353977  0.3177975239137  0.2525181230356 1.0
C      1  0.2678773922558  0.6819749245319  0.2524085841312 1.0
C      1  0.7321640825017  0.3181541611351  0.2525315735486 1.0
C      1  0.7800381233338  0.2192872522266  0.6620870847081 1.0
C      1  0.2197889614803  0.7804441802083  0.6621341435383 1.0
C      1  0.2215780392534  0.2232292507222  0.6601172091070 1.0
C      1  0.7777648257433  0.7760869386875  0.6602649753751 1.0
C      1  0.4994340779306  0.4996738640941  0.9323912945307 1.0
END
