TITL C-25379-3091-21 -2.73 3375.00 -465.10211807 0 0 56 (C1) n - 1
REM
REM Run started: at 2021.01.04 11:30:03 in /gpfs/home/chem/mssmkc/CARBON/AIRSS/Generating-Clusters/Str-Search/Higher-Symm/C4-100
REM VASP from code version vasp.5.4.4.18Apr17-6-g9f103f2a35 (build Oct 11 2019 16:45:47) gamma-only
REM
REM
REM
REM
REM ./C.cell (6bd13a13d554368a30d355f37ece5b26)
REM AIRSS Version 0.9.1 bugfix July 2018 build 013d7b7c2542+ Fri, 06 Jul 2018 19:26:36 +0100
REM compiler GCC version 6.3.0
REM options -cpp -iprefix /gpfs/warwick/csc/orac/software/Core/GCCcore/6.3.0/bin/../lib/gcc/x86_64-pc-linux-gnu/6.3.0/ -mtune=generic -march=x86-64 -g -O0
REM seed 680864216 -1474462477 554863316 903551129 309541876 1044574252 -956203327 -431261912 2141519365 2134846238 1545402368 850930126
REM
REM C.POTCAR (d86ddea03c3ceb6dc662c8ad6801f873)
REM 
CELL 1.54180   15.00000   15.00000   15.00000   90.00000   90.00000   90.00000
LATT -1
SFAC C  
C      1  0.7131939172202  0.5359322956332  0.5962071666357 1.0
C      1  0.5844840729280  0.6848675111254  0.6267711632900 1.0
C      1  0.4883127826323  0.6872126530863  0.6180967470751 1.0
C      1  0.3218185188652  0.6066566488802  0.6187344680993 1.0
C      1  0.2799723158226  0.5163426672612  0.6242283534241 1.0
C      1  0.3589532728678  0.3322586598262  0.6231535618584 1.0
C      1  0.4457753726488  0.2903797192943  0.6361583421444 1.0
C      1  0.6278299695424  0.3116759138685  0.6749962073447 1.0
C      1  0.6996320304055  0.3742387041398  0.6815783671494 1.0
C      1  0.3365578981578  0.3372262578006  0.5296456489893 1.0
C      1  0.4811536411851  0.2693130309394  0.5523971055239 1.0
C      1  0.6423512416440  0.3001073797782  0.5790009898545 1.0
C      1  0.7320337378337  0.4511777467783  0.5477333780355 1.0
C      1  0.7121454176117  0.5874849228292  0.5113259840458 1.0
C      1  0.6179525501130  0.7209388799098  0.5435321255772 1.0
C      1  0.4565605530100  0.7324038928156  0.5447690710946 1.0
C      1  0.3245550684825  0.6353666547069  0.5257901113400 1.0
C      1  0.2589134008052  0.4887852062282  0.5384454563706 1.0
C      1  0.6350670654842  0.5161138039577  0.3204316966039 1.0
C      1  0.6061617640810  0.6089453981618  0.3275639028064 1.0
C      1  0.5191540503868  0.5806593462631  0.2936559362720 1.0
C      1  0.4355972888004  0.6032646011733  0.3359918802757 1.0
C      1  0.3648914373230  0.5394555434660  0.3357136757756 1.0
C      1  0.3673911053848  0.4390619884404  0.3379679744285 1.0
C      1  0.4409732717899  0.3820307009629  0.3349483520594 1.0
C      1  0.5172860203569  0.4055666169087  0.2850993040466 1.0
C      1  0.5507703171458  0.4888289852818  0.2767788790113 1.0
C      1  0.5564360668929  0.3295423475877  0.4331063471001 1.0
C      1  0.5868774686937  0.4231748354863  0.4395284684577 1.0
C      1  0.6628508157608  0.4698462975364  0.3963853425241 1.0
C      1  0.6142568167593  0.6695627918382  0.3966298688337 1.0
C      1  0.5311717064287  0.7176338917140  0.4143237398998 1.0
C      1  0.4424119129656  0.6765098014296  0.4008815930255 1.0
C      1  0.2889736718386  0.5351464524159  0.3946361802507 1.0
C      1  0.2934661155586  0.4370213812307  0.3993923185727 1.0
C      1  0.4622230331576  0.3239965954134  0.4089509546762 1.0
C      1  0.7192536985801  0.5009265130893  0.4653342219497 1.0
C      1  0.6656247605174  0.6650169331147  0.4816129308751 1.0
C      1  0.5386993226674  0.7571873880932  0.4988182013172 1.0
C      1  0.3938081473197  0.6880966770963  0.4850542912953 1.0
C      1  0.2745637192252  0.5675395807242  0.4801725390223 1.0
C      1  0.2850005673830  0.4075687771545  0.4891809528311 1.0
C      1  0.4139580403496  0.2959430816497  0.4861424892646 1.0
C      1  0.5713609438743  0.2860332394149  0.5199188646521 1.0
C      1  0.7179320316294  0.3682676339225  0.5857172319232 1.0
C      1  0.4722847789544  0.3593300283765  0.7013538814807 1.0
C      1  0.5626915743141  0.3771483904342  0.7133127529656 1.0
C      1  0.6381039249715  0.4445304185284  0.7103904638641 1.0
C      1  0.6499802708283  0.5307376078658  0.6699065516742 1.0
C      1  0.5831835641937  0.5990779910346  0.6664007699237 1.0
C      1  0.4829350228492  0.5873623890219  0.6371658739107 1.0
C      1  0.3916788347491  0.5697673572638  0.6728198695356 1.0
C      1  0.3472610523662  0.4850566438538  0.6879966773739 1.0
C      1  0.3823641409598  0.4001058211372  0.6886973457656 1.0
C      1  0.5389537139899  0.4797485378903  0.5002996269375 1.0
C      1  0.4997553996934  0.5310783661645  0.5531031009654 1.0
END
