TITL C-250796-8668-3 -5.918 3375.00 -997.32611331 0 0 123 (C1) n - 1
REM
REM Run started: at 2020.12.28 18:16:26 in /rds/project/t2_vol4/rds-t2-cs072/BORA/CARBON/AIRSS/Generating-Clusters/Str-Search/Higher-Symm/C100-200
REM VASP from code version vasp.5.4.4.18Apr17-6-g9f103f2a35 (build Oct 11 2019 16:45:47) gamma-only
REM
REM
REM
REM
REM ./C.cell (533062f00bc710175b3da973d35f2034)
REM AIRSS Version 0.9.1 bugfix July 2018 build 013d7b7c2542+ Fri, 06 Jul 2018 19:26:36 +0100
REM compiler GCC version 4.8.5 20150623 (Red Hat 4.8.5-39)
REM options -cpp -mtune=generic -march=x86-64 -g -O0
REM seed 1752016952 1314839532 -1514646478 1830358103 2038867603 -260031237 -741195374 174378676 699712053 1797185225 1288650694 164188467
REM
REM C.POTCAR (d86ddea03c3ceb6dc662c8ad6801f873)
REM 
CELL 1.54180   15.00000   15.00000   15.00000   90.00000   90.00000   90.00000
LATT -1
SFAC C  
C      1  0.7839889651123  0.7149202975376  0.4779432344446 1.0
C      1  0.7830203886268  0.6268743190154  0.6519112424708 1.0
C      1  0.7587088714239  0.4595923027515  0.7297228249710 1.0
C      1  0.7751621046738  0.3075316774471  0.6333371840289 1.0
C      1  0.7554886193232  0.3210812959231  0.4463575901685 1.0
C      1  0.7557634703699  0.4555410019377  0.2963209325125 1.0
C      1  0.7591994778360  0.6561918842655  0.2992714140045 1.0
C      1  0.2143997856052  0.5286734119651  0.4074645499962 1.0
C      1  0.1771618892730  0.6029826683756  0.4715452165398 1.0
C      1  0.2183846716164  0.5701946698617  0.5600600214824 1.0
C      1  0.2083215325924  0.4887118096159  0.6173414798766 1.0
C      1  0.2005428725634  0.4035575279716  0.5814315885596 1.0
C      1  0.1907992664047  0.3757296504462  0.4888389753660 1.0
C      1  0.1952611526158  0.4287751557049  0.4104880979119 1.0
C      1  0.6131660421067  0.2475305127094  0.3816091810538 1.0
C      1  0.6092731015687  0.4417084146174  0.2052819798028 1.0
C      1  0.6088363198359  0.7066301288408  0.2406280096117 1.0
C      1  0.6402542447801  0.8054259799318  0.5037235451695 1.0
C      1  0.6421455815932  0.6968483383858  0.7189863400388 1.0
C      1  0.6081542034275  0.4389448179438  0.8080172780986 1.0
C      1  0.6289436916591  0.2335481187545  0.6594303902556 1.0
C      1  0.5571398632721  0.3638381432686  0.8204203798767 1.0
C      1  0.5954816734003  0.1865852992900  0.5906955219780 1.0
C      1  0.5683730302645  0.2472307608027  0.3023474333620 1.0
C      1  0.5929775603602  0.5291133038939  0.1700200774145 1.0
C      1  0.5423517625488  0.7622105178888  0.2756282390582 1.0
C      1  0.5972491635608  0.8148596404396  0.5902642165246 1.0
C      1  0.6032944037904  0.6605277136832  0.7906477786075 1.0
C      1  0.7207654850333  0.2547003463370  0.6646527447793 1.0
C      1  0.7017603700755  0.2711226783183  0.4079029307806 1.0
C      1  0.6897810857010  0.4347886928621  0.2496408862731 1.0
C      1  0.6994880771163  0.7015763605800  0.2638514880665 1.0
C      1  0.7239453329629  0.7706857223849  0.4937317059916 1.0
C      1  0.7296638178730  0.6747285010069  0.6921520300639 1.0
C      1  0.7002543009318  0.4467410694546  0.7868640663274 1.0
C      1  0.2378540219899  0.5645897330935  0.3198145854979 1.0
C      1  0.2536220492082  0.6651250767325  0.4502923775301 1.0
C      1  0.2463050417770  0.6220953612931  0.6420379790594 1.0
C      1  0.2410827925565  0.5416580144879  0.6952178004727 1.0
C      1  0.2298785226271  0.3113851029258  0.6043062436276 1.0
C      1  0.2214374504615  0.2826593216518  0.5111699632893 1.0
C      1  0.2164505457351  0.3938525309599  0.3281312433028 1.0
C      1  0.4087224693844  0.2831290863267  0.7816618769133 1.0
C      1  0.4433871823282  0.1635121618134  0.5593197405258 1.0
C      1  0.4134768464795  0.2714087533642  0.2435090149774 1.0
C      1  0.4257062642629  0.5362007069683  0.1661585577274 1.0
C      1  0.4348236444050  0.7977354546759  0.3634268003235 1.0
C      1  0.4227859630108  0.8092982348628  0.6255065365266 1.0
C      1  0.4469994878029  0.6405272652338  0.8144199984314 1.0
C      1  0.4448635930164  0.3743752723731  0.3910940014348 1.0
C      1  0.4590762697030  0.5516624902181  0.3438054521162 1.0
C      1  0.4863709167445  0.6491610581031  0.3628033264437 1.0
C      1  0.4418779956670  0.6332672863540  0.5994784733861 1.0
C      1  0.4412232616609  0.5718735833038  0.6719020820771 1.0
C      1  0.4245411891638  0.3657254593863  0.6198001549521 1.0
C      1  0.4192592433674  0.3148356792463  0.5412079992232 1.0
C      1  0.3720183120476  0.6945666947149  0.5774286238599 1.0
C      1  0.3834206369140  0.5939876940750  0.7541456031982 1.0
C      1  0.3580894698928  0.3590405319605  0.6863828460499 1.0
C      1  0.3690940074600  0.2251769072790  0.5373260465167 1.0
C      1  0.3720539295266  0.3381552062627  0.3381831886099 1.0
C      1  0.3999812639381  0.5210986222854  0.2719348478233 1.0
C      1  0.4472343259381  0.7221845827764  0.2935116576091 1.0
C      1  0.5147674409955  0.5703226473699  0.1545727454546 1.0
C      1  0.5276984732829  0.8139251702045  0.3599390654201 1.0
C      1  0.5189346031613  0.8153596895130  0.6355968438711 1.0
C      1  0.5374076819247  0.6071178221344  0.8208686782714 1.0
C      1  0.5055821231449  0.2984649074964  0.7818173361926 1.0
C      1  0.5333471580991  0.1761503420165  0.5264664700991 1.0
C      1  0.5091773049403  0.2883838382733  0.2458291317614 1.0
C      1  0.5747695530121  0.7737868715521  0.4367910650247 1.0
C      1  0.5757835549282  0.7319257634836  0.6443764946191 1.0
C      1  0.5502061764761  0.5148828703475  0.7787548986913 1.0
C      1  0.5541771549166  0.2905314051864  0.6939246422419 1.0
C      1  0.5410733871984  0.2398309566487  0.4504354940597 1.0
C      1  0.5225679835997  0.3970610185457  0.2401485548076 1.0
C      1  0.5749045177634  0.6108617449249  0.2255269448702 1.0
C      1  0.2907783372372  0.2260102865074  0.4732168404824 1.0
C      1  0.2900197081851  0.3692538168824  0.2902215313122 1.0
C      1  0.3069498719835  0.5599703661783  0.2686936908575 1.0
C      1  0.2993924186467  0.7353122737038  0.4287090175936 1.0
C      1  0.2967094583011  0.6999934472598  0.6385725464235 1.0
C      1  0.3072271226475  0.5277192993111  0.7647072774144 1.0
C      1  0.2872967473658  0.2937643758715  0.6746815387124 1.0
C      1  0.3571573774799  0.2309280545176  0.7054105977253 1.0
C      1  0.3160306964610  0.1996723023707  0.3885949383706 1.0
C      1  0.3651138667275  0.3597930086001  0.2289011421537 1.0
C      1  0.3620829586699  0.6076545678116  0.1982381600891 1.0
C      1  0.3763689833737  0.7839751854402  0.4401004396018 1.0
C      1  0.3641712428228  0.7494422421218  0.6924901316545 1.0
C      1  0.3304190908418  0.4502114620255  0.8067509954048 1.0
C      1  0.5702585927054  0.4510036249646  0.4125906586471 1.0
C      1  0.6051979110989  0.5435319214654  0.3970435229513 1.0
C      1  0.5982360002615  0.6008148953945  0.4685969805953 1.0
C      1  0.5873817867609  0.5797246714272  0.5616211779871 1.0
C      1  0.5756944974378  0.5015083273811  0.6097038062799 1.0
C      1  0.5738971469861  0.4114627424235  0.5775540092996 1.0
C      1  0.5619861952478  0.3925459988755  0.4906633028107 1.0
C      1  0.3912266040231  0.6939323472823  0.7648073407789 1.0
C      1  0.3629280080767  0.3719861358851  0.7853440730812 1.0
C      1  0.3860073205807  0.1838406053751  0.6285993706333 1.0
C      1  0.3652997509619  0.2386634032429  0.3266761643023 1.0
C      1  0.4248423826326  0.4411725865995  0.2142730020706 1.0
C      1  0.3920141154166  0.6919080981063  0.2175223157337 1.0
C      1  0.3961860769299  0.7815003272630  0.5374489174916 1.0
C      1  0.4891940872309  0.3243996006776  0.4702658328708 1.0
C      1  0.5233242258196  0.4075513480697  0.3386293915892 1.0
C      1  0.5515498343697  0.5831013543706  0.3202272298559 1.0
C      1  0.5480180021088  0.6828919138068  0.4382654569331 1.0
C      1  0.5358158484921  0.6563834827635  0.5944235547826 1.0
C      1  0.5187767833946  0.5189113385298  0.6901196241952 1.0
C      1  0.5212529596765  0.3551150407417  0.6374086736747 1.0
C      1  0.8011549436295  0.6018346752879  0.3618486850017 1.0
C      1  0.8157951910900  0.6326592695206  0.4523343553249 1.0
C      1  0.8130920576649  0.5515856728121  0.6034940170941 1.0
C      1  0.8009685176327  0.4658381633269  0.6451798449490 1.0
C      1  0.8027707638367  0.3860877220629  0.5911537873149 1.0
C      1  0.7994017510830  0.3909575405932  0.4944211913275 1.0
C      1  0.8148857804652  0.4760213922648  0.4548571991345 1.0
C      1  0.7967001647453  0.5047063071948  0.3631554922921 1.0
C      1  0.8264392444150  0.5545160917344  0.5095625851702 1.0
C      1  0.2797110463343  0.5699849570586  0.4779416192679 1.0
C      1  0.4698816377366  0.4701570002588  0.3970692064046 1.0
END
