TITL C-25379-3091-13 -1.751 3375.00 -294.93469219 0 0 36 (C1) n - 1
REM
REM Run started: at 2021.01.04 09:14:22 in /gpfs/home/chem/mssmkc/CARBON/AIRSS/Generating-Clusters/Str-Search/Higher-Symm/C4-100
REM VASP from code version vasp.5.4.4.18Apr17-6-g9f103f2a35 (build Oct 11 2019 16:45:47) gamma-only
REM
REM
REM
REM
REM ./C.cell (6bd13a13d554368a30d355f37ece5b26)
REM AIRSS Version 0.9.1 bugfix July 2018 build 013d7b7c2542+ Fri, 06 Jul 2018 19:26:36 +0100
REM compiler GCC version 6.3.0
REM options -cpp -iprefix /gpfs/warwick/csc/orac/software/Core/GCCcore/6.3.0/bin/../lib/gcc/x86_64-pc-linux-gnu/6.3.0/ -mtune=generic -march=x86-64 -g -O0
REM seed -1157712174 1147980013 -202017202 1028296092 -1701772187 -2147057160 -1815396667 -1526385656 -967422698 -1435432641 -1228539954 -957485714
REM
REM C.POTCAR (d86ddea03c3ceb6dc662c8ad6801f873)
REM 
CELL 1.54180   15.00000   15.00000   15.00000   90.00000   90.00000   90.00000
LATT -1
SFAC C  
C      1  0.5200246774069  0.6289662416249  0.3670909935186 1.0
C      1  0.5975393222429  0.6650532069938  0.4146530696461 1.0
C      1  0.6398280822488  0.6463171163174  0.5016185647508 1.0
C      1  0.6089547505011  0.6244216507101  0.5860063512765 1.0
C      1  0.5235928398614  0.6208964535745  0.6350340804195 1.0
C      1  0.4355964031750  0.6385540602105  0.6186320055714 1.0
C      1  0.3760305225692  0.6617410938880  0.5400957469334 1.0
C      1  0.3686983675133  0.6255843797433  0.4518165432480 1.0
C      1  0.4304048299164  0.6045060960083  0.3827701662529 1.0
C      1  0.4690240017502  0.4502636514979  0.3489158932798 1.0
C      1  0.5662791463558  0.4679049769155  0.3585698927008 1.0
C      1  0.6296532426447  0.4250426761489  0.4204797661679 1.0
C      1  0.6838221711733  0.4887232833105  0.4750407477261 1.0
C      1  0.6624877926069  0.4685092893825  0.5673561127564 1.0
C      1  0.4918060597017  0.4537434372252  0.6591985084302 1.0
C      1  0.3971301136023  0.4745748433674  0.6438641331470 1.0
C      1  0.3474628199895  0.4211530349352  0.5836904623165 1.0
C      1  0.3158777384921  0.4585268486159  0.4950844844875 1.0
C      1  0.5482492750196  0.5299769838600  0.6684261919153 1.0
C      1  0.3717705934185  0.5670180545408  0.6409306974668 1.0
C      1  0.3118149000784  0.5956127238597  0.5724766968863 1.0
C      1  0.3045367238081  0.5504486721909  0.4869451300722 1.0
C      1  0.4073680062039  0.5198489929027  0.3469887105814 1.0
C      1  0.5841155468844  0.5604303778751  0.3373715401829 1.0
C      1  0.6634110617824  0.6098422756973  0.3650797926437 1.0
C      1  0.6936757370694  0.5781015172588  0.4509002818400 1.0
C      1  0.6337316231585  0.5373496991166  0.6238368855148 1.0
C      1  0.3875463895248  0.3456005777058  0.5396748811851 1.0
C      1  0.3615720729114  0.3806198904790  0.4522694636716 1.0
C      1  0.4267731392952  0.3692276386293  0.3839998159101 1.0
C      1  0.4849944629724  0.2949128888864  0.3903148750902 1.0
C      1  0.5267196427418  0.3007825924595  0.4740397647729 1.0
C      1  0.6081879190503  0.3509917505658  0.4786927607029 1.0
C      1  0.6144870586318  0.3870835318652  0.5694244786936 1.0
C      1  0.5302648142920  0.3773411240659  0.6133350938638 1.0
C      1  0.4765685514057  0.3203283675714  0.5553756163768 1.0
END
