TITL C-25327-2823-47 -6.65 3375.00 -1165.46315737 0 0 143 (C1) n - 1
REM
REM Run started: at 2021.01.01 22:54:43 in /gpfs/home/chem/mssmkc/CARBON/AIRSS/Generating-Clusters/Str-Search/Higher-Symm/C100-200
REM VASP from code version vasp.5.4.4.18Apr17-6-g9f103f2a35 (build Oct 11 2019 16:45:47) gamma-only
REM
REM
REM
REM
REM ./C.cell (533062f00bc710175b3da973d35f2034)
REM AIRSS Version 0.9.1 bugfix July 2018 build 013d7b7c2542+ Fri, 06 Jul 2018 19:26:36 +0100
REM compiler GCC version 6.3.0
REM options -cpp -iprefix /gpfs/warwick/csc/orac/software/Core/GCCcore/6.3.0/bin/../lib/gcc/x86_64-pc-linux-gnu/6.3.0/ -mtune=generic -march=x86-64 -g -O0
REM seed -1781257544 -1910398486 -1552790841 -1793412158 2147053254 -1338814659 670801438 818910716 -801902371 -164855492 1314315958 -686316306
REM
REM C.POTCAR (d86ddea03c3ceb6dc662c8ad6801f873)
REM 
CELL 1.54180   15.00000   15.00000   15.00000   90.00000   90.00000   90.00000
LATT -1
SFAC C  
C      1  0.5277430677771  0.6600512338872  0.7825295008622 1.0
C      1  0.5539256394204  0.1560448589226  0.4721044193982 1.0
C      1  0.5472053770350  0.6783529230446  0.2043875086358 1.0
C      1  0.1803921687175  0.6220654013366  0.3978072909269 1.0
C      1  0.1334759045230  0.6024964137368  0.6298264311649 1.0
C      1  0.1848855781666  0.3844901208498  0.5590785353180 1.0
C      1  0.4286743460723  0.3969724850148  0.1943699593290 1.0
C      1  0.4254744582503  0.8424493695682  0.5377461327310 1.0
C      1  0.4366063809400  0.2913979286360  0.7448075742211 1.0
C      1  0.4497164527527  0.8391859498139  0.6310107105356 1.0
C      1  0.4635049309229  0.2664262922079  0.6529107532959 1.0
C      1  0.4723431477992  0.4803519834935  0.2267112579804 1.0
C      1  0.3518605441336  0.7788310604941  0.5599949263406 1.0
C      1  0.3461197349070  0.2662410315536  0.7194045790707 1.0
C      1  0.3334606067604  0.4290919536656  0.2141319004986 1.0
C      1  0.5137952355446  0.5967794322733  0.1652455846005 1.0
C      1  0.4922914979967  0.7433784405428  0.7422117526292 1.0
C      1  0.5132671422384  0.1579142186267  0.5604024163760 1.0
C      1  0.3223828559615  0.3709481242655  0.2910201954496 1.0
C      1  0.3375059456693  0.7049444190653  0.5024159999042 1.0
C      1  0.3357116286080  0.3611625660696  0.6937946115181 1.0
C      1  0.3970893642888  0.7197972663263  0.2682963182888 1.0
C      1  0.3892214793272  0.5757511373266  0.8152768206505 1.0
C      1  0.4001733864625  0.1726554733455  0.3979062809300 1.0
C      1  0.2090177906587  0.6261565599430  0.6742808546622 1.0
C      1  0.2527280210779  0.3288412171904  0.5188774518823 1.0
C      1  0.2623800798774  0.6464750057942  0.3624917876293 1.0
C      1  0.4070618248862  0.3621116299225  0.4415731304344 1.0
C      1  0.4122905311839  0.5606428475446  0.4414671917433 1.0
C      1  0.3789766608273  0.4863596539195  0.6431980395342 1.0
C      1  0.4784454551189  0.5982992822260  0.8448977207123 1.0
C      1  0.4941664129923  0.1543473711640  0.3969359288317 1.0
C      1  0.4844464922247  0.7427298670785  0.2394738499653 1.0
C      1  0.0825576607092  0.4412789931922  0.7017380272867 1.0
C      1  0.1421983810136  0.4379286798281  0.3901002084771 1.0
C      1  0.0924130306770  0.7416629955576  0.5133778523646 1.0
C      1  0.6816940429296  0.5633333047640  0.4104585486349 1.0
C      1  0.6921208242216  0.5427576587628  0.6132512576252 1.0
C      1  0.6982743577879  0.3836431533409  0.4851996156895 1.0
C      1  0.6879280170041  0.6086192407183  0.2543844040136 1.0
C      1  0.6775471306680  0.6652191533780  0.7199898273849 1.0
C      1  0.6969700505043  0.2274145891486  0.5158838332610 1.0
C      1  0.8498430822819  0.3684488701123  0.4200975180507 1.0
C      1  0.8313066237868  0.6392323692640  0.4244187256484 1.0
C      1  0.8461151834307  0.5012027079410  0.6581016416370 1.0
C      1  0.8141711728966  0.4154776648476  0.6431600301634 1.0
C      1  0.8142644993860  0.4217519882542  0.3537935949928 1.0
C      1  0.7977699339333  0.6664181647123  0.5053683366113 1.0
C      1  0.8703969997507  0.5525313536469  0.4140601690784 1.0
C      1  0.8723673012717  0.5580903986636  0.5856439697256 1.0
C      1  0.8791303265934  0.4063276116725  0.5030392868673 1.0
C      1  0.6817959359179  0.2621884592184  0.6034367392828 1.0
C      1  0.6827054395089  0.5150608871809  0.2376874149635 1.0
C      1  0.6622680251920  0.7152223490399  0.6432004928134 1.0
C      1  0.7502275927779  0.4855880067942  0.6550996594550 1.0
C      1  0.7524504907109  0.3779353401187  0.4111966794538 1.0
C      1  0.7353143562538  0.6317659395845  0.4419057152065 1.0
C      1  0.3154583855770  0.2830723083334  0.2974743450394 1.0
C      1  0.3193904049798  0.7172551119611  0.4067970425237 1.0
C      1  0.3416531406993  0.4454084389638  0.7318427358548 1.0
C      1  0.7298544552017  0.2578193503219  0.2308245058513 1.0
C      1  0.7162179769480  0.8350831135426  0.4254243436771 1.0
C      1  0.6724394400268  0.4653448950047  0.8133287065736 1.0
C      1  0.4801398427769  0.3644535701355  0.6143545294943 1.0
C      1  0.4813797954357  0.4546996863032  0.3290284343986 1.0
C      1  0.4871560653626  0.6302806477231  0.5530930327386 1.0
C      1  0.5354853528063  0.3723027643550  0.5344627895707 1.0
C      1  0.5046168446347  0.5225789156429  0.4034427494925 1.0
C      1  0.5267761817909  0.5583483247351  0.5950363489867 1.0
C      1  0.2048773256783  0.4020195028905  0.4645370168303 1.0
C      1  0.1332465883019  0.6692832662402  0.4664177618986 1.0
C      1  0.1065515475430  0.5118772144333  0.6472624526405 1.0
C      1  0.5331661473263  0.6754392870614  0.4012454824959 1.0
C      1  0.4810998326282  0.5126273996124  0.6712154952130 1.0
C      1  0.5622254666879  0.3286625392068  0.3857140700391 1.0
C      1  0.3763548328688  0.7684433498169  0.3518846512208 1.0
C      1  0.3836644044555  0.4775528773086  0.8129994016352 1.0
C      1  0.3819234795129  0.2241436686063  0.3150996404274 1.0
C      1  0.3836264304808  0.6130901578857  0.5276555801088 1.0
C      1  0.3821022685278  0.3911362377911  0.6065389275928 1.0
C      1  0.3862035811213  0.4178295640082  0.3630999904564 1.0
C      1  0.4708413847755  0.4421197812548  0.8387735956763 1.0
C      1  0.4677956318456  0.2407803433569  0.2655001133320 1.0
C      1  0.4580805845624  0.8151409618741  0.3800900504715 1.0
C      1  0.5525649434056  0.3890822295461  0.3227648693998 1.0
C      1  0.5352296297637  0.6889270717903  0.4911320112796 1.0
C      1  0.5188118715499  0.4143636020171  0.6907563552433 1.0
C      1  0.3635996332064  0.1791824223393  0.4851983386333 1.0
C      1  0.4042603753047  0.6207511317314  0.2888670278680 1.0
C      1  0.3673496347573  0.6391261284627  0.7394960457935 1.0
C      1  0.1109307873877  0.6576937222640  0.5542119569134 1.0
C      1  0.1359131864861  0.4242092941073  0.6232607546421 1.0
C      1  0.1721449139507  0.5248070772820  0.4067341234528 1.0
C      1  0.6201242016392  0.5412806477963  0.8300627965945 1.0
C      1  0.6138831260234  0.2461514767409  0.3547882227813 1.0
C      1  0.5979897105127  0.7352449842634  0.3460673003105 1.0
C      1  0.4156942091299  0.1549521705154  0.5616830566609 1.0
C      1  0.4225047048941  0.5652891731039  0.2078913567374 1.0
C      1  0.3979741965739  0.7334207252838  0.7297455044355 1.0
C      1  0.5509877044179  0.5104193219213  0.1776635987604 1.0
C      1  0.5272071631305  0.7987839837609  0.6690997533390 1.0
C      1  0.5401281481536  0.2114226196081  0.6365503392167 1.0
C      1  0.5900456954451  0.3619364114444  0.2354959082305 1.0
C      1  0.5754827363292  0.7816388786418  0.5057547920334 1.0
C      1  0.5930428116838  0.3491347721976  0.7294471620336 1.0
C      1  0.3390791498046  0.5058852696814  0.3915905965369 1.0
C      1  0.3370536380396  0.5626386091446  0.5988043129348 1.0
C      1  0.3500985237101  0.3513534603210  0.5207409737287 1.0
C      1  0.6262297709323  0.6781121763609  0.2610361875501 1.0
C      1  0.6210635440534  0.6266028562536  0.7849633775007 1.0
C      1  0.6379507998087  0.2000555926782  0.4481453305173 1.0
C      1  0.6017495399423  0.5192353623345  0.4528744310567 1.0
C      1  0.6122405991236  0.5225264411832  0.5589256805072 1.0
C      1  0.6146009051769  0.4307852256709  0.5118550849090 1.0
C      1  0.6556886708919  0.2879124438161  0.2667084609168 1.0
C      1  0.6439189660052  0.7854591308372  0.4257745441574 1.0
C      1  0.6620811868718  0.3894995386102  0.7828738020193 1.0
C      1  0.8294255400369  0.3594513122483  0.5719153851859 1.0
C      1  0.8222003087216  0.5120371917413  0.3411724545908 1.0
C      1  0.8165647276340  0.6381366576006  0.5906168831496 1.0
C      1  0.6248303563769  0.4543521034200  0.1969252315387 1.0
C      1  0.5995352552021  0.7761340847390  0.6089710934729 1.0
C      1  0.6133768197092  0.2661610040853  0.6651756679208 1.0
C      1  0.5318934145795  0.1990872561815  0.3208705141325 1.0
C      1  0.5216328844303  0.7908122397805  0.3134915435819 1.0
C      1  0.5299051539062  0.5179832353045  0.8591443277520 1.0
C      1  0.4959242912593  0.3630814028889  0.7773933532627 1.0
C      1  0.4875537236370  0.3238269498225  0.2128204015721 1.0
C      1  0.4870735465142  0.8332680028345  0.4703235903659 1.0
C      1  0.7255551386923  0.6355387429299  0.6379988105001 1.0
C      1  0.7416910869145  0.3136634523163  0.5445896076480 1.0
C      1  0.7287285457292  0.5467391988121  0.3204550757434 1.0
C      1  0.3211573856739  0.2531660904255  0.5375153780920 1.0
C      1  0.3173466627976  0.5738374857426  0.3129981271948 1.0
C      1  0.2965456906805  0.6144531897616  0.6725988685214 1.0
C      1  0.4979827333549  0.3404025263932  0.4562102399872 1.0
C      1  0.4673632298374  0.6104340945355  0.3704231489056 1.0
C      1  0.4596036638295  0.5882869193414  0.7358657278750 1.0
C      1  0.3732642133207  0.2236419213706  0.6244825176968 1.0
C      1  0.3277356170157  0.5225540018441  0.2198980089297 1.0
C      1  0.3725025925870  0.7882127148585  0.6567540723102 1.0
C      1  0.8902698825149  0.5064335166560  0.5009482749709 1.0
C      1  0.2524008620529  0.4840917756952  0.4379361794262 1.0
END
