TITL C-25379-3091-59 -0.335 3375.00 -42.74383878 0 0 6 (D6h) n - 1
REM
REM Run started: at 2021.01.04 17:23:57 in /gpfs/home/chem/mssmkc/CARBON/AIRSS/Generating-Clusters/Str-Search/Higher-Symm/C4-100
REM VASP from code version vasp.5.4.4.18Apr17-6-g9f103f2a35 (build Oct 11 2019 16:45:47) gamma-only
REM
REM
REM
REM
REM ./C.cell (6bd13a13d554368a30d355f37ece5b26)
REM AIRSS Version 0.9.1 bugfix July 2018 build 013d7b7c2542+ Fri, 06 Jul 2018 19:26:36 +0100
REM compiler GCC version 6.3.0
REM options -cpp -iprefix /gpfs/warwick/csc/orac/software/Core/GCCcore/6.3.0/bin/../lib/gcc/x86_64-pc-linux-gnu/6.3.0/ -mtune=generic -march=x86-64 -g -O0
REM seed -1178420957 1027535871 1838171068 1311527663 1727331900 -398087179 -1569124434 -600993119 575383014 1385140016 1258986864 -1075616880
REM
REM C.POTCAR (d86ddea03c3ceb6dc662c8ad6801f873)
REM 
CELL 1.54180   15.00000   15.00000   15.00000   90.00000   90.00000   90.00000
LATT -1
SFAC C  
C      1  0.4241215640111  0.5164583674213  0.5438067955360 1.0
C      1  0.5758785116661  0.5164583058807  0.4561932478811 1.0
C      1  0.5758784468012  0.5164583256824  0.5438067527256 1.0
C      1  0.4999999923475  0.5164473901711  0.5876014564559 1.0
C      1  0.4241215411114  0.5164583438650  0.4561931762704 1.0
C      1  0.4999999440626  0.5164474669795  0.4123985711310 1.0
END
