TITL C-25379-3091-46 -1.898 3375.00 -282.00046970 0 0 35 (C1) n - 1
REM
REM Run started: at 2021.01.04 15:45:37 in /gpfs/home/chem/mssmkc/CARBON/AIRSS/Generating-Clusters/Str-Search/Higher-Symm/C4-100
REM VASP from code version vasp.5.4.4.18Apr17-6-g9f103f2a35 (build Oct 11 2019 16:45:47) gamma-only
REM
REM
REM
REM
REM ./C.cell (6bd13a13d554368a30d355f37ece5b26)
REM AIRSS Version 0.9.1 bugfix July 2018 build 013d7b7c2542+ Fri, 06 Jul 2018 19:26:36 +0100
REM compiler GCC version 6.3.0
REM options -cpp -iprefix /gpfs/warwick/csc/orac/software/Core/GCCcore/6.3.0/bin/../lib/gcc/x86_64-pc-linux-gnu/6.3.0/ -mtune=generic -march=x86-64 -g -O0
REM seed 1048099216 -766360832 452943506 700382921 -1758441334 205214448 848386002 1682346613 1838870633 531999319 -2001331631 -1274818477
REM
REM C.POTCAR (d86ddea03c3ceb6dc662c8ad6801f873)
REM 
CELL 1.54180   15.00000   15.00000   15.00000   90.00000   90.00000   90.00000
LATT -1
SFAC C  
C      1  0.4696662812351  0.7213010354518  0.3480338790175 1.0
C      1  0.4917789259186  0.2689188336453  0.6766622654250 1.0
C      1  0.5013559612024  0.3106943204817  0.3318179138080 1.0
C      1  0.5354116545558  0.7516016262989  0.6637653141313 1.0
C      1  0.6520292824186  0.3452134891626  0.4061645280561 1.0
C      1  0.6859343321145  0.7079690945995  0.5987588612881 1.0
C      1  0.3206230228171  0.6904113193838  0.4212939856470 1.0
C      1  0.3415112530977  0.2883089568984  0.5976101876911 1.0
C      1  0.2909517500849  0.3341969054415  0.4362062695392 1.0
C      1  0.3120187717750  0.6998439261454  0.5780256305102 1.0
C      1  0.6933750233866  0.6909239957045  0.4430412461069 1.0
C      1  0.7090837912925  0.3617399144441  0.6144310099689 1.0
C      1  0.4128763941388  0.2997413424377  0.3150567356016 1.0
C      1  0.4522290889418  0.7491170005103  0.6585329728576 1.0
C      1  0.5529137694506  0.7210076237476  0.3526339579108 1.0
C      1  0.5733744426499  0.2884409487267  0.6792520938520 1.0
C      1  0.2799752383159  0.6588200518373  0.4999155859677 1.0
C      1  0.2972346024880  0.3277330876875  0.5295693743926 1.0
C      1  0.7070469557547  0.3735379522996  0.4611463925847 1.0
C      1  0.7257782920253  0.6633203275021  0.5266152185265 1.0
C      1  0.2554690053362  0.4033643411104  0.4894856820129 1.0
C      1  0.2440196499304  0.5732303987135  0.4998942719529 1.0
C      1  0.7660007680183  0.5798539236526  0.5364974891506 1.0
C      1  0.7423656759788  0.4086749401912  0.5413116168380 1.0
C      1  0.6197450431712  0.7359324803728  0.6404035775779 1.0
C      1  0.5771697110405  0.3258992738063  0.3619274206425 1.0
C      1  0.4104976725631  0.2752818299378  0.6430099489087 1.0
C      1  0.3850191395780  0.7118258274332  0.3735413659986 1.0
C      1  0.3289472203192  0.3085135266935  0.3553573561975 1.0
C      1  0.3709093922318  0.7317731441905  0.6270552883903 1.0
C      1  0.6332275833805  0.7094690646983  0.3889117388691 1.0
C      1  0.6545078582998  0.3163482286046  0.6583779225843 1.0
C      1  0.2349148303279  0.4910602871009  0.4955990189444 1.0
C      1  0.7691402553706  0.4977530539105  0.5434306798030 1.0
C      1  0.3334780607900  0.2790487271778  0.2656035992465 1.0
END
