TITL C-25379-3091-2 -4.122 3375.00 -716.12309901 0 0 87 (C1) n - 1
REM
REM Run started: at 2021.01.04 06:01:59 in /gpfs/home/chem/mssmkc/CARBON/AIRSS/Generating-Clusters/Str-Search/Higher-Symm/C4-100
REM VASP from code version vasp.5.4.4.18Apr17-6-g9f103f2a35 (build Oct 11 2019 16:45:47) gamma-only
REM
REM
REM
REM
REM ./C.cell (6bd13a13d554368a30d355f37ece5b26)
REM AIRSS Version 0.9.1 bugfix July 2018 build 013d7b7c2542+ Fri, 06 Jul 2018 19:26:36 +0100
REM compiler GCC version 6.3.0
REM options -cpp -iprefix /gpfs/warwick/csc/orac/software/Core/GCCcore/6.3.0/bin/../lib/gcc/x86_64-pc-linux-gnu/6.3.0/ -mtune=generic -march=x86-64 -g -O0
REM seed 1169993356 -1572264482 384581860 1732339720 1458308307 414657202 -871539280 -114601290 1493152606 660625074 -401662005 -1855507955
REM
REM C.POTCAR (d86ddea03c3ceb6dc662c8ad6801f873)
REM 
CELL 1.54180   15.00000   15.00000   15.00000   90.00000   90.00000   90.00000
LATT -1
SFAC C  
C      1  0.7354084636209  0.3905956940266  0.4022449062195 1.0
C      1  0.2581099893691  0.3896034052003  0.5984275758845 1.0
C      1  0.2571565699643  0.6064903060278  0.4009254604321 1.0
C      1  0.7384703601182  0.6130930011236  0.6003149166439 1.0
C      1  0.4028491763541  0.3860129685869  0.7356380192956 1.0
C      1  0.5967056132031  0.3910212747031  0.2625641036606 1.0
C      1  0.3975179277824  0.6064668284207  0.2617789758971 1.0
C      1  0.5993703204056  0.6080172267950  0.7356865510767 1.0
C      1  0.5771398158286  0.3384114135713  0.3466929761042 1.0
C      1  0.4127438128020  0.3323016051279  0.6509364474945 1.0
C      1  0.4156981349603  0.6576700597132  0.3472320547623 1.0
C      1  0.5794182184118  0.6593614165374  0.6499526043168 1.0
C      1  0.3412588699540  0.3351512747157  0.5789318810316 1.0
C      1  0.6496860489327  0.3373774618030  0.4186404267346 1.0
C      1  0.3435756995465  0.6584979113142  0.4186192117228 1.0
C      1  0.6526805426507  0.6650733174766  0.5808078374907 1.0
C      1  0.7487368585761  0.5735560666627  0.6846634416895 1.0
C      1  0.2451696887629  0.5675172717726  0.3159917571683 1.0
C      1  0.2510766667590  0.4295444239736  0.6839406108520 1.0
C      1  0.7490573873772  0.4307124884826  0.3178223490553 1.0
C      1  0.6859465131668  0.5761424568894  0.7548105382442 1.0
C      1  0.3125136501854  0.5673497569382  0.2492179645817 1.0
C      1  0.6819959499709  0.4305541339465  0.2508783581991 1.0
C      1  0.3196130851872  0.4279382436634  0.7508879117631 1.0
C      1  0.4557371710536  0.5541362877604  0.2048082129773 1.0
C      1  0.5440324626477  0.5494906506208  0.7864098296878 1.0
C      1  0.5389503393996  0.4430750416937  0.2058989169531 1.0
C      1  0.4678839201810  0.4362887515242  0.7912276723285 1.0
C      1  0.1992802717360  0.5542198439983  0.4582613622320 1.0
C      1  0.7931085047738  0.5557358168686  0.5440617001179 1.0
C      1  0.2003187636369  0.4423183846007  0.5424374056285 1.0
C      1  0.7894870462878  0.4427769026995  0.4628899142578 1.0
C      1  0.5500054087923  0.5410396485736  0.1993213578834 1.0
C      1  0.4535286277571  0.5324721105977  0.7915147773218 1.0
C      1  0.4448794865498  0.4564269411042  0.1980358063221 1.0
C      1  0.5642413765767  0.4532508208779  0.8114607764626 1.0
C      1  0.1950230815763  0.5395925959262  0.5528886095197 1.0
C      1  0.8035976911643  0.5397407133337  0.4499596837388 1.0
C      1  0.1918925255284  0.4568620421339  0.4475805704012 1.0
C      1  0.7912676852030  0.4583256177050  0.5579062705446 1.0
C      1  0.2405990501146  0.4148182599276  0.3816805830329 1.0
C      1  0.7381722752776  0.4204489090987  0.6235307437444 1.0
C      1  0.7593315091733  0.5854625864343  0.3809920911834 1.0
C      1  0.2465047420254  0.5810251976414  0.6170344359666 1.0
C      1  0.3776589363532  0.4148989016052  0.2462716501387 1.0
C      1  0.6463300517796  0.4133065338353  0.8155893978541 1.0
C      1  0.3850016874100  0.5785301398452  0.7491536401208 1.0
C      1  0.6156130848752  0.5821155460747  0.2494734841374 1.0
C      1  0.6641200543717  0.6148925057193  0.4152089483322 1.0
C      1  0.3386961428671  0.6080440258849  0.5826142003704 1.0
C      1  0.3343296914351  0.3883058084431  0.4151759449115 1.0
C      1  0.6488488467198  0.3894049974016  0.5846762690018 1.0
C      1  0.4137870888985  0.6071555527465  0.6553810386900 1.0
C      1  0.5829433749509  0.6050278521581  0.3436788089340 1.0
C      1  0.4080404240219  0.3889094471496  0.3399664082444 1.0
C      1  0.5637785544329  0.3929261418466  0.6398839803842 1.0
C      1  0.6053190189340  0.4806572193533  0.5445721220272 1.0
C      1  0.3807648834808  0.4762271172677  0.4531940079434 1.0
C      1  0.3864901593547  0.5206967196929  0.5410231513809 1.0
C      1  0.6450193686325  0.5375729210682  0.4762095830787 1.0
C      1  0.5372361439334  0.4793936766101  0.6151082485073 1.0
C      1  0.4396577351975  0.4814982693323  0.3845553728386 1.0
C      1  0.5281884055428  0.5199657421602  0.3826143065577 1.0
C      1  0.4502839326669  0.5207195622299  0.6055140594035 1.0
C      1  0.7504483954472  0.4758437621123  0.7007132842011 1.0
C      1  0.2355131871489  0.4695921086836  0.3060390121349 1.0
C      1  0.2423407137669  0.5262329293654  0.6927535005757 1.0
C      1  0.7611268854051  0.5291075279194  0.3070060289988 1.0
C      1  0.7016674780197  0.4802673177772  0.7825232693364 1.0
C      1  0.3019227611253  0.4694008765683  0.2392514545002 1.0
C      1  0.6918797432641  0.5282345571311  0.2429399638185 1.0
C      1  0.3097573178281  0.5264400077664  0.7589479052562 1.0
C      1  0.5102462925598  0.6705226464636  0.3729670307071 1.0
C      1  0.4851581910716  0.6734162040898  0.6266590076193 1.0
C      1  0.4822310145833  0.3250723162936  0.3699824639093 1.0
C      1  0.5050029570241  0.3181726848563  0.6254701261072 1.0
C      1  0.3677712993866  0.6744853934602  0.5117677867436 1.0
C      1  0.6293170052798  0.6806040412053  0.4858858604961 1.0
C      1  0.3646144850590  0.3213592806933  0.4854717710288 1.0
C      1  0.6254538746187  0.3212406207106  0.5122205511398 1.0
C      1  0.5458343603178  0.7153732593859  0.4508111905849 1.0
C      1  0.4487644814439  0.7152095478602  0.5472225718847 1.0
C      1  0.4463580962217  0.2832770398660  0.4491475157784 1.0
C      1  0.5455093312277  0.2772477142268  0.5456649617329 1.0
C      1  0.4980409100077  0.7832961561902  0.4996343672228 1.0
C      1  0.4928411585658  0.2133175218350  0.4973669793817 1.0
C      1  0.5774093714238  0.4849181745218  0.4502622733589 1.0
END
