TITL C-26050-5264-31 -2.719 3375.00 -444.90851976 0 0 56 (Ci) n - 1
REM
REM Run started: at 2020.12.01 05:02:24 in /rds/project/t2_vol4/rds-t2-cs072/BORA/CARBON/AIRSS/Generating-Clusters/Str-Search/Higher-Symm/C10-100
REM VASP from code version vasp.5.4.4.18Apr17-6-g9f103f2a35 (build Oct 11 2019 16:45:47) gamma-only
REM
REM
REM
REM
REM ./C.cell (f39ce9773e2efe3fa5bbdf770a4156b8)
REM AIRSS Version 0.9.1 bugfix July 2018 build 013d7b7c2542+ Fri, 06 Jul 2018 19:26:36 +0100
REM compiler GCC version 4.8.5 20150623 (Red Hat 4.8.5-39)
REM options -cpp -mtune=generic -march=x86-64 -g -O0
REM seed 406129216 1777353555 347883858 1271182709 -582732954 1589179298 -941385420 555129124 -365818837 1786789293 -1073575667 232315251
REM
REM C.POTCAR (d86ddea03c3ceb6dc662c8ad6801f873)
REM 
CELL 1.54180   15.00000   15.00000   15.00000   90.00000   90.00000   90.00000
LATT -1
SFAC C  
C      1  0.3290737136000  0.5037636320147  0.4368755435775 1.0
C      1  0.6709262845991  0.4962363658408  0.5631244561369 1.0
C      1  0.6189080918625  0.5183096836077  0.3007007453614 1.0
C      1  0.3810919042438  0.4816903127431  0.6992992559065 1.0
C      1  0.2516867553638  0.3923599917619  0.6539208973828 1.0
C      1  0.7483132458134  0.6076400035727  0.3460791000501 1.0
C      1  0.5629890994662  0.4608719221052  0.7304213017735 1.0
C      1  0.4370109018192  0.5391280790397  0.2695786985804 1.0
C      1  0.4926994225583  0.4173017206095  0.3284385747549 1.0
C      1  0.5073005805309  0.5826982755121  0.6715614237691 1.0
C      1  0.2948859617994  0.6610290649386  0.5529490237770 1.0
C      1  0.7051140469786  0.3389709434529  0.4470509740139 1.0
C      1  0.3455511798864  0.5673810107671  0.6674777391874 1.0
C      1  0.6544488184880  0.4326189877968  0.3325222644319 1.0
C      1  0.6412827615658  0.2829856083887  0.4518109688866 1.0
C      1  0.3587172350710  0.7170143898426  0.5481890301059 1.0
C      1  0.5229949655612  0.5092818194707  0.3104813590311 1.0
C      1  0.4770050370870  0.4907181818050  0.6895186381178 1.0
C      1  0.5914126632562  0.4431444587953  0.5632102398774 1.0
C      1  0.4085873325395  0.5568555390858  0.4367897620332 1.0
C      1  0.5064174421283  0.3905978670869  0.4274151040621 1.0
C      1  0.4935825579900  0.6094021292422  0.5725848982168 1.0
C      1  0.3610785787785  0.3059990682318  0.4778482881971 1.0
C      1  0.6389214256308  0.6940009288528  0.5221517110721 1.0
C      1  0.4763876695113  0.5423927378952  0.5071376905702 1.0
C      1  0.5236123286298  0.4576072606048  0.4928623073672 1.0
C      1  0.2398849063765  0.4241451431582  0.5623994726365 1.0
C      1  0.7601150904656  0.5758548487117  0.4376005318732 1.0
C      1  0.5512389218469  0.3614526000206  0.7371369850061 1.0
C      1  0.4487610795588  0.6385474037089  0.2628630141244 1.0
C      1  0.2549931283317  0.3316984097059  0.5825596222037 1.0
C      1  0.7450068642249  0.6683015978054  0.4174403840217 1.0
C      1  0.3981269267187  0.4471999496805  0.2924802935185 1.0
C      1  0.6018730729291  0.5528000532712  0.7075197054125 1.0
C      1  0.7088561430528  0.4255409710709  0.4139830577310 1.0
C      1  0.2911438553925  0.5744590280992  0.5860169418280 1.0
C      1  0.6610163974150  0.5665051355495  0.6342623057269 1.0
C      1  0.3389836014960  0.4334948662052  0.3657376930286 1.0
C      1  0.4911660435102  0.3377480381880  0.6701842110895 1.0
C      1  0.5088339577437  0.6622519655447  0.3298157861390 1.0
C      1  0.5359965881065  0.4204352292250  0.6386226190561 1.0
C      1  0.4640034072516  0.5795647652940  0.3613773803364 1.0
C      1  0.6535164282885  0.7021318134907  0.4298672790586 1.0
C      1  0.3464835693364  0.2978681885367  0.5701327221101 1.0
C      1  0.3960656400328  0.3257690140288  0.6493276709941 1.0
C      1  0.6039343584341  0.6742309899469  0.3506723360521 1.0
C      1  0.6594870379952  0.6517014659692  0.5914442189094 1.0
C      1  0.3405129633514  0.3482985366830  0.4085557817645 1.0
C      1  0.2789347931261  0.4978147495664  0.5222624165495 1.0
C      1  0.7210652126607  0.5021852571182  0.4777375800648 1.0
C      1  0.5663315648668  0.3165106421394  0.4088638553328 1.0
C      1  0.4336684350518  0.6834893566732  0.5911361416208 1.0
C      1  0.4189320398398  0.6329375478167  0.6724655758143 1.0
C      1  0.5810679606420  0.3670624490512  0.3275344207016 1.0
C      1  0.3405652124584  0.3972101446919  0.6902845886900 1.0
C      1  0.6594347947362  0.6027898559842  0.3097154123646 1.0
END
