TITL C-26020-3455-10 -3.92 3375.00 -662.58813018 0 0 81 (C1) n - 1
REM
REM Run started: at 2021.01.04 07:32:15 in /gpfs/home/chem/mssmkc/CARBON/AIRSS/Generating-Clusters/Str-Search/Higher-Symm/C4-100
REM VASP from code version vasp.5.4.4.18Apr17-6-g9f103f2a35 (build Oct 11 2019 16:45:47) gamma-only
REM
REM
REM
REM
REM ./C.cell (6bd13a13d554368a30d355f37ece5b26)
REM AIRSS Version 0.9.1 bugfix July 2018 build 013d7b7c2542+ Fri, 06 Jul 2018 19:26:36 +0100
REM compiler GCC version 6.3.0
REM options -cpp -iprefix /gpfs/warwick/csc/orac/software/Core/GCCcore/6.3.0/bin/../lib/gcc/x86_64-pc-linux-gnu/6.3.0/ -mtune=generic -march=x86-64 -g -O0
REM seed 1483541163 -1141042167 -954590471 -1445921251 -1133653225 -1145176385 1808580089 -6214347 1559171210 -1945258009 -1119442814 -1611489792
REM
REM C.POTCAR (d86ddea03c3ceb6dc662c8ad6801f873)
REM 
CELL 1.54180   15.00000   15.00000   15.00000   90.00000   90.00000   90.00000
LATT -1
SFAC C  
C      1  0.5342396353742  0.6313368831352  0.7079345524516 1.0
C      1  0.4232451238027  0.4042483570061  0.7957640293525 1.0
C      1  0.3125940528566  0.6656923936297  0.5226799313439 1.0
C      1  0.5452674764698  0.4702992528476  0.2827494227860 1.0
C      1  0.2958903150146  0.2598702568302  0.4380530285227 1.0
C      1  0.3907040071851  0.7059934929676  0.3801795515922 1.0
C      1  0.3882948732976  0.5453109341955  0.2871241853137 1.0
C      1  0.6277678988205  0.6143190319301  0.2550586679108 1.0
C      1  0.4525196374940  0.7657396656709  0.6650256638064 1.0
C      1  0.7666681120511  0.6206822457581  0.4197892423939 1.0
C      1  0.4364482189423  0.6212948670342  0.7179901508656 1.0
C      1  0.8462718945972  0.5668290814618  0.4213573280629 1.0
C      1  0.5575422847601  0.7385237532444  0.4448268270169 1.0
C      1  0.5695933165076  0.3803571362961  0.2417796903874 1.0
C      1  0.5446267140973  0.2143729285362  0.3892555889605 1.0
C      1  0.5921236139013  0.2214212639063  0.4709442380867 1.0
C      1  0.4471477298415  0.2350030204935  0.3836626870761 1.0
C      1  0.5118483592167  0.3087057365310  0.2685849184603 1.0
C      1  0.4911263748633  0.2315390345403  0.6196582194113 1.0
C      1  0.2993567944456  0.5262005793603  0.3248245063152 1.0
C      1  0.3154658700316  0.6767888751361  0.3310962962736 1.0
C      1  0.3980832146918  0.6426104981501  0.2820807513999 1.0
C      1  0.2944354239351  0.4389822034988  0.3558263530537 1.0
C      1  0.6638594219389  0.2893847946411  0.5039179704544 1.0
C      1  0.3803188449200  0.3315706030144  0.6550520047093 1.0
C      1  0.2505382089618  0.5145394861038  0.5055203698292 1.0
C      1  0.6037027501133  0.5697888154575  0.6780973509766 1.0
C      1  0.6002294240705  0.5054031586229  0.4591879357294 1.0
C      1  0.4376599243440  0.3121016423570  0.3263695933705 1.0
C      1  0.3096767547816  0.5655506089883  0.6529390830719 1.0
C      1  0.7813503713873  0.5646684824635  0.4902967296427 1.0
C      1  0.4794951176265  0.4737807018416  0.5723209137822 1.0
C      1  0.4587753962167  0.8133933765593  0.5581010672580 1.0
C      1  0.3939442314105  0.4006538169084  0.3513475953065 1.0
C      1  0.3309919061918  0.3157801707493  0.5806443910226 1.0
C      1  0.3682238395180  0.4149630359664  0.4577105641026 1.0
C      1  0.6092564639798  0.7459398037214  0.6241055757993 1.0
C      1  0.5431567057242  0.7234242547143  0.6811601369333 1.0
C      1  0.5649545969145  0.2136042672193  0.5627571088995 1.0
C      1  0.4314190573914  0.8546926766199  0.6291614079058 1.0
C      1  0.7292925894804  0.5267903631944  0.5661072841440 1.0
C      1  0.4639050890719  0.7037709824670  0.3180125324510 1.0
C      1  0.6350484707238  0.6783121599173  0.3226420688005 1.0
C      1  0.6534804322832  0.3884470448762  0.3751511456254 1.0
C      1  0.5046771064435  0.4407779565618  0.6527962146873 1.0
C      1  0.5911396348824  0.4707183579799  0.6871654495124 1.0
C      1  0.5838586129913  0.5476840952773  0.2354417085692 1.0
C      1  0.3038887718080  0.5004803329734  0.5842138136312 1.0
C      1  0.3660542015683  0.2161443098141  0.4244051453922 1.0
C      1  0.5994488094627  0.4654429933661  0.3719193123099 1.0
C      1  0.6848256220852  0.3732354899309  0.4657483527899 1.0
C      1  0.3929531844104  0.6929316886388  0.6712247911828 1.0
C      1  0.4390921310818  0.5780487578442  0.4886832267689 1.0
C      1  0.6667948785232  0.5985354769752  0.6099094752569 1.0
C      1  0.6524532751944  0.4014402128302  0.7012178741262 1.0
C      1  0.3858755305693  0.4769407056918  0.7771280081578 1.0
C      1  0.4043893448279  0.6759336025136  0.4740305478965 1.0
C      1  0.6175745034928  0.3130627653202  0.6755990574552 1.0
C      1  0.2634442403908  0.4307912878062  0.4503802372608 1.0
C      1  0.5255872253257  0.2936371277770  0.6876018233456 1.0
C      1  0.5506923358262  0.7143410332254  0.3511524794545 1.0
C      1  0.5197380149583  0.5352526969904  0.5057166229410 1.0
C      1  0.2582666867277  0.6017669700156  0.4688980272755 1.0
C      1  0.4454135977542  0.4750433643933  0.3034471276957 1.0
C      1  0.6701232665547  0.4617705415661  0.5092549048042 1.0
C      1  0.7806428546007  0.4823807401538  0.6397486797285 1.0
C      1  0.3999294942810  0.2539750418765  0.6063150239588 1.0
C      1  0.3204742463151  0.6564099829592  0.6171943176940 1.0
C      1  0.6549571035593  0.6858233291941  0.5703550927432 1.0
C      1  0.4574829962135  0.3676107259960  0.7069360134322 1.0
C      1  0.6397998441240  0.2668961819196  0.5958004949752 1.0
C      1  0.4760348789668  0.7491135333823  0.4955028924333 1.0
C      1  0.6925074288100  0.6755868041608  0.3991786111134 1.0
C      1  0.3723010067516  0.5520567437303  0.7272875667356 1.0
C      1  0.6293089993411  0.3333712333513  0.3027308712078 1.0
C      1  0.2976539145420  0.3433071482521  0.4897487120247 1.0
C      1  0.6430556998083  0.7083508740552  0.4750156135196 1.0
C      1  0.7410425998897  0.4291205121418  0.6893206217182 1.0
C      1  0.5796732855180  0.2502351780984  0.3086502809502 1.0
C      1  0.2680262544222  0.6057365566918  0.3711710834140 1.0
C      1  0.3902774787305  0.4833636079823  0.5322611631791 1.0
END
