TITL C-26050-5264-23 -1.288 3375.00 -197.76772889 0 0 25 (C1) n - 1
REM
REM Run started: at 2020.12.01 02:44:16 in /rds/project/t2_vol4/rds-t2-cs072/BORA/CARBON/AIRSS/Generating-Clusters/Str-Search/Higher-Symm/C10-100
REM VASP from code version vasp.5.4.4.18Apr17-6-g9f103f2a35 (build Oct 11 2019 16:45:47) gamma-only
REM
REM
REM
REM
REM ./C.cell (f39ce9773e2efe3fa5bbdf770a4156b8)
REM AIRSS Version 0.9.1 bugfix July 2018 build 013d7b7c2542+ Fri, 06 Jul 2018 19:26:36 +0100
REM compiler GCC version 4.8.5 20150623 (Red Hat 4.8.5-39)
REM options -cpp -mtune=generic -march=x86-64 -g -O0
REM seed 1913504776 275516095 145563683 -956395686 1018688789 1267016009 1547147657 864088677 -633244919 468372558 -1999058528 555402049
REM
REM C.POTCAR (d86ddea03c3ceb6dc662c8ad6801f873)
REM 
CELL 1.54180   15.00000   15.00000   15.00000   90.00000   90.00000   90.00000
LATT -1
SFAC C  
C      1  0.3041628131001  0.5281867807864  0.4196186246559 1.0
C      1  0.4028036422778  0.3124235895367  0.4518323399310 1.0
C      1  0.6355126364342  0.3595102585866  0.4222814738524 1.0
C      1  0.6948862679571  0.5965075499659  0.4388549356101 1.0
C      1  0.4755535880789  0.6931653995173  0.4518914934235 1.0
C      1  0.4002435531363  0.6471822819060  0.4814038319380 1.0
C      1  0.2984803048609  0.4440226040103  0.4600458194869 1.0
C      1  0.4871490819605  0.3285447211698  0.4893106315116 1.0
C      1  0.6903962990206  0.4281464719446  0.4536492788788 1.0
C      1  0.6256534406074  0.6429371829985  0.4825238706810 1.0
C      1  0.5926837975055  0.6024983574114  0.5673603788220 1.0
C      1  0.4190411574672  0.6086362191584  0.5725785993493 1.0
C      1  0.3287049418029  0.4587920551050  0.5522540462162 1.0
C      1  0.4901659935360  0.3897152837046  0.5682530038626 1.0
C      1  0.6584201304450  0.4409336188038  0.5456963909240 1.0
C      1  0.3415073017385  0.3667680704569  0.4331698171953 1.0
C      1  0.5700611598309  0.3134052443627  0.4475140106038 1.0
C      1  0.7053553291074  0.5147789318046  0.4222225532654 1.0
C      1  0.5592447147233  0.7001288551100  0.4486455664171 1.0
C      1  0.3332995884182  0.6058397510394  0.4299008233339 1.0
C      1  0.3747034054219  0.5261905033754  0.5988971700459 1.0
C      1  0.4114215072628  0.4372048855925  0.5916799745523 1.0
C      1  0.5752012180744  0.4272166810496  0.5880909449418 1.0
C      1  0.6186596347544  0.5123070238102  0.5875982603018 1.0
C      1  0.5066884924777  0.6149576787933  0.5947261601993 1.0
END
