TITL C-26020-3455-85 -3.399 3375.00 -581.02719804 0 0 70 (C1) n - 1
REM
REM Run started: at 2021.01.04 20:59:07 in /gpfs/home/chem/mssmkc/CARBON/AIRSS/Generating-Clusters/Str-Search/Higher-Symm/C4-100
REM VASP from code version vasp.5.4.4.18Apr17-6-g9f103f2a35 (build Oct 11 2019 16:45:47) gamma-only
REM
REM
REM
REM
REM ./C.cell (6bd13a13d554368a30d355f37ece5b26)
REM AIRSS Version 0.9.1 bugfix July 2018 build 013d7b7c2542+ Fri, 06 Jul 2018 19:26:36 +0100
REM compiler GCC version 6.3.0
REM options -cpp -iprefix /gpfs/warwick/csc/orac/software/Core/GCCcore/6.3.0/bin/../lib/gcc/x86_64-pc-linux-gnu/6.3.0/ -mtune=generic -march=x86-64 -g -O0
REM seed -2044138840 -1585292757 -1822636217 2107700145 -1020937197 1545019703 260277713 807571584 -273546471 -1429468775 -1770147276 -1909377058
REM
REM C.POTCAR (d86ddea03c3ceb6dc662c8ad6801f873)
REM 
CELL 1.54180   15.00000   15.00000   15.00000   90.00000   90.00000   90.00000
LATT -1
SFAC C  
C      1  0.6694009105152  0.5685353373557  0.7122762365399 1.0
C      1  0.3500670545873  0.6022454907550  0.7076425172109 1.0
C      1  0.4790922338039  0.3143202087469  0.7063767154050 1.0
C      1  0.6055194077544  0.3046564248847  0.6523874772046 1.0
C      1  0.6142012766842  0.6787113774913  0.6568979164947 1.0
C      1  0.2718138206021  0.5003013326876  0.6617912346545 1.0
C      1  0.5706275030004  0.5641983667702  0.3070572426173 1.0
C      1  0.4206166194892  0.5113333544216  0.3332620382671 1.0
C      1  0.5332552137980  0.3996060440006  0.3019387461754 1.0
C      1  0.5781833224992  0.4387597098303  0.7515611002012 1.0
C      1  0.5083335035174  0.5908885554210  0.7521050643144 1.0
C      1  0.4108232837282  0.4559621590322  0.7534953793681 1.0
C      1  0.6560216440072  0.5331703572048  0.3167818863552 1.0
C      1  0.3927411251438  0.6037931217477  0.3234935890249 1.0
C      1  0.4634454407276  0.3424501155737  0.3150259565387 1.0
C      1  0.3629145538311  0.2825962099144  0.3926418407998 1.0
C      1  0.7538661078062  0.4680065887794  0.3939157012711 1.0
C      1  0.3933025292439  0.7215032727160  0.3964722368447 1.0
C      1  0.2845039650858  0.4865635327320  0.4308506874794 1.0
C      1  0.6132416379235  0.3268050012066  0.4319466638820 1.0
C      1  0.6050263459061  0.6687475336285  0.4369885044837 1.0
C      1  0.4060962443182  0.3713655609076  0.7057455893413 1.0
C      1  0.6583009805598  0.4766542637444  0.7102881455225 1.0
C      1  0.4365748173596  0.6362797350460  0.7029981167407 1.0
C      1  0.4218318573197  0.3692889655635  0.5462018781146 1.0
C      1  0.7307966625798  0.4877544531121  0.5611651403344 1.0
C      1  0.4080055302465  0.6312828172089  0.5451021785205 1.0
C      1  0.5939415473237  0.6250260179608  0.7345162487072 1.0
C      1  0.3369126154541  0.5121896599592  0.7355269166754 1.0
C      1  0.5655161650231  0.3481856840005  0.7312848770087 1.0
C      1  0.3341952450693  0.6403286154126  0.3896576147618 1.0
C      1  0.4619809442226  0.2754226973750  0.3865842401935 1.0
C      1  0.7130614726376  0.5592986873026  0.3893939783719 1.0
C      1  0.2474275383491  0.3375474597043  0.4749594331268 1.0
C      1  0.7395702461838  0.4248796430356  0.4862715142724 1.0
C      1  0.5085719966724  0.7956044027307  0.4716287731847 1.0
C      1  0.5489450264579  0.6449467320754  0.3567672544190 1.0
C      1  0.3413438961790  0.4500019782440  0.3562041725727 1.0
C      1  0.6169479856376  0.3782068682845  0.3456462716669 1.0
C      1  0.6920834055291  0.6228839150903  0.6337297921704 1.0
C      1  0.2837455379693  0.5937257716156  0.6338653303935 1.0
C      1  0.5166296172634  0.2706312721546  0.6269455761747 1.0
C      1  0.6656076730766  0.3499978296561  0.5978550869511 1.0
C      1  0.5490498676844  0.7022988362340  0.5950485508890 1.0
C      1  0.2834317964800  0.4310984356564  0.5994461209262 1.0
C      1  0.6826496545464  0.6120089302095  0.4599186148443 1.0
C      1  0.2936055395087  0.5808905929188  0.4530921064670 1.0
C      1  0.5275422435459  0.2849631625050  0.4533774106768 1.0
C      1  0.8281327090204  0.4210053769300  0.4364342045819 1.0
C      1  0.4266418131206  0.7881258631783  0.4482668631655 1.0
C      1  0.2872115969239  0.2700272580109  0.4429453109458 1.0
C      1  0.7122987167740  0.5823557481174  0.5513871157069 1.0
C      1  0.3136027629459  0.6121297398075  0.5465697594682 1.0
C      1  0.4864175901152  0.2968621280716  0.5424797298798 1.0
C      1  0.3701899548600  0.3620446610912  0.3366473539635 1.0
C      1  0.6839761064962  0.4403246849807  0.3289916928413 1.0
C      1  0.4573572449476  0.6716893059156  0.3414066600568 1.0
C      1  0.3596508849695  0.3784416201769  0.6204474566786 1.0
C      1  0.6976129585883  0.4347662662509  0.6333510585380 1.0
C      1  0.4616544190736  0.6720254071474  0.6163092147557 1.0
C      1  0.2560269702226  0.4240424850886  0.5024073008665 1.0
C      1  0.6746496024985  0.3521375553734  0.5002773045098 1.0
C      1  0.5658964370366  0.7302170643610  0.5016159918022 1.0
C      1  0.4991556712935  0.4951712623664  0.7680592178581 1.0
C      1  0.5032387223523  0.4937239587746  0.2703176108788 1.0
C      1  0.4447426460945  0.4518188025382  0.5033583059335 1.0
C      1  0.4887045709510  0.4992012089884  0.1745989001306 1.0
C      1  0.4637978239649  0.5041419090838  0.4269463113562 1.0
C      1  0.4485116373535  0.5495840080251  0.5053613502474 1.0
C      1  0.4841191535451  0.5031348031139  0.0912495176743 1.0
END
