TITL C-26020-3455-39 -4.021 3375.00 -677.21264404 0 0 80 (C1) n - 1
REM
REM Run started: at 2021.01.04 12:42:11 in /gpfs/home/chem/mssmkc/CARBON/AIRSS/Generating-Clusters/Str-Search/Higher-Symm/C4-100
REM VASP from code version vasp.5.4.4.18Apr17-6-g9f103f2a35 (build Oct 11 2019 16:45:47) gamma-only
REM
REM
REM
REM
REM ./C.cell (6bd13a13d554368a30d355f37ece5b26)
REM AIRSS Version 0.9.1 bugfix July 2018 build 013d7b7c2542+ Fri, 06 Jul 2018 19:26:36 +0100
REM compiler GCC version 6.3.0
REM options -cpp -iprefix /gpfs/warwick/csc/orac/software/Core/GCCcore/6.3.0/bin/../lib/gcc/x86_64-pc-linux-gnu/6.3.0/ -mtune=generic -march=x86-64 -g -O0
REM seed -1554960 -1114774529 -1096577820 325454595 1545768948 -1664878608 2072077478 -290696614 1254992732 -1664243132 318604977 137669693
REM
REM C.POTCAR (d86ddea03c3ceb6dc662c8ad6801f873)
REM 
CELL 1.54180   15.00000   15.00000   15.00000   90.00000   90.00000   90.00000
LATT -1
SFAC C  
C      1  0.3124444337400  0.4359370947719  0.2410824599601 1.0
C      1  0.3182335987649  0.5837351193717  0.2513839758821 1.0
C      1  0.3380498086652  0.6992333590925  0.3414678360966 1.0
C      1  0.3619851431520  0.7376561948368  0.4806149271899 1.0
C      1  0.3606922236667  0.7156278119884  0.6225547865295 1.0
C      1  0.3500612886826  0.6239657123543  0.7361561249629 1.0
C      1  0.3549377543109  0.4797259040807  0.7631770933055 1.0
C      1  0.3662483794701  0.3463922029049  0.7005347581742 1.0
C      1  0.3587056893589  0.2544093917982  0.5873637071701 1.0
C      1  0.3429568031942  0.2400974204453  0.4420140943010 1.0
C      1  0.3216804041102  0.3050621069822  0.3108755470913 1.0
C      1  0.2894297624454  0.3230068917884  0.4645418706394 1.0
C      1  0.2779502082992  0.3682137188513  0.3781130077927 1.0
C      1  0.2724445254406  0.4548192847656  0.3301225464528 1.0
C      1  0.2757381804937  0.5544440521949  0.3374020959127 1.0
C      1  0.2861709686720  0.6313139356437  0.3972409262682 1.0
C      1  0.2983141892154  0.6613936442264  0.4900213915001 1.0
C      1  0.2995405236899  0.6443534105323  0.5868227263141 1.0
C      1  0.2965809880778  0.5793712679190  0.6601243445764 1.0
C      1  0.2979898452666  0.4845687618062  0.6803413344474 1.0
C      1  0.3032883747880  0.3920266882664  0.6409715048089 1.0
C      1  0.2989409025743  0.3318969042428  0.5626149179104 1.0
C      1  0.7428776937865  0.5569797823246  0.6312704414036 1.0
C      1  0.6877876780965  0.4936467007772  0.6779612720466 1.0
C      1  0.7264168838064  0.4276637467024  0.6146016036798 1.0
C      1  0.7005633321587  0.3649514399233  0.5460650921000 1.0
C      1  0.7575033277478  0.3755138156672  0.4731628717435 1.0
C      1  0.8024092124880  0.4193207829474  0.4178513236867 1.0
C      1  0.8227073337007  0.5019751950753  0.3924415776550 1.0
C      1  0.8254335186806  0.5852009038209  0.4033978073895 1.0
C      1  0.7950394243792  0.6452995166103  0.4618127480991 1.0
C      1  0.7535854391904  0.6748775468032  0.5281367382959 1.0
C      1  0.7138989679394  0.6463291833916  0.6085467535758 1.0
C      1  0.5035512010615  0.3040894578546  0.2860567033429 1.0
C      1  0.4930253854814  0.4316555426553  0.2098444559361 1.0
C      1  0.4988486343442  0.5807204291124  0.2180299427872 1.0
C      1  0.5202948682400  0.6945585969401  0.3149455503072 1.0
C      1  0.5403415410922  0.7182969051435  0.4678690937926 1.0
C      1  0.5521695015008  0.7245416509747  0.6401589507461 1.0
C      1  0.5320764896326  0.6460337970302  0.7740406573654 1.0
C      1  0.5451607446371  0.4935625138615  0.7819491456191 1.0
C      1  0.5350598948270  0.3733279278001  0.6686707268906 1.0
C      1  0.5468663617819  0.2550648745557  0.5694087732784 1.0
C      1  0.5235029433169  0.2425744729113  0.4194298334733 1.0
C      1  0.5108458756846  0.7437293585308  0.5567410003518 1.0
C      1  0.4912340877352  0.7087473843272  0.7168723170519 1.0
C      1  0.4870033511312  0.5684343028265  0.8053890158969 1.0
C      1  0.5040797490738  0.4169897956596  0.7496644000362 1.0
C      1  0.5048800830404  0.2834905071380  0.6479938626375 1.0
C      1  0.4936382619176  0.2139644844357  0.5039289609928 1.0
C      1  0.4691524133163  0.2379085619682  0.3410912817837 1.0
C      1  0.4504086162619  0.3500409702314  0.2227957668155 1.0
C      1  0.4470631444442  0.5098356236795  0.1848553963985 1.0
C      1  0.4628385819430  0.6629306399263  0.2450810015395 1.0
C      1  0.4905742026793  0.7450991923312  0.3883736571751 1.0
C      1  0.5647967777030  0.5460534123746  0.2861637761189 1.0
C      1  0.5754775696604  0.6205662807872  0.3462202709533 1.0
C      1  0.5805639548450  0.6328080034664  0.4427408616192 1.0
C      1  0.6368651857983  0.6751682517264  0.6587773884527 1.0
C      1  0.6170401824032  0.6221277770164  0.7359367257851 1.0
C      1  0.6286110945874  0.5273364925203  0.7430107673682 1.0
C      1  0.5586315998256  0.4101789713737  0.5840282165148 1.0
C      1  0.6019594418119  0.3346271418348  0.5258561979837 1.0
C      1  0.5782008939507  0.3220849373120  0.4226145050336 1.0
C      1  0.5670639789902  0.3655618677916  0.3346803917142 1.0
C      1  0.5613660826426  0.4493135440429  0.2827159952471 1.0
C      1  0.3963292615028  0.2124602322315  0.5134237812918 1.0
C      1  0.3732977369946  0.2399161553971  0.3541971490973 1.0
C      1  0.3544961583694  0.3513779669911  0.2377910872905 1.0
C      1  0.3514410643170  0.5115342351717  0.2021635309940 1.0
C      1  0.3671695905305  0.6639683725277  0.2608655365214 1.0
C      1  0.3948294925717  0.7510381086004  0.3956355075338 1.0
C      1  0.4133129945224  0.7533327236517  0.5566847477795 1.0
C      1  0.3965833881885  0.6993939640357  0.7062248693006 1.0
C      1  0.3924051562649  0.5612565867358  0.7903487927963 1.0
C      1  0.4088157499207  0.4043583327121  0.7601411189326 1.0
C      1  0.4101647312365  0.2730022069382  0.6627640190552 1.0
C      1  0.8064075900437  0.4870094293356  0.6108030056769 1.0
C      1  0.5782114987997  0.5600283160174  0.4995313170432 1.0
C      1  0.5626098833234  0.4948408066066  0.5482387387165 1.0
END
