TITL C-26050-5264-7 -1.007 3375.00 -148.42264551 0 0 19 (C1) n - 1
REM
REM Run started: at 2020.11.30 22:38:58 in /rds/project/t2_vol4/rds-t2-cs072/BORA/CARBON/AIRSS/Generating-Clusters/Str-Search/Higher-Symm/C10-100
REM VASP from code version vasp.5.4.4.18Apr17-6-g9f103f2a35 (build Oct 11 2019 16:45:47) gamma-only
REM
REM
REM
REM
REM ./C.cell (f39ce9773e2efe3fa5bbdf770a4156b8)
REM AIRSS Version 0.9.1 bugfix July 2018 build 013d7b7c2542+ Fri, 06 Jul 2018 19:26:36 +0100
REM compiler GCC version 4.8.5 20150623 (Red Hat 4.8.5-39)
REM options -cpp -mtune=generic -march=x86-64 -g -O0
REM seed -178368477 -888984376 9476583 -800549154 -1724285569 722928644 -1113884279 1446305095 -91540544 94605511 -1904201751 840430178
REM
REM C.POTCAR (d86ddea03c3ceb6dc662c8ad6801f873)
REM 
CELL 1.54180   15.00000   15.00000   15.00000   90.00000   90.00000   90.00000
LATT -1
SFAC C  
C      1  0.4845349041685  0.6452532587934  0.4556890286092 1.0
C      1  0.4832644091327  0.3139131024321  0.4678674626484 1.0
C      1  0.5635484797464  0.6804615370256  0.4543765011794 1.0
C      1  0.4110076027030  0.2644867611731  0.4531830092520 1.0
C      1  0.6634565305216  0.4876022561301  0.4928003641050 1.0
C      1  0.2968448097685  0.4943480045951  0.4853209882297 1.0
C      1  0.7094735519569  0.5562092648846  0.5056574059851 1.0
C      1  0.2593702208559  0.4165000674478  0.4684068241086 1.0
C      1  0.6427249461546  0.7070418725218  0.4802444012788 1.0
C      1  0.3282684836884  0.2806722252692  0.4500679402822 1.0
C      1  0.4532246996937  0.5710193323131  0.5006611230898 1.0
C      1  0.5382192270955  0.3748018926938  0.4838560426775 1.0
C      1  0.6771547989714  0.6405862596603  0.5366716166443 1.0
C      1  0.2566519847776  0.3330199842095  0.4537208900730 1.0
C      1  0.5771780374794  0.4521276776872  0.5125418409014 1.0
C      1  0.3668730423826  0.5388263998140  0.4958688519348 1.0
C      1  0.5237820540658  0.5231890568607  0.5594629003520 1.0
C      1  0.6402111744926  0.6267347644483  0.6248016239176 1.0
C      1  0.5700304423450  0.5788642820403  0.6149821847314 1.0
END
