TITL C-26020-3455-67 -2.271 3375.00 -377.37712930 0 0 47 (C1) n - 1
REM
REM Run started: at 2021.01.04 17:20:41 in /gpfs/home/chem/mssmkc/CARBON/AIRSS/Generating-Clusters/Str-Search/Higher-Symm/C4-100
REM VASP from code version vasp.5.4.4.18Apr17-6-g9f103f2a35 (build Oct 11 2019 16:45:47) gamma-only
REM
REM
REM
REM
REM ./C.cell (6bd13a13d554368a30d355f37ece5b26)
REM AIRSS Version 0.9.1 bugfix July 2018 build 013d7b7c2542+ Fri, 06 Jul 2018 19:26:36 +0100
REM compiler GCC version 6.3.0
REM options -cpp -iprefix /gpfs/warwick/csc/orac/software/Core/GCCcore/6.3.0/bin/../lib/gcc/x86_64-pc-linux-gnu/6.3.0/ -mtune=generic -march=x86-64 -g -O0
REM seed -966627538 -1482303491 982854639 -2112208715 723481407 1021836049 408988440 1456541879 -697598038 1931147553 107915417 1261877337
REM
REM C.POTCAR (d86ddea03c3ceb6dc662c8ad6801f873)
REM 
CELL 1.54180   15.00000   15.00000   15.00000   90.00000   90.00000   90.00000
LATT -1
SFAC C  
C      1  0.4191485259509  0.7222806512522  0.5411512640700 1.0
C      1  0.4225205738391  0.5717570792163  0.3005016385970 1.0
C      1  0.3481995184655  0.6531418849172  0.5179396728591 1.0
C      1  0.4418255766656  0.3025306439015  0.5761728332632 1.0
C      1  0.4983966194420  0.4195057179884  0.4725338534897 1.0
C      1  0.5408314781110  0.7165612136468  0.4275768241338 1.0
C      1  0.6533808391029  0.4236050929676  0.5522339754206 1.0
C      1  0.5306461582891  0.4965687378246  0.4198957624615 1.0
C      1  0.6150130340023  0.6826457791480  0.6254002732216 1.0
C      1  0.5359234428979  0.6601077509659  0.6663213844542 1.0
C      1  0.3130568125036  0.4189569211782  0.4042006311080 1.0
C      1  0.4476196958287  0.6915160698110  0.6328341027821 1.0
C      1  0.4480510457003  0.3435658606078  0.4111451802548 1.0
C      1  0.4872888351427  0.5045841235109  0.2828675975831 1.0
C      1  0.6751777385067  0.6563476983047  0.5717602243896 1.0
C      1  0.3944026884907  0.3061586080465  0.4921262575760 1.0
C      1  0.6932488785874  0.4518561972794  0.4685020263154 1.0
C      1  0.5788430128474  0.4965727080262  0.3285369322704 1.0
C      1  0.3004883277001  0.5009685069662  0.4588605695654 1.0
C      1  0.3835511580972  0.3927400179548  0.3512442013976 1.0
C      1  0.5304004990782  0.5738038220570  0.4657951365287 1.0
C      1  0.5986865962983  0.6378186420031  0.4255905014137 1.0
C      1  0.6466476873534  0.3824536541896  0.4206993026134 1.0
C      1  0.7012023447763  0.5431229729098  0.4353047063373 1.0
C      1  0.5446322554584  0.5705369484723  0.7068525601848 1.0
C      1  0.6002543810783  0.3958970544490  0.3395549514678 1.0
C      1  0.4512834654997  0.4717299189945  0.5484953939940 1.0
C      1  0.5153431221371  0.4808100652399  0.7293584240598 1.0
C      1  0.4135260610548  0.3669705690243  0.6459953216759 1.0
C      1  0.4536796847676  0.4154798305368  0.2898491297150 1.0
C      1  0.3286303877245  0.5920223774659  0.4425583364614 1.0
C      1  0.4751108798166  0.5580859600858  0.5435620302905 1.0
C      1  0.5170648948398  0.3530488320826  0.3277991708528 1.0
C      1  0.6784419745343  0.6223656280188  0.4876490005902 1.0
C      1  0.3729346678663  0.4447797792387  0.6044320879127 1.0
C      1  0.3679023450445  0.6003169982315  0.3562162118280 1.0
C      1  0.3066192272162  0.4390921996487  0.5377961366498 1.0
C      1  0.4840541715100  0.7504629398068  0.4774493697113 1.0
C      1  0.6324942670127  0.4271269654755  0.6428132827768 1.0
C      1  0.3144302122462  0.3584036786856  0.4839864633720 1.0
C      1  0.5871416672401  0.3621573868472  0.5055117108939 1.0
C      1  0.6430562288182  0.5668813396057  0.3613995770463 1.0
C      1  0.5649020945949  0.3563093494586  0.6558004880343 1.0
C      1  0.5405902275601  0.3067581726178  0.5783912108915 1.0
C      1  0.4104553471355  0.6195960614663  0.5821968786318 1.0
C      1  0.4882846205425  0.3927274312158  0.7021275951142 1.0
C      1  0.6046166286246  0.4992706586584  0.7010100157391 1.0
END
