TITL C-26050-5264-5 -2.038 3375.00 -341.89789742 0 0 41 (Cs) n - 1
REM
REM Run started: at 2020.11.30 22:20:00 in /rds/project/t2_vol4/rds-t2-cs072/BORA/CARBON/AIRSS/Generating-Clusters/Str-Search/Higher-Symm/C10-100
REM VASP from code version vasp.5.4.4.18Apr17-6-g9f103f2a35 (build Oct 11 2019 16:45:47) gamma-only
REM
REM
REM
REM
REM ./C.cell (f39ce9773e2efe3fa5bbdf770a4156b8)
REM AIRSS Version 0.9.1 bugfix July 2018 build 013d7b7c2542+ Fri, 06 Jul 2018 19:26:36 +0100
REM compiler GCC version 4.8.5 20150623 (Red Hat 4.8.5-39)
REM options -cpp -mtune=generic -march=x86-64 -g -O0
REM seed 1014165930 573940868 885807750 668477872 -113045766 -1959026351 105138689 -1908996671 -1284678451 -895815661 -9063609 1322712533
REM
REM C.POTCAR (d86ddea03c3ceb6dc662c8ad6801f873)
REM 
CELL 1.54180   15.00000   15.00000   15.00000   90.00000   90.00000   90.00000
LATT -1
SFAC C  
C      1  0.4364683040975  0.6411897746927  0.5731084688564 1.0
C      1  0.5932983088257  0.6409674490994  0.5193811999108 1.0
C      1  0.4682395269972  0.6411944005263  0.4101822363646 1.0
C      1  0.4364162713485  0.3672107493615  0.5729402150445 1.0
C      1  0.5931636412375  0.3676431044544  0.5192823864053 1.0
C      1  0.4682309841873  0.3671913796107  0.4101128772634 1.0
C      1  0.6976806327439  0.5526953110945  0.5901947918881 1.0
C      1  0.4773509080827  0.5525115346227  0.2850585885609 1.0
C      1  0.3234622478882  0.5528429808752  0.6281090275333 1.0
C      1  0.6977918384390  0.4552592714487  0.5902539263292 1.0
C      1  0.4773124229912  0.4554203869791  0.2848502077450 1.0
C      1  0.3232158030763  0.4549978081572  0.6281551921702 1.0
C      1  0.6233722740348  0.6095682120955  0.6070248444296 1.0
C      1  0.5294295469943  0.6101057612960  0.3402841625762 1.0
C      1  0.3458178396923  0.6091696034616  0.5554138282464 1.0
C      1  0.6232832438517  0.3986922663451  0.6069711653480 1.0
C      1  0.5294607498617  0.3981573329336  0.3402288412107 1.0
C      1  0.3457323670906  0.3990261831181  0.5552936555185 1.0
C      1  0.3841098318474  0.4553243661117  0.3167416496311 1.0
C      1  0.3973082727929  0.4552063773996  0.6924852605948 1.0
C      1  0.7167205400845  0.4551790822030  0.4938623034664 1.0
C      1  0.3842028128239  0.5525836249943  0.3169542697482 1.0
C      1  0.3974431591739  0.5526014919719  0.6924762072242 1.0
C      1  0.7165652041932  0.5529027461733  0.4938859332829 1.0
C      1  0.3769050991751  0.6100099264368  0.3924019777879 1.0
C      1  0.4666261487621  0.6092391824054  0.6603236953369 1.0
C      1  0.6538129183267  0.6086118312815  0.4499775243784 1.0
C      1  0.3768411084544  0.3981539474192  0.3922850775666 1.0
C      1  0.4665639915554  0.3989216998114  0.6601824054041 1.0
C      1  0.6537156071895  0.3999393040996  0.4499430616094 1.0
C      1  0.3185727519404  0.4214126735194  0.4658084062532 1.0
C      1  0.5589627008694  0.4214350362127  0.6748619615740 1.0
C      1  0.6204994484064  0.4218330142984  0.3624613967491 1.0
C      1  0.3185749047471  0.5869763449610  0.4659151894999 1.0
C      1  0.5590820229500  0.5869360735355  0.6749239254822 1.0
C      1  0.6205604108872  0.5868282153586  0.3624658477463 1.0
C      1  0.6414697377324  0.5042672564737  0.3253605235862 1.0
C      1  0.5745441802484  0.5040947717669  0.7139470098099 1.0
C      1  0.2793145717526  0.5041527348617  0.4524689866430 1.0
C      1  0.4992919155498  0.6544478733197  0.5006583964045 1.0
C      1  0.4992131490968  0.3542977152127  0.5005464748199 1.0
END
