TITL C-26050-5264-26 -3.237 3375.00 -551.22185551 0 0 66 (C2h) n - 1
REM
REM Run started: at 2020.12.01 03:51:46 in /rds/project/t2_vol4/rds-t2-cs072/BORA/CARBON/AIRSS/Generating-Clusters/Str-Search/Higher-Symm/C10-100
REM VASP from code version vasp.5.4.4.18Apr17-6-g9f103f2a35 (build Oct 11 2019 16:45:47) gamma-only
REM
REM
REM
REM
REM ./C.cell (f39ce9773e2efe3fa5bbdf770a4156b8)
REM AIRSS Version 0.9.1 bugfix July 2018 build 013d7b7c2542+ Fri, 06 Jul 2018 19:26:36 +0100
REM compiler GCC version 4.8.5 20150623 (Red Hat 4.8.5-39)
REM options -cpp -mtune=generic -march=x86-64 -g -O0
REM seed -1538446615 2033671729 -959692418 -1056043406 511764579 -1666904319 342316377 476374600 -345460677 801609207 -992463637 -1176734882
REM
REM C.POTCAR (d86ddea03c3ceb6dc662c8ad6801f873)
REM 
CELL 1.54180   15.00000   15.00000   15.00000   90.00000   90.00000   90.00000
LATT -1
SFAC C  
C      1  0.4540576979367  0.8057811946471  0.4001060380918 1.0
C      1  0.5459005571482  0.8058083157982  0.5998780695762 1.0
C      1  0.4540599165580  0.1941405568133  0.4001191746991 1.0
C      1  0.5459173921445  0.1941259509639  0.5999172458436 1.0
C      1  0.5486954729656  0.8014207787382  0.3995262643311 1.0
C      1  0.4512552321145  0.8014069367099  0.6004470613716 1.0
C      1  0.5487015714157  0.1984863603513  0.3995549699610 1.0
C      1  0.4512662145125  0.1985067876556  0.6004689561454 1.0
C      1  0.6780536907238  0.4515633228240  0.6194419974759 1.0
C      1  0.3219485960292  0.4515371465247  0.3805581988161 1.0
C      1  0.6780694113369  0.5483727402251  0.6194516721780 1.0
C      1  0.3219243344930  0.5483800512236  0.3805496601036 1.0
C      1  0.3262199973068  0.4522134414513  0.6071454769521 1.0
C      1  0.6737689763633  0.4522271791276  0.3928469694868 1.0
C      1  0.3262381442694  0.5476978219011  0.6071592900356 1.0
C      1  0.6737559324231  0.5476605542898  0.3928252787228 1.0
C      1  0.4037398101358  0.8687465273201  0.5481605197939 1.0
C      1  0.5962550239902  0.8687384945789  0.4517924136478 1.0
C      1  0.4037215879728  0.1311330551040  0.5482003637886 1.0
C      1  0.5962901562697  0.1311503008394  0.4518147699706 1.0
C      1  0.5829641162856  0.8609678742168  0.5336847143181 1.0
C      1  0.4170436774898  0.8609523794916  0.4662892112361 1.0
C      1  0.5829661908083  0.1389833821291  0.5337071102330 1.0
C      1  0.4170580713767  0.1389875043500  0.4663357974037 1.0
C      1  0.2992075275049  0.3909509287617  0.4462255791611 1.0
C      1  0.7007862837070  0.3909555268522  0.5537867179822 1.0
C      1  0.2991811163214  0.6089737279257  0.4462461357632 1.0
C      1  0.7008062720718  0.6089903844522  0.5537418144539 1.0
C      1  0.7006325138580  0.3908332672494  0.4548268487273 1.0
C      1  0.2993939432254  0.3908141685216  0.5451967908998 1.0
C      1  0.7006333169178  0.6091092923475  0.4548010102057 1.0
C      1  0.2993860957897  0.6091242547871  0.5452202825418 1.0
C      1  0.3394272710010  0.3021510924938  0.4472517234436 1.0
C      1  0.6605939495083  0.3021547375553  0.5527673598143 1.0
C      1  0.3394132973913  0.6977906402609  0.4472403174893 1.0
C      1  0.6605989558243  0.6977993430272  0.5527604727247 1.0
C      1  0.6570368655118  0.3053567988118  0.4541552294965 1.0
C      1  0.3429753278222  0.3053223959178  0.5458290308326 1.0
C      1  0.6570359797426  0.6945817280054  0.4541366131017 1.0
C      1  0.3429592525655  0.6946082099150  0.5458081487789 1.0
C      1  0.5897570129223  0.2848225879185  0.3899574049738 1.0
C      1  0.4102368775687  0.2848580714381  0.6100568756550 1.0
C      1  0.5897434779151  0.7150993180679  0.3899416101279 1.0
C      1  0.4102341268517  0.7150743161398  0.6100376780595 1.0
C      1  0.4070811881966  0.2765062760974  0.3862182137701 1.0
C      1  0.5929343269954  0.2765015993928  0.6138075893758 1.0
C      1  0.4070829506589  0.7234267185285  0.3861928305651 1.0
C      1  0.5929169891075  0.7234504782526  0.6137942527415 1.0
C      1  0.5432673914343  0.6385604520736  0.3451109299124 1.0
C      1  0.4567298211504  0.6385554854755  0.6548854336522 1.0
C      1  0.5432743071433  0.3613595845550  0.3451219972508 1.0
C      1  0.4567427794142  0.3613943558458  0.6548894867976 1.0
C      1  0.4478411585236  0.6508485013906  0.3367095407025 1.0
C      1  0.5521533623598  0.6508744568713  0.6632899026417 1.0
C      1  0.4478532514390  0.3490708252809  0.3367137783530 1.0
C      1  0.5521620418418  0.3490682092459  0.6633007040510 1.0
C      1  0.6064536247426  0.5746154412501  0.6825288744606 1.0
C      1  0.3935602614904  0.5746372195907  0.3174616478433 1.0
C      1  0.6064561918537  0.4253262617671  0.6825128224350 1.0
C      1  0.3935607099536  0.4252802111362  0.3174828966187 1.0
C      1  0.4091923981704  0.5530762280033  0.6572073976811 1.0
C      1  0.5908191941409  0.5530815983110  0.3427957648199 1.0
C      1  0.4091856645207  0.4468657895455  0.6572148244521 1.0
C      1  0.5908222396581  0.4468394781034  0.3427976918183 1.0
C      1  0.5741380994099  0.4999708338764  0.7287523371165 1.0
C      1  0.4258608117038  0.4999513476834  0.2712422145258 1.0
END
