TITL C-26020-3455-17 -0.786 3375.00 -115.68728219 0 0 15 (Cs) n - 1
REM
REM Run started: at 2021.01.04 08:50:29 in /gpfs/home/chem/mssmkc/CARBON/AIRSS/Generating-Clusters/Str-Search/Higher-Symm/C4-100
REM VASP from code version vasp.5.4.4.18Apr17-6-g9f103f2a35 (build Oct 11 2019 16:45:47) gamma-only
REM
REM
REM
REM
REM ./C.cell (6bd13a13d554368a30d355f37ece5b26)
REM AIRSS Version 0.9.1 bugfix July 2018 build 013d7b7c2542+ Fri, 06 Jul 2018 19:26:36 +0100
REM compiler GCC version 6.3.0
REM options -cpp -iprefix /gpfs/warwick/csc/orac/software/Core/GCCcore/6.3.0/bin/../lib/gcc/x86_64-pc-linux-gnu/6.3.0/ -mtune=generic -march=x86-64 -g -O0
REM seed -234987846 126940854 1727426267 -1778765487 -677438842 1019735091 1029822097 -743398607 932080329 -1771995194 -1600152372 -1756923148
REM
REM C.POTCAR (d86ddea03c3ceb6dc662c8ad6801f873)
REM 
CELL 1.54180   15.00000   15.00000   15.00000   90.00000   90.00000   90.00000
LATT -1
SFAC C  
C      1  0.3655922574261  0.4706820366897  0.5556161983652 1.0
C      1  0.3701177234912  0.5293195941787  0.4425587764599 1.0
C      1  0.6265602315419  0.4853037878765  0.5927142436259 1.0
C      1  0.6320631379285  0.5599761633424  0.4497818022768 1.0
C      1  0.4056547876755  0.4655379910921  0.6403352532817 1.0
C      1  0.4153915549142  0.5938082039630  0.3915769977623 1.0
C      1  0.5764310065307  0.4754894199416  0.6591682327970 1.0
C      1  0.5865438889389  0.6097137677482  0.3999395112741 1.0
C      1  0.6371857670688  0.4800790657308  0.4993348504837 1.0
C      1  0.5730904563785  0.4195774444741  0.4654877227337 1.0
C      1  0.2975134375461  0.5252873929742  0.5093826722234 1.0
C      1  0.4138425327124  0.4486393861469  0.4742686748602 1.0
C      1  0.4862512031004  0.4734299226450  0.6621061824175 1.0
C      1  0.4968901218625  0.6136903449348  0.3907917267001 1.0
C      1  0.4914889928845  0.4047574782620  0.4544989547386 1.0
END
