TITL C-26020-3455-90 -3.524 3375.00 -594.04873684 0 0 73 (C1) n - 1
REM
REM Run started: at 2021.01.04 22:39:15 in /gpfs/home/chem/mssmkc/CARBON/AIRSS/Generating-Clusters/Str-Search/Higher-Symm/C4-100
REM VASP from code version vasp.5.4.4.18Apr17-6-g9f103f2a35 (build Oct 11 2019 16:45:47) gamma-only
REM
REM
REM
REM
REM ./C.cell (6bd13a13d554368a30d355f37ece5b26)
REM AIRSS Version 0.9.1 bugfix July 2018 build 013d7b7c2542+ Fri, 06 Jul 2018 19:26:36 +0100
REM compiler GCC version 6.3.0
REM options -cpp -iprefix /gpfs/warwick/csc/orac/software/Core/GCCcore/6.3.0/bin/../lib/gcc/x86_64-pc-linux-gnu/6.3.0/ -mtune=generic -march=x86-64 -g -O0
REM seed -1928775703 456448528 1751252596 274632513 193075499 219285368 -407390140 802620832 -820989250 1088496142 926899713 -1080189103
REM
REM C.POTCAR (d86ddea03c3ceb6dc662c8ad6801f873)
REM 
CELL 1.54180   15.00000   15.00000   15.00000   90.00000   90.00000   90.00000
LATT -1
SFAC C  
C      1  0.3332768587930  0.3456965301886  0.6228006639277 1.0
C      1  0.4669654252115  0.4521334556525  0.5411899080687 1.0
C      1  0.6899593123203  0.3211420682473  0.4122485078261 1.0
C      1  0.3345009193868  0.2897417953592  0.4665595971602 1.0
C      1  0.5690838315678  0.6483913447657  0.3735242374846 1.0
C      1  0.7486305631783  0.4541845931536  0.3620395022572 1.0
C      1  0.7399149167342  0.3473999862271  0.5716482627264 1.0
C      1  0.6607041260193  0.4233746273487  0.7026308233293 1.0
C      1  0.5505130749356  0.4942845592765  0.7568674031782 1.0
C      1  0.2632461751079  0.6581525850773  0.6367039422868 1.0
C      1  0.5407797070258  0.4491777059376  0.6111468946502 1.0
C      1  0.3999965848197  0.6552067795501  0.3462147429479 1.0
C      1  0.6598736794691  0.5681648504222  0.6371158504918 1.0
C      1  0.7490165891252  0.3570720076285  0.4825754832422 1.0
C      1  0.2686903998952  0.6101227751286  0.5574957376770 1.0
C      1  0.4259115356189  0.4204073594777  0.2768692093939 1.0
C      1  0.4671763204801  0.6368598777108  0.7340167801081 1.0
C      1  0.5753852396821  0.2211260335921  0.4858716085709 1.0
C      1  0.5971573591147  0.5289156736648  0.2781366585425 1.0
C      1  0.7709480460897  0.5190940666956  0.5113858939542 1.0
C      1  0.5607796442069  0.7101017832312  0.5881211473288 1.0
C      1  0.4580041858023  0.3384256546767  0.3889948363400 1.0
C      1  0.6461273240539  0.5959470312894  0.3346191521697 1.0
C      1  0.7132865451330  0.6775055484199  0.5263642241747 1.0
C      1  0.6799992891156  0.3926878636259  0.3459293948874 1.0
C      1  0.7245724056684  0.4184350228128  0.6303770953549 1.0
C      1  0.4912981968143  0.6342013602496  0.3210795479076 1.0
C      1  0.3232404524583  0.6918590555503  0.6854448235355 1.0
C      1  0.4761447460603  0.6731843724895  0.6349887245407 1.0
C      1  0.2226002989550  0.5331275554664  0.5206192665098 1.0
C      1  0.3506969368490  0.6088433097547  0.4211217560822 1.0
C      1  0.5024037959866  0.3185899963982  0.6869520681835 1.0
C      1  0.5918702166254  0.4339042936304  0.3170633735860 1.0
C      1  0.3017693550775  0.3507947953861  0.3934962117172 1.0
C      1  0.4124885619984  0.3086645729590  0.6592564898413 1.0
C      1  0.7198170921975  0.6308988135527  0.3901303729292 1.0
C      1  0.5590114337302  0.4026242699538  0.6996362236915 1.0
C      1  0.4804256916113  0.2600705902631  0.6155763909355 1.0
C      1  0.6850099599492  0.7114016180115  0.4405018559884 1.0
C      1  0.2919590286129  0.5565042197458  0.3737612231996 1.0
C      1  0.4187809686037  0.5160656372841  0.2576825231643 1.0
C      1  0.2836566655395  0.3098739532292  0.5439533776230 1.0
C      1  0.5472883007937  0.4710214932640  0.4050117506841 1.0
C      1  0.6421884539531  0.5131876199901  0.7271165851397 1.0
C      1  0.5055368471031  0.5613583254548  0.2643915140388 1.0
C      1  0.7768796006041  0.4464847650126  0.4509046152446 1.0
C      1  0.7354121563680  0.5071366193030  0.5983385625239 1.0
C      1  0.4882591866990  0.4152506211906  0.4485787394167 1.0
C      1  0.3751930034372  0.3700913475885  0.3418129553645 1.0
C      1  0.3561226367426  0.6212049930424  0.5144663706656 1.0
C      1  0.4105297691739  0.7062666746145  0.7063355189052 1.0
C      1  0.3506156920450  0.5728865353632  0.2933532315016 1.0
C      1  0.7560863667536  0.6038338056529  0.4751073636973 1.0
C      1  0.4920358765397  0.2362852834511  0.5228461398486 1.0
C      1  0.5369601117977  0.7483542022075  0.5015090498498 1.0
C      1  0.2346503902837  0.5011846111274  0.4279889192744 1.0
C      1  0.5079286949336  0.3782983622280  0.2984011728570 1.0
C      1  0.5063989274802  0.5570928018099  0.5254253830985 1.0
C      1  0.2187453693453  0.4552516940739  0.5767428121662 1.0
C      1  0.6511765512214  0.6653744852836  0.5967196485021 1.0
C      1  0.4534709137695  0.7667930106851  0.4559832871600 1.0
C      1  0.4385302930929  0.6212775359827  0.5588252726451 1.0
C      1  0.6320851226787  0.2543817758779  0.4346818096450 1.0
C      1  0.4262949037500  0.2679812676042  0.4581710211775 1.0
C      1  0.5965647866806  0.7249492313639  0.4290956181591 1.0
C      1  0.3016774275969  0.4403262675757  0.6271870570786 1.0
C      1  0.5775585835206  0.5283574342553  0.5914945193023 1.0
C      1  0.2180157042688  0.3766698027364  0.5212294432415 1.0
C      1  0.4089080617341  0.7498483848032  0.3864982984724 1.0
C      1  0.3834277271919  0.4377671666908  0.5910995182536 1.0
C      1  0.5441373087515  0.5616508160286  0.4341989148596 1.0
C      1  0.4908954492577  0.5590497041888  0.7648679222465 1.0
C      1  0.2307522228074  0.4060232684646  0.4289053974653 1.0
END
