TITL C-26736-4875-5 -3.171 3375.00 -537.27540734 0 0 66 (C1) n - 1
REM
REM Run started: at 2020.11.23 19:08:42 in /rds/project/t2_vol4/rds-t2-cs072/BORA/CARBON/AIRSS/Generating-Clusters/Str-Search/Higher-Symm
REM VASP from code version vasp.5.4.4.18Apr17-6-g9f103f2a35 (build Oct 11 2019 16:45:47) gamma-only
REM
REM
REM
REM
REM ./C.cell (e5ae0387ce4d49c7c0135a1433873289)
REM AIRSS Version 0.9.1 bugfix July 2018 build 013d7b7c2542+ Fri, 06 Jul 2018 19:26:36 +0100
REM compiler GCC version 4.8.5 20150623 (Red Hat 4.8.5-39)
REM options -cpp -mtune=generic -march=x86-64 -g -O0
REM seed -1581171608 -784996217 551926098 -939408427 -1098349067 -1026298308 -3656618 492671150 1119643200 -1197422959 -1456827310 1629994763
REM
REM C.POTCAR (d86ddea03c3ceb6dc662c8ad6801f873)
REM 
CELL 1.54180   15.00000   15.00000   15.00000   90.00000   90.00000   90.00000
LATT -1
SFAC C  
C      1  0.4055705533728  0.5006503177140  0.7895889357891 1.0
C      1  0.4712791016112  0.5757428526968  0.7775055284108 1.0
C      1  0.5602016537313  0.5358516695102  0.7685993875408 1.0
C      1  0.5392214905853  0.4407856966465  0.7416750292273 1.0
C      1  0.4495011207368  0.4159631723468  0.7801132862751 1.0
C      1  0.3879878943046  0.4823097854425  0.5072034217081 1.0
C      1  0.4527673759771  0.5677731239150  0.4838143334238 1.0
C      1  0.5449904365462  0.5189401285195  0.4910932291283 1.0
C      1  0.5370952587928  0.4171802347645  0.4868043865292 1.0
C      1  0.4325832812384  0.3950966446854  0.4753132251390 1.0
C      1  0.3234964391903  0.5193224849953  0.7505392818648 1.0
C      1  0.4488121085770  0.6506645953276  0.7294700834532 1.0
C      1  0.6289740652646  0.5743757537181  0.7259554542630 1.0
C      1  0.6086437549756  0.3726431605859  0.7222617122131 1.0
C      1  0.4176113073289  0.3327855913828  0.7498016557211 1.0
C      1  0.3526410676244  0.6929896857788  0.4960940898744 1.0
C      1  0.6928002622326  0.6823721894625  0.5235793895481 1.0
C      1  0.7700335307865  0.5099586395770  0.4539859056991 1.0
C      1  0.4905123032594  0.2380356436293  0.5366861979234 1.0
C      1  0.2150836961804  0.5345234839919  0.5464970997503 1.0
C      1  0.4221314720506  0.3668541616336  0.3785064975469 1.0
C      1  0.3527552991154  0.5847435364819  0.3497506005122 1.0
C      1  0.5477184778688  0.6919010354445  0.3214026154523 1.0
C      1  0.7172603901473  0.5552715003176  0.2968009086990 1.0
C      1  0.6347035158133  0.3558962742822  0.3451472740184 1.0
C      1  0.5764982790562  0.3305076651046  0.4275526139110 1.0
C      1  0.3037937779328  0.4772177363071  0.4539336358482 1.0
C      1  0.4001416254453  0.6413669829662  0.4222553144759 1.0
C      1  0.6357453280387  0.6980194452405  0.3657698364572 1.0
C      1  0.7478748718895  0.4927075772687  0.3683176757642 1.0
C      1  0.4415457985675  0.6717990992801  0.6427462220905 1.0
C      1  0.6382748081397  0.5782693881361  0.6380275470228 1.0
C      1  0.6005488396840  0.3409310359552  0.6360580283206 1.0
C      1  0.4199137196726  0.2672736521436  0.6975188647527 1.0
C      1  0.3215102401980  0.5355945170027  0.6634693653278 1.0
C      1  0.5566954671151  0.3488984782869  0.2867750988135 1.0
C      1  0.3864994823175  0.4307477964631  0.3155188023060 1.0
C      1  0.4128118560920  0.6127206399314  0.2828660149067 1.0
C      1  0.5876312102131  0.6408004188750  0.2474111983323 1.0
C      1  0.6757677857962  0.4810377011557  0.2487093120487 1.0
C      1  0.6969239714186  0.4208924232878  0.3234033617830 1.0
C      1  0.5008602012261  0.3232286763458  0.3586556730793 1.0
C      1  0.3313104329586  0.4953579841927  0.3610464708381 1.0
C      1  0.4590375195503  0.6746118566733  0.3414896064087 1.0
C      1  0.6723089079077  0.6372549148513  0.2958161277567 1.0
C      1  0.5820385034377  0.2557982534263  0.5004251138904 1.0
C      1  0.2165113597631  0.4739236993861  0.4860219078847 1.0
C      1  0.2939291376927  0.6688135047046  0.5673307613728 1.0
C      1  0.6632097661927  0.7106888451590  0.4508561195761 1.0
C      1  0.7605267089293  0.5480869139931  0.5278246229384 1.0
C      1  0.4542327251025  0.5522850277136  0.2235682188826 1.0
C      1  0.5470614684939  0.5691808663685  0.2032315014939 1.0
C      1  0.5934601349434  0.4842978091542  0.2045927478619 1.0
C      1  0.5288947691951  0.4159566371923  0.2263145685938 1.0
C      1  0.4422828765269  0.4574809051959  0.2411272609481 1.0
C      1  0.6258912056074  0.2740260140319  0.5769992259714 1.0
C      1  0.4318603194633  0.2490585567916  0.6061072959694 1.0
C      1  0.2558471530329  0.5897042096084  0.6049810547069 1.0
C      1  0.3752208957348  0.7140853666847  0.5855038984037 1.0
C      1  0.7088164977197  0.6077595857619  0.5759531907089 1.0
C      1  0.4055730684064  0.5087887420018  0.6085510895233 1.0
C      1  0.4647696246305  0.5935596617925  0.5828672099696 1.0
C      1  0.5533925057709  0.5451493571509  0.5893050329593 1.0
C      1  0.5261462823144  0.3872333934538  0.5843437029248 1.0
C      1  0.4503810887827  0.3295418860771  0.5504607822409 1.0
C      1  0.5004416277284  0.4668656120339  0.6362003932248 1.0
END
