TITL C-26020-3455-1 -1.359 3375.00 -226.84536096 0 0 28 (C1) n - 1
REM
REM Run started: at 2021.01.04 05:34:41 in /gpfs/home/chem/mssmkc/CARBON/AIRSS/Generating-Clusters/Str-Search/Higher-Symm/C4-100
REM VASP from code version vasp.5.4.4.18Apr17-6-g9f103f2a35 (build Oct 11 2019 16:45:47) gamma-only
REM
REM
REM
REM
REM ./C.cell (6bd13a13d554368a30d355f37ece5b26)
REM AIRSS Version 0.9.1 bugfix July 2018 build 013d7b7c2542+ Fri, 06 Jul 2018 19:26:36 +0100
REM compiler GCC version 6.3.0
REM options -cpp -iprefix /gpfs/warwick/csc/orac/software/Core/GCCcore/6.3.0/bin/../lib/gcc/x86_64-pc-linux-gnu/6.3.0/ -mtune=generic -march=x86-64 -g -O0
REM seed -794426934 898441481 -1540458235 -1114321801 1412982444 1809978470 2015495756 1069800488 -558520023 8768516 -1543287827 -1810554085
REM
REM C.POTCAR (d86ddea03c3ceb6dc662c8ad6801f873)
REM 
CELL 1.54180   15.00000   15.00000   15.00000   90.00000   90.00000   90.00000
LATT -1
SFAC C  
C      1  0.6115786549440  0.5571804472351  0.3709790343325 1.0
C      1  0.6226676769100  0.4599115483605  0.3743533649023 1.0
C      1  0.6032434878909  0.3827825752553  0.4311296604870 1.0
C      1  0.6024973373833  0.3598171819658  0.5215114640292 1.0
C      1  0.6159723746874  0.4048143851497  0.6105519676280 1.0
C      1  0.6062514190032  0.4945756455990  0.6371385321155 1.0
C      1  0.5907339202199  0.5842341078250  0.5981618261490 1.0
C      1  0.6063777004022  0.6409669333097  0.5262740092302 1.0
C      1  0.6145542277027  0.6319105792724  0.4254008041406 1.0
C      1  0.4650608279414  0.4191075998349  0.6621070769043 1.0
C      1  0.4229084307959  0.5894691271269  0.5710648678189 1.0
C      1  0.4360179313104  0.6618425999645  0.5111846871397 1.0
C      1  0.4507753835183  0.6447635111461  0.4172562974558 1.0
C      1  0.4443297997185  0.5568322823611  0.3822517659363 1.0
C      1  0.4078291522194  0.4874131159408  0.4398809082742 1.0
C      1  0.4369853939068  0.3932710663412  0.4321712957112 1.0
C      1  0.4368934583821  0.3559590685627  0.5197212541617 1.0
C      1  0.4062876603450  0.4219314979256  0.5831557714345 1.0
C      1  0.5342211254037  0.3569039948795  0.6421883356377 1.0
C      1  0.5139390578898  0.4995319651610  0.6755255878436 1.0
C      1  0.4954137053521  0.5819290102977  0.6351560586718 1.0
C      1  0.5274745423819  0.6939732257552  0.5043950050063 1.0
C      1  0.5385348556860  0.6953184047651  0.4092540428907 1.0
C      1  0.5220267743313  0.5329089484745  0.3289760060724 1.0
C      1  0.5461899641167  0.4425167320133  0.3147252723421 1.0
C      1  0.5151644075948  0.3790912140825  0.3813678321739 1.0
C      1  0.5197168508661  0.3204995274480  0.5544427786686 1.0
C      1  0.3905650790964  0.5045584039469  0.5354119928420 1.0
END
