TITL C-2700-441-52 -7.218 3375.00 -1205.28723131 0 0 147 (C1) n - 1
REM
REM Run started: at 2020.12.23 15:05:56 in /gpfs/home/chem/mssmkc/CARBON/AIRSS/Generating-Clusters/Str-Search/Higher-Symm/C100-200
REM VASP from code version vasp.5.4.4.18Apr17-6-g9f103f2a35 (build Oct 11 2019 16:45:47) gamma-only
REM
REM
REM
REM
REM ./C.cell (533062f00bc710175b3da973d35f2034)
REM AIRSS Version 0.9.1 bugfix July 2018 build 013d7b7c2542+ Fri, 06 Jul 2018 19:26:36 +0100
REM compiler GCC version 6.3.0
REM options -cpp -iprefix /gpfs/warwick/csc/orac/software/Core/GCCcore/6.3.0/bin/../lib/gcc/x86_64-pc-linux-gnu/6.3.0/ -mtune=generic -march=x86-64 -g -O0
REM seed 1663074269 1602726246 -509620581 -1589667313 902175548 -299867835 -1568699082 1344798591 747014860 834427626 235132926 -164474578
REM
REM C.POTCAR (d86ddea03c3ceb6dc662c8ad6801f873)
REM 
CELL 1.54180   15.00000   15.00000   15.00000   90.00000   90.00000   90.00000
LATT -1
SFAC C  
C      1  0.4434155247057  0.1573722642816  0.6645987398510 1.0
C      1  0.2268446672788  0.6763662781736  0.6878397271284 1.0
C      1  0.8445922906597  0.6219826189364  0.7020675253851 1.0
C      1  0.4379039373199  0.8489507817221  0.2891916520987 1.0
C      1  0.2417717512791  0.3676332395919  0.3071637082408 1.0
C      1  0.7958792736332  0.3549349348444  0.3122451524342 1.0
C      1  0.7714801348955  0.2990738676353  0.7737283906778 1.0
C      1  0.1939646851918  0.4020055233253  0.7319267125936 1.0
C      1  0.5841197083401  0.7840618004451  0.7626139506046 1.0
C      1  0.7044640372656  0.7029935583205  0.2470294655820 1.0
C      1  0.1930852832576  0.5801579482207  0.2476341286866 1.0
C      1  0.5819229888703  0.2065191542552  0.2497243801753 1.0
C      1  0.5296899040731  0.5423332085779  0.4024146145216 1.0
C      1  0.5170467065784  0.4488402400325  0.4122833385587 1.0
C      1  0.4403964952670  0.5054115795277  0.4043043235202 1.0
C      1  0.5435467185589  0.4598066604480  0.6219547801064 1.0
C      1  0.5343364043568  0.5546834359662  0.6055028418580 1.0
C      1  0.4579811187551  0.4947811814521  0.6120281821430 1.0
C      1  0.5315849946255  0.1596691614418  0.6997183741831 1.0
C      1  0.1592525002031  0.6305918187011  0.6377843712072 1.0
C      1  0.8023489211022  0.6990086230066  0.7381402863876 1.0
C      1  0.5205378765625  0.8954194308869  0.3057228562337 1.0
C      1  0.1952422838813  0.4199688225345  0.3796207939947 1.0
C      1  0.7748952631306  0.2806927807290  0.3719257116498 1.0
C      1  0.3358978571794  0.2405932645812  0.3809952968376 1.0
C      1  0.3298374987470  0.7649571508067  0.3966684190009 1.0
C      1  0.8192164363749  0.5025959334232  0.4049547480664 1.0
C      1  0.3386088663223  0.7645659151090  0.5842323044035 1.0
C      1  0.3378202318740  0.2284689811892  0.5623427088769 1.0
C      1  0.8285758921904  0.4985920748944  0.5914573483304 1.0
C      1  0.3647744809017  0.4798308220187  0.5973668588419 1.0
C      1  0.5611933565772  0.6402841351552  0.5836780167842 1.0
C      1  0.6063935569195  0.3902068291255  0.6270306591168 1.0
C      1  0.3504309823222  0.5202670040467  0.4108979003774 1.0
C      1  0.5461355827376  0.3582167671266  0.4254056644867 1.0
C      1  0.5877910199284  0.6175138037500  0.4025205779961 1.0
C      1  0.6837900574104  0.6015004696902  0.4158988413227 1.0
C      1  0.4963569790367  0.2778721644663  0.3998395471617 1.0
C      1  0.2996407112995  0.6082003245239  0.4141417937956 1.0
C      1  0.7043749173767  0.3855279471442  0.5974731790197 1.0
C      1  0.4893256241964  0.7048773709775  0.5634799683828 1.0
C      1  0.3207919620519  0.3909773456339  0.5844844421690 1.0
C      1  0.7218037592891  0.3776447856587  0.7934254556277 1.0
C      1  0.2773938704190  0.3750937741256  0.7631445795003 1.0
C      1  0.4972692102741  0.7446857461098  0.7645412731086 1.0
C      1  0.7235508468255  0.6125084076778  0.2203825234056 1.0
C      1  0.2817189228521  0.5791425076624  0.2294108373173 1.0
C      1  0.5122105870594  0.2502413349467  0.2071169340240 1.0
C      1  0.2780739553116  0.6438537006674  0.7567926913174 1.0
C      1  0.7807562276431  0.6124493511383  0.7701488853896 1.0
C      1  0.4609599632073  0.2148260512472  0.7348357726934 1.0
C      1  0.2996976590700  0.4022157801669  0.2376982343138 1.0
C      1  0.7413245473214  0.3790286283615  0.2416351907194 1.0
C      1  0.4395610807139  0.7836252411370  0.2267083945800 1.0
C      1  0.6356769054378  0.2293561413058  0.4323550971513 1.0
C      1  0.2138042476012  0.5512843785122  0.4376478750908 1.0
C      1  0.6154296794464  0.7819944755350  0.3658166205903 1.0
C      1  0.6829879136912  0.7430288183882  0.6242553533278 1.0
C      1  0.2133386420345  0.4920052283825  0.5908847982507 1.0
C      1  0.6781128297759  0.2265202806104  0.6808829569317 1.0
C      1  0.1382006636891  0.5369304520739  0.6322707991965 1.0
C      1  0.7437078182715  0.7585468210619  0.6954297419024 1.0
C      1  0.6190469988680  0.1602574986375  0.6913370700866 1.0
C      1  0.1510234130080  0.5115570605630  0.3744901248692 1.0
C      1  0.7019836732124  0.2210510620227  0.3621600052486 1.0
C      1  0.5840798072176  0.8727372467523  0.3554159064580 1.0
C      1  0.6541381056099  0.6765259368010  0.5638385525112 1.0
C      1  0.6491590481928  0.3134965875771  0.6454315061896 1.0
C      1  0.2952128086912  0.5452240432856  0.5807203048598 1.0
C      1  0.6295052605957  0.3227704164476  0.4588089737409 1.0
C      1  0.5619218810215  0.7127794054783  0.4124848037516 1.0
C      1  0.2694201040180  0.4683977594712  0.4398411571999 1.0
C      1  0.8497129271809  0.4177837266914  0.3658377892683 1.0
C      1  0.2534792898457  0.2835786930530  0.3476365121929 1.0
C      1  0.3860133144613  0.8389746034565  0.3706390000449 1.0
C      1  0.8642787302651  0.5845813267882  0.6203209480606 1.0
C      1  0.2505524268427  0.7502906542495  0.6181067289300 1.0
C      1  0.3975106821423  0.1559507356352  0.5827089009824 1.0
C      1  0.1625447677675  0.4683380092052  0.6891314704350 1.0
C      1  0.6540093402162  0.7832968436513  0.7041713126450 1.0
C      1  0.7672611722576  0.2345717117394  0.7206533334480 1.0
C      1  0.1290682730504  0.5522796460759  0.2957255105927 1.0
C      1  0.6582864945143  0.1986374060649  0.2819463861945 1.0
C      1  0.6828572873943  0.7531248078479  0.3142740283239 1.0
C      1  0.4693009432514  0.3593059359961  0.8299438548818 1.0
C      1  0.4106837419157  0.5813170497963  0.8343797460877 1.0
C      1  0.6398137425958  0.5539164695379  0.8391662585885 1.0
C      1  0.4720774968250  0.6369571823465  0.1659311475321 1.0
C      1  0.4108768729799  0.3920297523097  0.1283383774496 1.0
C      1  0.6194797382277  0.4582243212013  0.1509051731878 1.0
C      1  0.8044926379699  0.6754221329995  0.5000971061691 1.0
C      1  0.4975484560852  0.1262068752909  0.4554333273737 1.0
C      1  0.1925599113328  0.6725082728687  0.5522526596109 1.0
C      1  0.7875262436158  0.3159740470285  0.4624249526742 1.0
C      1  0.4428175616682  0.8195562270783  0.4588695425887 1.0
C      1  0.1850692338293  0.3615719995951  0.4649690429868 1.0
C      1  0.4283381536624  0.2956132997394  0.7682602059485 1.0
C      1  0.3685653907428  0.6474961363549  0.7737580015876 1.0
C      1  0.7202498230164  0.5429789016044  0.7889480751413 1.0
C      1  0.4136325822512  0.6943569400080  0.2148177333931 1.0
C      1  0.3708353830928  0.3433966558701  0.2005052995652 1.0
C      1  0.6937188908062  0.4533678599331  0.2182469685969 1.0
C      1  0.2423518175793  0.4169509937568  0.5264714271218 1.0
C      1  0.4975020212829  0.7437495185418  0.4766394339450 1.0
C      1  0.7089557484826  0.3458905950323  0.5068911437099 1.0
C      1  0.2580209894826  0.6099625327060  0.5080788131638 1.0
C      1  0.5449991910672  0.1997945690919  0.4251126336408 1.0
C      1  0.7131618682493  0.6532974588527  0.4925435311205 1.0
C      1  0.5596488068313  0.3986067752426  0.8419305713250 1.0
C      1  0.3669918546661  0.5004902890559  0.8546017839398 1.0
C      1  0.5793335274610  0.6314144725175  0.8515924350206 1.0
C      1  0.5702575505345  0.6277791496920  0.1564447678985 1.0
C      1  0.3910101169747  0.4843083274904  0.1420062691170 1.0
C      1  0.5809901916097  0.3808354263707  0.1141877637650 1.0
C      1  0.7219607338971  0.5338541324436  0.2690638612082 1.0
C      1  0.4272193587388  0.2801380665338  0.2470550158640 1.0
C      1  0.3350791978620  0.6570506921221  0.2611451624463 1.0
C      1  0.7421792780807  0.4586997318518  0.7407797646393 1.0
C      1  0.4262971392986  0.7085807378536  0.7207290851402 1.0
C      1  0.3425417832654  0.3168352790193  0.7235538689008 1.0
C      1  0.4169331890947  0.7277970424895  0.6228323489766 1.0
C      1  0.7685678344114  0.4471146463826  0.6467968185989 1.0
C      1  0.3325238904320  0.3054257080337  0.6235819457585 1.0
C      1  0.4174494616993  0.2647067044104  0.3437464584970 1.0
C      1  0.7426098720352  0.5448476674574  0.3663689183074 1.0
C      1  0.3146877365885  0.6829483803829  0.3527777686594 1.0
C      1  0.6426998183336  0.3611128651843  0.8346235203171 1.0
C      1  0.3146148943443  0.4243615999523  0.8363285180972 1.0
C      1  0.5645676748854  0.7179589180801  0.8276758085762 1.0
C      1  0.6528872594446  0.6596398169565  0.1773016801740 1.0
C      1  0.3166266438704  0.4911287565208  0.2011185718850 1.0
C      1  0.5408963987718  0.2953921615430  0.1287391273875 1.0
C      1  0.5035610603837  0.5701642485114  0.8562737433551 1.0
C      1  0.5638768066982  0.4933814625639  0.8563875409195 1.0
C      1  0.4027840531255  0.4143731708429  0.8628974974362 1.0
C      1  0.4906447899321  0.3635360270399  0.0920232199214 1.0
C      1  0.5604536133568  0.5336538999548  0.1361106608780 1.0
C      1  0.4619529492168  0.5451642294335  0.1361617183097 1.0
C      1  0.1888869489194  0.7663195582676  0.5430790348199 1.0
C      1  0.8639852328008  0.6473218608131  0.5499730257998 1.0
C      1  0.4382110960187  0.1098727250036  0.5110908562376 1.0
C      1  0.2228085663327  0.2817729783290  0.4409273242739 1.0
C      1  0.8478789471273  0.3882827251553  0.4585394694069 1.0
C      1  0.3791668710599  0.8888642087289  0.4634345377362 1.0
C      1  0.3394700069447  0.7977033137601  0.4910579892938 1.0
C      1  0.3007514866557  0.2342367156740  0.4727647707046 1.0
C      1  0.8405105987382  0.4749854978121  0.4985495970784 1.0
END
