TITL C-27769-6734-7 -6.878 3375.00 -1215.01156015 0 0 144 (C1) n - 1
REM
REM Run started: at 2021.01.02 23:49:28 in /rds/project/t2_vol4/rds-t2-cs072/BORA/CARBON/AIRSS/Generating-Clusters/Str-Search/Higher-Symm/C100-200
REM VASP from code version vasp.5.4.4.18Apr17-6-g9f103f2a35 (build Oct 11 2019 16:45:47) gamma-only
REM
REM
REM
REM
REM ./C.cell (533062f00bc710175b3da973d35f2034)
REM AIRSS Version 0.9.1 bugfix July 2018 build 013d7b7c2542+ Fri, 06 Jul 2018 19:26:36 +0100
REM compiler GCC version 4.8.5 20150623 (Red Hat 4.8.5-39)
REM options -cpp -mtune=generic -march=x86-64 -g -O0
REM seed -1919123932 825771439 -692939876 -890218953 703638471 -1278124456 1916557772 2081165057 1785530883 -1756383516 1443318083 228573658
REM
REM C.POTCAR (d86ddea03c3ceb6dc662c8ad6801f873)
REM 
CELL 1.54180   15.00000   15.00000   15.00000   90.00000   90.00000   90.00000
LATT -1
SFAC C  
C      1  0.4176351889570  0.4539649416583  0.3443475690442 1.0
C      1  0.5915752957333  0.4456569706787  0.3339834763200 1.0
C      1  0.5026046971200  0.5865999197300  0.3529401495395 1.0
C      1  0.4174837924869  0.5453648490158  0.3442073182713 1.0
C      1  0.5914187832218  0.5540395437637  0.3337409062379 1.0
C      1  0.5027851049224  0.4130067343274  0.3532116668983 1.0
C      1  0.6910330996502  0.6111846756547  0.7096923743930 1.0
C      1  0.3472529400645  0.5957273136175  0.7383885218146 1.0
C      1  0.5150809539933  0.2917265820004  0.7421636081835 1.0
C      1  0.6907160405997  0.3887068924178  0.7098779824443 1.0
C      1  0.3470000944261  0.4049591251035  0.7386860442200 1.0
C      1  0.5154923098594  0.7086102261053  0.7418641084743 1.0
C      1  0.3057833317685  0.6950888366684  0.5703060741070 1.0
C      1  0.4073013535362  0.2487929463294  0.5720412626833 1.0
C      1  0.7654906886177  0.6280084820070  0.5170121612318 1.0
C      1  0.3050502652915  0.3051006843186  0.5706622096293 1.0
C      1  0.4079685291304  0.7509832438202  0.5717288148495 1.0
C      1  0.7653426099570  0.3714322829723  0.5173297939981 1.0
C      1  0.7904923573618  0.2689224281519  0.5009129429717 1.0
C      1  0.4447302525469  0.8268206070406  0.5142589417725 1.0
C      1  0.2263594819267  0.3172126898628  0.5007095567393 1.0
C      1  0.7903006818195  0.7306706310359  0.5008946034830 1.0
C      1  0.4438180762580  0.1729580565217  0.5143662775822 1.0
C      1  0.2272324754070  0.6831419063485  0.5004005864798 1.0
C      1  0.6174551392620  0.4541244886962  0.8597333239678 1.0
C      1  0.5324239109031  0.5961441892761  0.8735118150069 1.0
C      1  0.4529090904577  0.4505044395384  0.8771581624497 1.0
C      1  0.6175663088000  0.5463270142252  0.8597232077430 1.0
C      1  0.5322008593456  0.4045284138575  0.8734855839717 1.0
C      1  0.4530268698426  0.5503283220203  0.8770705493362 1.0
C      1  0.6722172984828  0.3560388179259  0.5529287897932 1.0
C      1  0.4937894816610  0.6947147177180  0.5774278944180 1.0
C      1  0.3266414334796  0.4055019331810  0.5759306125331 1.0
C      1  0.6723765046870  0.6432054101409  0.5526088790856 1.0
C      1  0.4932662157916  0.3050140969383  0.5777365915239 1.0
C      1  0.3268751355168  0.5945208739851  0.5757506576556 1.0
C      1  0.3101946088791  0.4040808792789  0.2362375886013 1.0
C      1  0.7065229612095  0.2994233130260  0.2797592305367 1.0
C      1  0.5183138663171  0.7477405353574  0.2511954732121 1.0
C      1  0.3105034144282  0.5958204729881  0.2361078590176 1.0
C      1  0.7069555570508  0.7003875366410  0.2795171612368 1.0
C      1  0.5176664407869  0.2522157782964  0.2514722311638 1.0
C      1  0.1590173900958  0.6159064317902  0.5206742208214 1.0
C      1  0.5250397204901  0.1311561568029  0.5435086436766 1.0
C      1  0.7481905041344  0.8088657035348  0.5398254804320 1.0
C      1  0.1583885346241  0.3853648405309  0.5202848921764 1.0
C      1  0.5260765535252  0.8684508499590  0.5433807784446 1.0
C      1  0.7480616184358  0.1910882028201  0.5398774549668 1.0
C      1  0.2026265863358  0.4070432726661  0.3698402782196 1.0
C      1  0.7213813643088  0.1852232957993  0.3864034402044 1.0
C      1  0.5406617306387  0.8397232444225  0.3902947222826 1.0
C      1  0.2032195373732  0.5925351158420  0.3699239507179 1.0
C      1  0.7219885004686  0.8146569893858  0.3861874025271 1.0
C      1  0.5400291470844  0.1602378889930  0.3905608736575 1.0
C      1  0.6436146956193  0.3896681845612  0.7917194954521 1.0
C      1  0.5622469613272  0.6618995412758  0.8068755712529 1.0
C      1  0.3788467853684  0.4523731874221  0.8114470231774 1.0
C      1  0.6438582830818  0.6105358118737  0.7915388661610 1.0
C      1  0.5618720714215  0.3385350689508  0.8070670653102 1.0
C      1  0.3789531028729  0.5485371533222  0.8113307507054 1.0
C      1  0.5638838782934  0.6821693641430  0.2007628632324 1.0
C      1  0.3582661977084  0.4522420472084  0.1698809811308 1.0
C      1  0.6527562537850  0.3481862503617  0.2215515452926 1.0
C      1  0.5634293720171  0.3176273577677  0.2010786939529 1.0
C      1  0.3583228013048  0.5474886132683  0.1697131623040 1.0
C      1  0.6530299700210  0.6514893095252  0.2213874858188 1.0
C      1  0.3255047973304  0.4526947506803  0.6583027818049 1.0
C      1  0.6419136462884  0.3401375812276  0.6405612893319 1.0
C      1  0.5527693223711  0.6946181099729  0.6528228433176 1.0
C      1  0.3256668756813  0.5476614278032  0.6582171466391 1.0
C      1  0.6422190014429  0.6594478858133  0.6402580813426 1.0
C      1  0.5522816442024  0.3052627113257  0.6530967819843 1.0
C      1  0.4571173816062  0.5486433767067  0.1556957398413 1.0
C      1  0.5318231018770  0.4061729843813  0.1800483685839 1.0
C      1  0.6149936634190  0.5547068846805  0.2275746661327 1.0
C      1  0.4570300006979  0.4512598693023  0.1560187266354 1.0
C      1  0.5320285066028  0.5936659562456  0.1796207256005 1.0
C      1  0.6150526277536  0.4449590820773  0.2276555509604 1.0
C      1  0.5917731077473  0.8651037759854  0.4681928136175 1.0
C      1  0.1578958999046  0.4523325266388  0.4421819767760 1.0
C      1  0.6872163582920  0.1500284752078  0.4677504568941 1.0
C      1  0.5911729463392  0.1347228598223  0.4685137289831 1.0
C      1  0.1586190310755  0.5480663942170  0.4425286629327 1.0
C      1  0.6876952089273  0.8498506824356  0.4674475979124 1.0
C      1  0.7435644131193  0.8369058860662  0.6263514269334 1.0
C      1  0.1100366381004  0.6051083776013  0.5969333904731 1.0
C      1  0.5483186906019  0.1088572554801  0.6310788358698 1.0
C      1  0.7426357126754  0.1641249018935  0.6267316121934 1.0
C      1  0.1087045181169  0.4003680408966  0.5940128834254 1.0
C      1  0.5499380188456  0.8907968232087  0.6307914373641 1.0
C      1  0.4255385087248  0.7471330448147  0.7470712273780 1.0
C      1  0.3458762607835  0.3084466875287  0.7340015337609 1.0
C      1  0.7562059057413  0.4484468526162  0.6734285883067 1.0
C      1  0.4250043934732  0.2535073995454  0.7473693904137 1.0
C      1  0.3462133053281  0.6922546652836  0.7336290784475 1.0
C      1  0.7563770923996  0.5512310030369  0.6733515464110 1.0
C      1  0.4232669076553  0.2635866177286  0.2767324706802 1.0
C      1  0.7683276502476  0.6703424929792  0.3505129562718 1.0
C      1  0.3480098384294  0.6754835786667  0.2728401551890 1.0
C      1  0.4241323483963  0.7363412581430  0.2764269696147 1.0
C      1  0.7680136050242  0.3294105017157  0.3507841386387 1.0
C      1  0.3474341675561  0.3244896087287  0.2733108748714 1.0
C      1  0.3779230269794  0.6020274106941  0.4170317032992 1.0
C      1  0.4717486728957  0.3689716098525  0.4280283518929 1.0
C      1  0.6499518532141  0.5864017153779  0.4078840342532 1.0
C      1  0.3777668571942  0.3970411200273  0.4170068240737 1.0
C      1  0.4717436478839  0.6306618597865  0.4278540377275 1.0
C      1  0.6498802185037  0.4133477031853  0.4084074749547 1.0
C      1  0.7852252999046  0.2545414401896  0.4072723253650 1.0
C      1  0.4505201682839  0.8165460247861  0.4198842923038 1.0
C      1  0.2412588211700  0.3251571482002  0.4090458240304 1.0
C      1  0.7855527728050  0.7451370473124  0.4072499532643 1.0
C      1  0.4498132049499  0.1833865535967  0.4200400927234 1.0
C      1  0.2427453816298  0.6741132487873  0.4089889806998 1.0
C      1  0.3293836866727  0.6916291864732  0.3698922727184 1.0
C      1  0.3972238980161  0.2344666509234  0.3643741253048 1.0
C      1  0.7422995728425  0.6043548020289  0.4155359527895 1.0
C      1  0.3289966447311  0.3089685570666  0.3708505221061 1.0
C      1  0.3979580103320  0.7655940060698  0.3640689735282 1.0
C      1  0.7421509273776  0.3952214912255  0.4160222258546 1.0
C      1  0.2421381038134  0.4513251735897  0.2930216811471 1.0
C      1  0.6697084385326  0.2153038162071  0.3119611673484 1.0
C      1  0.5752593015044  0.8013793067552  0.3100020603284 1.0
C      1  0.2422252515100  0.5485217179866  0.2929090853879 1.0
C      1  0.6703540322347  0.7847042386960  0.3116130819047 1.0
C      1  0.5746015788841  0.1987507825186  0.3103546862817 1.0
C      1  0.3463978487009  0.4515355014305  0.4964658798559 1.0
C      1  0.6114692361212  0.3748219875413  0.4870479778571 1.0
C      1  0.5228545324682  0.6514384099867  0.5007892954064 1.0
C      1  0.3464204263629  0.5479720703802  0.4964245941864 1.0
C      1  0.6116469452291  0.6246277705834  0.4866430608443 1.0
C      1  0.5226195663296  0.3481739575934  0.5011282719923 1.0
C      1  0.0686507164214  0.4529855976821  0.6474231171769 1.0
C      1  0.7062013906365  0.1220836142410  0.6906482076488 1.0
C      1  0.6196126638087  0.8905553525819  0.6763566005042 1.0
C      1  0.0781706647918  0.5409240210153  0.6410714200106 1.0
C      1  0.7088844485172  0.8806846918150  0.6903144674817 1.0
C      1  0.6172806394536  0.1100852129734  0.6776867863017 1.0
C      1  0.7879965400369  0.5513339387757  0.5834732203990 1.0
C      1  0.2932954795794  0.7398845468074  0.6659455135078 1.0
C      1  0.3828731788052  0.2266391574729  0.6657552763428 1.0
C      1  0.7879732890400  0.4480672849105  0.5836364012701 1.0
C      1  0.2926755491280  0.2605543865818  0.6665464849340 1.0
C      1  0.3835611540335  0.7736038713654  0.6652990349198 1.0
END
