TITL C-27459-4422-4 -6.112 3375.00 -1036.53641848 0 0 128 (C1) n - 1
REM
REM Run started: at 2021.01.04 07:59:01 in /gpfs/home/chem/mssmkc/CARBON/AIRSS/Generating-Clusters/Str-Search/Higher-Symm/C100-200
REM VASP from code version vasp.5.4.4.18Apr17-6-g9f103f2a35 (build Oct 11 2019 16:45:47) gamma-only
REM
REM
REM
REM
REM ./C.cell (533062f00bc710175b3da973d35f2034)
REM AIRSS Version 0.9.1 bugfix July 2018 build 013d7b7c2542+ Fri, 06 Jul 2018 19:26:36 +0100
REM compiler GCC version 6.3.0
REM options -cpp -iprefix /gpfs/warwick/csc/orac/software/Core/GCCcore/6.3.0/bin/../lib/gcc/x86_64-pc-linux-gnu/6.3.0/ -mtune=generic -march=x86-64 -g -O0
REM seed -669647329 -1881738137 172986739 854759098 1541101190 79681643 587871100 -143977780 971424104 -251686547 1869847390 -1372970455
REM
REM C.POTCAR (d86ddea03c3ceb6dc662c8ad6801f873)
REM 
CELL 1.54180   15.00000   15.00000   15.00000   90.00000   90.00000   90.00000
LATT -1
SFAC C  
C      1  0.6353504578460  0.2645392117029  0.4632017077020 1.0
C      1  0.3230634328046  0.2793369593012  0.4560218777820 1.0
C      1  0.2506822598856  0.6221310187982  0.4789621765949 1.0
C      1  0.5051590094352  0.7961705925541  0.4908040363415 1.0
C      1  0.7655416888274  0.5510499418405  0.4638741325446 1.0
C      1  0.2667297987512  0.3479023224047  0.6013763737817 1.0
C      1  0.2561589740464  0.7152286401851  0.6210890791095 1.0
C      1  0.6090905258498  0.7656369791667  0.6099869155367 1.0
C      1  0.7809010950912  0.4640577681318  0.6282847380593 1.0
C      1  0.5656801096642  0.2173942446595  0.6073947868865 1.0
C      1  0.3344458221573  0.7385941379141  0.6751269337348 1.0
C      1  0.6463627255343  0.6804985707823  0.6462106900687 1.0
C      1  0.7208320440101  0.4014057476724  0.6709406711624 1.0
C      1  0.4810378695197  0.2362890943206  0.6514978481121 1.0
C      1  0.2582842322375  0.4278245551017  0.6523760024352 1.0
C      1  0.5436905321918  0.6077668705965  0.5225455310776 1.0
C      1  0.5652520768103  0.5057105741961  0.4925594769401 1.0
C      1  0.5008077325873  0.4318516929237  0.5141917532175 1.0
C      1  0.3790083283557  0.5673289251862  0.5664731263937 1.0
C      1  0.4483400843876  0.6444068965576  0.5554426299823 1.0
C      1  0.7795476752651  0.5675242759193  0.3017354104326 1.0
C      1  0.6498826419430  0.2745188857756  0.3016836333641 1.0
C      1  0.3288189901778  0.2911824530362  0.2361581954870 1.0
C      1  0.2531772047581  0.5996890276606  0.2691914664581 1.0
C      1  0.5085164711201  0.7244894411248  0.2755032721129 1.0
C      1  0.7782409982656  0.4702402308427  0.5326737880949 1.0
C      1  0.5713027222737  0.2055560374335  0.5169260214543 1.0
C      1  0.2559974343394  0.3383178633178  0.5089597964331 1.0
C      1  0.2621313819106  0.7135306163599  0.5254055764307 1.0
C      1  0.5909833561807  0.7587730595188  0.5204793657591 1.0
C      1  0.6475082980416  0.2471678888361  0.6531974958564 1.0
C      1  0.3185867574640  0.2719603626226  0.6369678598960 1.0
C      1  0.1895790926689  0.6577579103093  0.6517405615466 1.0
C      1  0.5579987980839  0.8275627697562  0.6612695226469 1.0
C      1  0.8130500794370  0.5423942858188  0.6688769448465 1.0
C      1  0.3240641097429  0.6548364192425  0.4084524979426 1.0
C      1  0.6001538575942  0.6614702026923  0.3844221045006 1.0
C      1  0.7103913695011  0.4732024116160  0.4079181875170 1.0
C      1  0.5421941211125  0.2966974988768  0.4146537673512 1.0
C      1  0.3043982447693  0.3485077103702  0.3784834072499 1.0
C      1  0.8023800084440  0.6211857537275  0.6454193579276 1.0
C      1  0.7069129130727  0.2195610611241  0.7122007083856 1.0
C      1  0.3141195627216  0.1906046560149  0.6729166307914 1.0
C      1  0.1771681126620  0.5756908447786  0.6403024524734 1.0
C      1  0.4744630039878  0.8252112908103  0.6584722081753 1.0
C      1  0.4812474850794  0.2757124750559  0.7373162805972 1.0
C      1  0.3025418048584  0.4412338416402  0.7343640216356 1.0
C      1  0.3691630538653  0.6833906392180  0.7450565276737 1.0
C      1  0.6361213467355  0.6675062955489  0.7425599643153 1.0
C      1  0.6789217959391  0.4213292225694  0.7584943945238 1.0
C      1  0.3535445331416  0.5078284649171  0.7793930872357 1.0
C      1  0.4635154146332  0.6450472022108  0.7516995235496 1.0
C      1  0.6335232574744  0.5913886625791  0.7978728396036 1.0
C      1  0.6124647240532  0.3758807007480  0.8115990307006 1.0
C      1  0.4423381570948  0.3476863851890  0.7859879243795 1.0
C      1  0.7837584895159  0.3760882743808  0.2921200929775 1.0
C      1  0.4746284151764  0.2092897266729  0.2991140201004 1.0
C      1  0.2122126920198  0.4263024920774  0.2817678142057 1.0
C      1  0.3325874314495  0.7585214374610  0.2971765967823 1.0
C      1  0.7110140752524  0.7222956544317  0.2784606519399 1.0
C      1  0.7449128965115  0.4714747567015  0.3063077289035 1.0
C      1  0.5492815936171  0.2808237598097  0.3087705493266 1.0
C      1  0.2709296699715  0.3415467763236  0.2799942702330 1.0
C      1  0.2828172944874  0.6732536643543  0.3117334181735 1.0
C      1  0.6065055380465  0.7067046129769  0.2937023475739 1.0
C      1  0.7254943190189  0.6300270311336  0.2535748366049 1.0
C      1  0.6977978809271  0.3446501698277  0.2606669712076 1.0
C      1  0.4182459843749  0.2708922684083  0.2457738348220 1.0
C      1  0.2631933857557  0.5099579077551  0.2577598653381 1.0
C      1  0.4204959172585  0.7371785980359  0.2627095949130 1.0
C      1  0.1700890201959  0.5838865635221  0.4400121702332 1.0
C      1  0.4780541529837  0.8649141513032  0.4389914958257 1.0
C      1  0.8141322081987  0.5990288168439  0.3864783794882 1.0
C      1  0.6911411288759  0.2389714290583  0.3813944372446 1.0
C      1  0.3050719178522  0.1846820135200  0.4324897424287 1.0
C      1  0.7766321332585  0.7421504887761  0.3406935956397 1.0
C      1  0.8249691257960  0.3119261353598  0.3435403608835 1.0
C      1  0.4530788996330  0.1618088937604  0.3754934434716 1.0
C      1  0.1738618692388  0.4341857773905  0.3707488445156 1.0
C      1  0.3426335188572  0.8083147730490  0.3810981321293 1.0
C      1  0.3780833653960  0.4139716156658  0.7848644869620 1.0
C      1  0.3787670826879  0.5982817189619  0.7824694783174 1.0
C      1  0.5580642705611  0.6532930499762  0.7903288570614 1.0
C      1  0.6572938717547  0.5036905076820  0.8118922746739 1.0
C      1  0.5353968468965  0.3277881493379  0.7916630720057 1.0
C      1  0.6274967502349  0.6100639526535  0.2580235156810 1.0
C      1  0.6663330667348  0.4345855122793  0.2443887376933 1.0
C      1  0.4924656081717  0.3340407813601  0.2430904208448 1.0
C      1  0.3598406131457  0.4758273745864  0.2704766787373 1.0
C      1  0.4477883296191  0.6411912412913  0.2797159327667 1.0
C      1  0.6890182202283  0.3318461347011  0.5193278117042 1.0
C      1  0.4198817599270  0.2754116593954  0.4996575937260 1.0
C      1  0.2905393517127  0.5534397836435  0.5415743140051 1.0
C      1  0.4223615211537  0.7462375774386  0.5294879268535 1.0
C      1  0.7095537911399  0.6280194266814  0.5104137544590 1.0
C      1  0.4376876942814  0.5282508161953  0.6312520808138 1.0
C      1  0.4842592396819  0.6139024344283  0.6555027451131 1.0
C      1  0.5767996142868  0.6020580545117  0.6203315969107 1.0
C      1  0.5872205383244  0.5036052889599  0.6003592063732 1.0
C      1  0.4990792126926  0.4624609979081  0.6077592418983 1.0
C      1  0.4362609297087  0.4842049926559  0.2108409470265 1.0
C      1  0.4759694983729  0.5708508275910  0.2148937487931 1.0
C      1  0.5684670383849  0.5588380745742  0.2025585927948 1.0
C      1  0.5900640772888  0.4659476350198  0.2035816431422 1.0
C      1  0.5043329121927  0.4177374305206  0.2048855924362 1.0
C      1  0.3995146040732  0.7867480133615  0.6232630987162 1.0
C      1  0.7291323952771  0.6544560530002  0.5960688298319 1.0
C      1  0.6900291270270  0.3285641279599  0.6142238626704 1.0
C      1  0.4070846113758  0.2571062243742  0.5978891227296 1.0
C      1  0.2326690546998  0.5093734056715  0.6064849746739 1.0
C      1  0.7304555558319  0.4081444402473  0.4824339369687 1.0
C      1  0.4916625436605  0.2145116098924  0.4542444717738 1.0
C      1  0.2262426369704  0.3801986784515  0.4292848564071 1.0
C      1  0.3380783154425  0.7417453179527  0.4636577431859 1.0
C      1  0.6155398063088  0.6701224063719  0.4800808956549 1.0
C      1  0.3631434122774  0.1403607233953  0.3933127867264 1.0
C      1  0.1414440544050  0.5150105247607  0.4059419095964 1.0
C      1  0.4018714556293  0.8737182885643  0.4002026742678 1.0
C      1  0.8281515571673  0.6923379015620  0.3856605065797 1.0
C      1  0.7832535019736  0.2471919698918  0.3783003763855 1.0
C      1  0.4821718177205  0.3536496207905  0.4727115085394 1.0
C      1  0.3680992267665  0.4258888325616  0.3567899600306 1.0
C      1  0.4021593820662  0.6044599146961  0.3675868269848 1.0
C      1  0.6065868859175  0.5773899634455  0.3536814876389 1.0
C      1  0.6175278487243  0.5029310640687  0.4085205556997 1.0
C      1  0.3863050843328  0.5129795398785  0.3626701709829 1.0
C      1  0.5992704296232  0.4520296214969  0.8746468870341 1.0
C      1  0.5509601514716  0.4666547553943  0.9463755963547 1.0
END
