TITL C-27630-8899-1 -6.655 3375.00 -1121.79256487 0 0 135 (C1) n - 1
REM
REM Run started: at 2020.12.26 11:56:52 in /rds/project/t2_vol4/rds-t2-cs072/BORA/CARBON/AIRSS/Generating-Clusters/Str-Search/Higher-Symm/C100-200
REM VASP from code version vasp.5.4.4.18Apr17-6-g9f103f2a35 (build Oct 11 2019 16:45:47) gamma-only
REM
REM
REM
REM
REM ./C.cell (533062f00bc710175b3da973d35f2034)
REM AIRSS Version 0.9.1 bugfix July 2018 build 013d7b7c2542+ Fri, 06 Jul 2018 19:26:36 +0100
REM compiler GCC version 4.8.5 20150623 (Red Hat 4.8.5-39)
REM options -cpp -mtune=generic -march=x86-64 -g -O0
REM seed -460444845 -493405631 -1304208447 -593884859 1694093569 -656413776 -1094745883 -1711617414 1626425274 1873571179 -285847521 -143912610
REM
REM C.POTCAR (d86ddea03c3ceb6dc662c8ad6801f873)
REM 
CELL 1.54180   15.00000   15.00000   15.00000   90.00000   90.00000   90.00000
LATT -1
SFAC C  
C      1  0.5178490212182  0.7978417698219  0.3985952504091 1.0
C      1  0.2257308742993  0.6146782606975  0.4071940877560 1.0
C      1  0.2978173188843  0.2336200508024  0.3816737946351 1.0
C      1  0.6918036034314  0.2242249629465  0.3850229767120 1.0
C      1  0.7824068471909  0.5878512822821  0.4046247026208 1.0
C      1  0.5104945420292  0.2041121464204  0.4129208714452 1.0
C      1  0.2367599821178  0.4128783639957  0.4129418213737 1.0
C      1  0.3032081077567  0.7732677996563  0.3783734232210 1.0
C      1  0.6967661478938  0.7744888376359  0.3775622668640 1.0
C      1  0.7827571328966  0.4097922694903  0.4061611709559 1.0
C      1  0.2056950615739  0.2385738304322  0.6187590642557 1.0
C      1  0.6449403170773  0.1546762941498  0.6209608886487 1.0
C      1  0.8694395720045  0.5415685905636  0.6113745610634 1.0
C      1  0.5605647004301  0.8605342421124  0.6245812390315 1.0
C      1  0.1591991662351  0.6827070225989  0.6282743168596 1.0
C      1  0.2028484507278  0.7514048988957  0.6169160128878 1.0
C      1  0.6400147606309  0.8427888097605  0.6145491225768 1.0
C      1  0.8687654745863  0.4594701368535  0.6105381595819 1.0
C      1  0.5653419846721  0.1346717863259  0.6235599446163 1.0
C      1  0.1643992047747  0.3096756488283  0.6259719621410 1.0
C      1  0.2805685321920  0.5901510073853  0.7361876233830 1.0
C      1  0.3404196228806  0.3210501415160  0.7297945751422 1.0
C      1  0.6696034447079  0.3142869819817  0.7616309730543 1.0
C      1  0.7217818645035  0.6054018924197  0.7527333994233 1.0
C      1  0.4994609179710  0.7579644935933  0.7493908973858 1.0
C      1  0.2846781327695  0.4045099766805  0.7341484747197 1.0
C      1  0.3348191680647  0.6754093205028  0.7337986221407 1.0
C      1  0.6653647991931  0.6850556556106  0.7573273304414 1.0
C      1  0.7242789481181  0.3952176725639  0.7546356240389 1.0
C      1  0.5035163843020  0.2387929189256  0.7500698890751 1.0
C      1  0.2782192820956  0.5639254286266  0.4788945297363 1.0
C      1  0.4313277234144  0.3515020742707  0.4494649319726 1.0
C      1  0.6082679588764  0.4089446232270  0.4315076614675 1.0
C      1  0.6980677284423  0.5499720704412  0.4471998552076 1.0
C      1  0.4842738775065  0.7302916664786  0.4604053906511 1.0
C      1  0.3110076311457  0.4757570121290  0.4497190137458 1.0
C      1  0.4314134177179  0.6523755880477  0.4511502086656 1.0
C      1  0.6078627950303  0.5887195046820  0.4286651331660 1.0
C      1  0.6981140200680  0.4487622190985  0.4493381255485 1.0
C      1  0.4857470674775  0.2790897172378  0.4690912627419 1.0
C      1  0.4140214422712  0.6265863565054  0.5447032177736 1.0
C      1  0.3622299994197  0.4648522578867  0.5413787607065 1.0
C      1  0.5048668434231  0.3431918667413  0.5434705291999 1.0
C      1  0.6580229515329  0.4523729957385  0.5442553548374 1.0
C      1  0.5864653389253  0.6119559624908  0.5196746380661 1.0
C      1  0.4169703512044  0.3921911341830  0.5397867736311 1.0
C      1  0.3485826439867  0.5625304189210  0.5527511687030 1.0
C      1  0.5059770406043  0.6568633474402  0.5394801775470 1.0
C      1  0.6579000023808  0.5495895920531  0.5426720703266 1.0
C      1  0.5874115740623  0.3878071629424  0.5231457456809 1.0
C      1  0.4712920600194  0.1384805626469  0.4590012429987 1.0
C      1  0.8331773630504  0.3568769893679  0.4547212110386 1.0
C      1  0.7281987697847  0.7853128588095  0.4530138021603 1.0
C      1  0.2968492716498  0.8088801251407  0.4526283177500 1.0
C      1  0.1666164203390  0.4095638574296  0.4667308555796 1.0
C      1  0.4707608566063  0.8273665508158  0.4679532678004 1.0
C      1  0.8323163046489  0.6405379334016  0.4541881646358 1.0
C      1  0.7273176517700  0.2128854578358  0.4585316787178 1.0
C      1  0.2984814306090  0.1918606669249  0.4528106555304 1.0
C      1  0.1787883257268  0.5861923279256  0.4748773143465 1.0
C      1  0.7810107338540  0.6496115461217  0.6898670277401 1.0
C      1  0.4328770882427  0.7967554819470  0.6969091226451 1.0
C      1  0.2077189667875  0.5454361926078  0.6979438163496 1.0
C      1  0.3504830657915  0.2378337105634  0.6864832601118 1.0
C      1  0.7268259756452  0.2713632671919  0.6963104569848 1.0
C      1  0.7832082379504  0.3509482691449  0.6917317070713 1.0
C      1  0.4388734824281  0.2007703084356  0.6933693597892 1.0
C      1  0.2108995473447  0.4472990496468  0.6954548089780 1.0
C      1  0.3445934656725  0.7587991789808  0.6893436815322 1.0
C      1  0.7221800773429  0.7278443924138  0.6917208110861 1.0
C      1  0.5919227143306  0.3666954970601  0.7824379574038 1.0
C      1  0.6479755755664  0.5470078120636  0.7758536344352 1.0
C      1  0.4988275239573  0.6654417022904  0.7721449592340 1.0
C      1  0.3594221572002  0.5440409189800  0.7714261957104 1.0
C      1  0.4154250707381  0.3694436188264  0.7667443240356 1.0
C      1  0.5885945433233  0.6311756543544  0.7805068981622 1.0
C      1  0.6492599348180  0.4523378926040  0.7765655913183 1.0
C      1  0.5027250567647  0.3318063337950  0.7710160908347 1.0
C      1  0.3613218172915  0.4520684803559  0.7708774666932 1.0
C      1  0.4109646201946  0.6278387438276  0.7694210229367 1.0
C      1  0.6360144709514  0.2550114421073  0.3156584956783 1.0
C      1  0.7744815925328  0.5473539692103  0.3137417034315 1.0
C      1  0.5487318583294  0.7741690976820  0.3086026817200 1.0
C      1  0.2625443975410  0.6271049816861  0.3175013080475 1.0
C      1  0.3103288273726  0.2984788156711  0.3139174844373 1.0
C      1  0.6426150729530  0.7454801908940  0.3061352552552 1.0
C      1  0.7738124735726  0.4495024727063  0.3149919125213 1.0
C      1  0.5410834705087  0.2295508644004  0.3210606431693 1.0
C      1  0.2617547654014  0.3837647842699  0.3212313576685 1.0
C      1  0.3167339241891  0.7092461103669  0.3096926545441 1.0
C      1  0.3310022890717  0.1665025554213  0.5379331623536 1.0
C      1  0.7639520274536  0.2375498567994  0.5414380989023 1.0
C      1  0.8197134534363  0.6810772874722  0.5353340824883 1.0
C      1  0.4187536317849  0.8585358515909  0.5445074043671 1.0
C      1  0.1343092034514  0.5451372668320  0.5505037167598 1.0
C      1  0.3271903833223  0.8299108884887  0.5403118619830 1.0
C      1  0.7616868703770  0.7607556845990  0.5373133224154 1.0
C      1  0.8206533810935  0.3175925207818  0.5371044578204 1.0
C      1  0.4241873434521  0.1397948680779  0.5407725013368 1.0
C      1  0.1416347988349  0.4487245575914  0.5459979652477 1.0
C      1  0.3861907069613  0.2993997019612  0.2572443459964 1.0
C      1  0.6589781032140  0.3255000871474  0.2567313780830 1.0
C      1  0.7201462271064  0.5910923150578  0.2512731073074 1.0
C      1  0.4874400000159  0.7335693229620  0.2514353643622 1.0
C      1  0.2838860261487  0.5533683209823  0.2633807091920 1.0
C      1  0.3923175881889  0.7040952800894  0.2536752857165 1.0
C      1  0.6634467134547  0.6724536226349  0.2499016401756 1.0
C      1  0.7178891611619  0.4051176215748  0.2543577727120 1.0
C      1  0.4815324884352  0.2689647375644  0.2610028085754 1.0
C      1  0.2826210364159  0.4525697419922  0.2622577324192 1.0
C      1  0.5062550604327  0.3438649619232  0.2017881969770 1.0
C      1  0.6533672840154  0.4520744763371  0.1972215998998 1.0
C      1  0.5970869980834  0.6254162293141  0.1960676065932 1.0
C      1  0.4156442744737  0.6256645062914  0.2003924338685 1.0
C      1  0.3589462783531  0.4517247657272  0.2011490141765 1.0
C      1  0.5101284873138  0.6554830784904  0.1962851519586 1.0
C      1  0.6545457979751  0.5439008636458  0.1956095359274 1.0
C      1  0.5936933908799  0.3722071165276  0.2012194697147 1.0
C      1  0.4120679873560  0.3754390337108  0.2018865879214 1.0
C      1  0.3606122396409  0.5512681350109  0.2023087089854 1.0
C      1  0.1564728409199  0.4005905582086  0.6290956366426 1.0
C      1  0.4722995239719  0.1424295922032  0.6240964520506 1.0
C      1  0.8348663630322  0.3733821148603  0.6161406739677 1.0
C      1  0.7142624683155  0.7858525565418  0.6167467805299 1.0
C      1  0.2862426354473  0.7919551472236  0.6182199511038 1.0
C      1  0.1490603538405  0.5906301260240  0.6325116006561 1.0
C      1  0.4668680064703  0.8541155168214  0.6261708958321 1.0
C      1  0.8347629465563  0.6273262614327  0.6160694303449 1.0
C      1  0.7183622323000  0.2121358305030  0.6223170054228 1.0
C      1  0.2911468342864  0.2032381961531  0.6164734076538 1.0
C      1  0.4469314915013  0.5733327982365  0.3947079706133 1.0
C      1  0.5379165515790  0.5472039255665  0.3794351000296 1.0
C      1  0.5405396360481  0.4482910424906  0.3761304915300 1.0
C      1  0.4511092665508  0.4200135542321  0.3855694827248 1.0
C      1  0.3942271797563  0.4946613478082  0.3961043007434 1.0
END
