TITL C-2700-441-8 -9.41 3375.00 -1600.64157762 0 0 195 (C1) n - 1
REM
REM Run started: at 2020.12.22 03:34:07 in /gpfs/home/chem/mssmkc/CARBON/AIRSS/Generating-Clusters/Str-Search/Higher-Symm/C100-200
REM VASP from code version vasp.5.4.4.18Apr17-6-g9f103f2a35 (build Oct 11 2019 16:45:47) gamma-only
REM
REM
REM
REM
REM ./C.cell (533062f00bc710175b3da973d35f2034)
REM AIRSS Version 0.9.1 bugfix July 2018 build 013d7b7c2542+ Fri, 06 Jul 2018 19:26:36 +0100
REM compiler GCC version 6.3.0
REM options -cpp -iprefix /gpfs/warwick/csc/orac/software/Core/GCCcore/6.3.0/bin/../lib/gcc/x86_64-pc-linux-gnu/6.3.0/ -mtune=generic -march=x86-64 -g -O0
REM seed -1390731754 1091534635 1115635690 575580133 -2005107565 1559678252 -388618096 -1949664630 -1196660068 -1181306349 -1935995076 1107343377
REM
REM C.POTCAR (d86ddea03c3ceb6dc662c8ad6801f873)
REM 
CELL 1.54180   15.00000   15.00000   15.00000   90.00000   90.00000   90.00000
LATT -1
SFAC C  
C      1  0.2707253175302  0.4803358705683  0.7605790411797 1.0
C      1  0.2701259055558  0.2686693448532  0.5802333047992 1.0
C      1  0.2518067585044  0.3627834291040  0.2989794752852 1.0
C      1  0.2431759838748  0.6503955461235  0.3230484305927 1.0
C      1  0.2604604713793  0.7350855236798  0.5879478015464 1.0
C      1  0.7281803725474  0.5282208708631  0.7824790280101 1.0
C      1  0.7329586673627  0.2151367709600  0.5669321401489 1.0
C      1  0.7275600464569  0.3183670420085  0.2431258832620 1.0
C      1  0.7057647349929  0.6636557612725  0.2720774574692 1.0
C      1  0.7275006302122  0.7787044900617  0.5821247398782 1.0
C      1  0.2769953574670  0.4768708417171  0.4218297735229 1.0
C      1  0.3113330711572  0.5714794241949  0.4642667943324 1.0
C      1  0.2730433875277  0.5569716566433  0.5594595457958 1.0
C      1  0.3220557620204  0.4664189482762  0.5869034980076 1.0
C      1  0.3161967281554  0.4129841124075  0.4933297057251 1.0
C      1  0.7735326624669  0.4096346358840  0.3886723998958 1.0
C      1  0.6791493423291  0.5999324020959  0.4545027759704 1.0
C      1  0.7330633346899  0.5909599429102  0.5457087655159 1.0
C      1  0.6848408241178  0.5221436275568  0.6129201030917 1.0
C      1  0.7147034087043  0.3727945269227  0.4641412241601 1.0
C      1  0.2007152633587  0.7624562941466  0.5211140824706 1.0
C      1  0.2056871109069  0.5465824172227  0.7614105721717 1.0
C      1  0.1973003308606  0.3077236969649  0.6332508514254 1.0
C      1  0.1733242100684  0.3314210890714  0.3470593442313 1.0
C      1  0.1650716003600  0.5925481754460  0.3146766870738 1.0
C      1  0.7817423525911  0.8253830005685  0.5198683668303 1.0
C      1  0.7931337026803  0.5870928802941  0.8133836747826 1.0
C      1  0.8002438177571  0.2212905878008  0.6315171737360 1.0
C      1  0.7854633969321  0.2437504026926  0.2525786720242 1.0
C      1  0.7709225470895  0.6501485709186  0.2037873070731 1.0
C      1  0.5398553061881  0.4883144030149  0.1327340770554 1.0
C      1  0.5286556328096  0.8440659359838  0.3584000436692 1.0
C      1  0.5444952627322  0.7330510273979  0.8010404330524 1.0
C      1  0.5633295580684  0.3165765243256  0.8168937991585 1.0
C      1  0.5373504548125  0.1458844913973  0.4069654828393 1.0
C      1  0.4444834029972  0.4937229557655  0.1457145925177 1.0
C      1  0.4371051093439  0.8519607742701  0.3790996158660 1.0
C      1  0.4499061512854  0.7163938689966  0.7894890513246 1.0
C      1  0.4700228203245  0.2946941229587  0.8103593320614 1.0
C      1  0.4434524072277  0.1445537841172  0.3952004882032 1.0
C      1  0.6096889645542  0.4621844136075  0.5677929762009 1.0
C      1  0.6259917860377  0.4246888936288  0.4688994489422 1.0
C      1  0.6223896492866  0.5159727415568  0.4160639787803 1.0
C      1  0.5840472702005  0.5934371458078  0.4771664982190 1.0
C      1  0.5571499080461  0.5524729604841  0.5661252701036 1.0
C      1  0.4242099660547  0.4525851250957  0.5695602754404 1.0
C      1  0.4172134263566  0.4282200281065  0.4680734468193 1.0
C      1  0.4359062203961  0.5139496717597  0.4197571223991 1.0
C      1  0.4145369419788  0.5844906004416  0.4879758078610 1.0
C      1  0.4565815860550  0.5479970511088  0.5763436375927 1.0
C      1  0.7352241184896  0.9070382012703  0.4931428212882 1.0
C      1  0.7494695819568  0.6556171682307  0.8710078179358 1.0
C      1  0.7665044966324  0.1799505328511  0.7173316866273 1.0
C      1  0.7348449332146  0.1637065045267  0.2324404264512 1.0
C      1  0.7340738345105  0.6385994595195  0.1186887685465 1.0
C      1  0.2480723232156  0.8450444186671  0.4719761599435 1.0
C      1  0.2560762208103  0.6314382217039  0.8175723615810 1.0
C      1  0.2736649103117  0.2396431980086  0.7562825407092 1.0
C      1  0.2440524572109  0.1901545443802  0.3262167678629 1.0
C      1  0.2347105610134  0.5633037635253  0.1704115072726 1.0
C      1  0.6135090345383  0.6650777043919  0.2139492300051 1.0
C      1  0.6556348772117  0.8415440034858  0.6082718476904 1.0
C      1  0.6352478450342  0.5541884756420  0.8293527840257 1.0
C      1  0.6672349512310  0.1501241231355  0.6055584264216 1.0
C      1  0.6476873340315  0.2838811441128  0.1945722244582 1.0
C      1  0.3071916122315  0.6726894413959  0.2489754287700 1.0
C      1  0.3286549556063  0.8064014631366  0.5966390075884 1.0
C      1  0.3337117408362  0.5011813624175  0.8341127162141 1.0
C      1  0.3388381399627  0.2079905321606  0.6198215737725 1.0
C      1  0.3180599981965  0.3061435729014  0.2550394994689 1.0
C      1  0.5776101694953  0.8229053997563  0.6614255026425 1.0
C      1  0.5751412343475  0.4780314418830  0.8750325709340 1.0
C      1  0.5812968470634  0.1311256109181  0.5701042744992 1.0
C      1  0.5669570304421  0.3321122368795  0.1783890640733 1.0
C      1  0.5495875830383  0.7483736413452  0.2182373686494 1.0
C      1  0.4050196208636  0.8073757215980  0.6549666612679 1.0
C      1  0.4100841051121  0.4510887674953  0.8594947865442 1.0
C      1  0.4135997396396  0.1636835179341  0.5711901895863 1.0
C      1  0.3974533611231  0.3398910136358  0.2050741447380 1.0
C      1  0.3828367859198  0.7369048312456  0.2533707630202 1.0
C      1  0.5617199383903  0.3369732759472  0.4408845772939 1.0
C      1  0.6123842429909  0.5232771869073  0.3175378579176 1.0
C      1  0.5399215349227  0.6745856742240  0.4393563923974 1.0
C      1  0.6106710993859  0.5843760995349  0.6526563554915 1.0
C      1  0.5705303748676  0.4051433243889  0.6468348896387 1.0
C      1  0.4546926036663  0.3398379761307  0.4342000470212 1.0
C      1  0.4257333017927  0.5299055873084  0.3263321756172 1.0
C      1  0.4396747648935  0.6789730020815  0.4619532113612 1.0
C      1  0.4308166135680  0.5844335353529  0.6672845203458 1.0
C      1  0.4640278036726  0.3896779591200  0.6401542851164 1.0
C      1  0.1814091760192  0.5198825844312  0.5368265724552 1.0
C      1  0.1180275921913  0.4675269698410  0.5936311604264 1.0
C      1  0.1217132106578  0.3737028462550  0.6095325873737 1.0
C      1  0.1255721582414  0.4048023188581  0.3943190838999 1.0
C      1  0.1811398483737  0.4768234577895  0.4367607563411 1.0
C      1  0.8164077023352  0.5441188900718  0.5100967571603 1.0
C      1  0.8772510076996  0.4826277533295  0.5632033773505 1.0
C      1  0.8950072973975  0.3953654909322  0.5176352604066 1.0
C      1  0.8748452134436  0.4084492157578  0.4194825514404 1.0
C      1  0.8126500240546  0.4978611203743  0.4188120177308 1.0
C      1  0.6585274312796  0.6425601143901  0.8729022420314 1.0
C      1  0.6820039283346  0.1419237733209  0.7005896661553 1.0
C      1  0.6484728890714  0.1884252251922  0.2001712728515 1.0
C      1  0.6355043013597  0.6338652762706  0.1198686532000 1.0
C      1  0.6568543329793  0.9152403543803  0.5458672042914 1.0
C      1  0.3373016366947  0.5968633459871  0.8412931062355 1.0
C      1  0.3523481935592  0.2170065776250  0.7136621778716 1.0
C      1  0.3253502922759  0.2193447710953  0.2929163820052 1.0
C      1  0.3173488498482  0.6052773724570  0.1830091865585 1.0
C      1  0.3288525872689  0.8557118516027  0.5142315120684 1.0
C      1  0.5644280409407  0.1643570869201  0.2413760554416 1.0
C      1  0.5429268594701  0.6431710190554  0.0580811528096 1.0
C      1  0.5686266574069  0.9210280131487  0.5077210450873 1.0
C      1  0.5299804995096  0.6566681032367  0.9567397467263 1.0
C      1  0.5987583561874  0.1670514305756  0.7429941299204 1.0
C      1  0.4806762478570  0.2018400532608  0.2254980703075 1.0
C      1  0.4625612841707  0.6659366461988  0.1193318993446 1.0
C      1  0.4874754255781  0.9040603162137  0.5498503908282 1.0
C      1  0.4767603974866  0.5951540289968  0.9110846232748 1.0
C      1  0.5110938255356  0.1525291787791  0.7102702922916 1.0
C      1  0.3929283045707  0.3959544551173  0.7120743305574 1.0
C      1  0.3851595043732  0.2742391543703  0.4698850912044 1.0
C      1  0.3637291869198  0.4726799847813  0.2813758150513 1.0
C      1  0.3654772788377  0.7096010848872  0.4037877850651 1.0
C      1  0.3603210116634  0.6503331998205  0.6709123845486 1.0
C      1  0.6118725232520  0.4480012239015  0.7281494443746 1.0
C      1  0.6079333010893  0.2660300678350  0.4903275264519 1.0
C      1  0.6458129346483  0.4518916997736  0.2651842848772 1.0
C      1  0.5835794192532  0.6841430041112  0.3521146444467 1.0
C      1  0.6441867712489  0.6756372730584  0.6624116229383 1.0
C      1  0.1147232342562  0.5472908751292  0.3950079420981 1.0
C      1  0.1069031055831  0.5745254071012  0.4979378820947 1.0
C      1  0.0479902106470  0.5277471315914  0.5573403404124 1.0
C      1  0.0363806940250  0.3371990772544  0.5926248921955 1.0
C      1  0.0510624193051  0.4628680125638  0.3781885782006 1.0
C      1  0.9024108560682  0.5383140192503  0.3947384481627 1.0
C      1  0.9062510266236  0.5834804821697  0.4808672018477 1.0
C      1  0.9557491695142  0.5362466901038  0.5496797350646 1.0
C      1  0.9646411627246  0.3458159767681  0.5521859072203 1.0
C      1  0.9566039533201  0.4616672520943  0.3755895181564 1.0
C      1  0.4663503960827  0.5870823387122  0.2649883970159 1.0
C      1  0.4686572178571  0.7655892655568  0.5082280961067 1.0
C      1  0.4782637032620  0.5726523870950  0.7443666395916 1.0
C      1  0.4904985397427  0.2900492878434  0.6525183297340 1.0
C      1  0.4685407811145  0.2948779745900  0.3431815237342 1.0
C      1  0.5619848762526  0.6072037737295  0.2818035238534 1.0
C      1  0.5582090893162  0.7636915360349  0.4852961465628 1.0
C      1  0.5748279796706  0.5456364459969  0.7400208799887 1.0
C      1  0.5818067427956  0.3052027011541  0.6625070190238 1.0
C      1  0.5604026162944  0.2857489752455  0.3511756533470 1.0
C      1  0.5607195226138  0.7715810491034  0.3051732680469 1.0
C      1  0.5934198984002  0.7436415954441  0.7130950277960 1.0
C      1  0.5928690403425  0.4062299281239  0.8184423182415 1.0
C      1  0.5764118460000  0.1775368026898  0.4879876558890 1.0
C      1  0.5873358596042  0.4245629508282  0.1889383262481 1.0
C      1  0.3862457422674  0.7790030533593  0.3389726369358 1.0
C      1  0.3992678019033  0.7319116261290  0.7131560436944 1.0
C      1  0.4172541139772  0.3734774007301  0.8033477820836 1.0
C      1  0.4058624833408  0.1801933356900  0.4766810481390 1.0
C      1  0.3964302161952  0.4339290593490  0.1990011044286 1.0
C      1  0.8282403582062  0.6530050051618  0.1255110697554 1.0
C      1  0.8239493189932  0.8887640232242  0.4656143838799 1.0
C      1  0.8422858520349  0.6394960087545  0.8725467246580 1.0
C      1  0.8552315370506  0.2050811045841  0.7051655414419 1.0
C      1  0.8281755221789  0.1599575291866  0.2475025502021 1.0
C      1  0.1716879263798  0.5606893432985  0.2267810783324 1.0
C      1  0.1602576225307  0.8202927426676  0.4619314612875 1.0
C      1  0.1696269532893  0.6246432074260  0.7898401245701 1.0
C      1  0.2054246868606  0.2723124676135  0.7191937269916 1.0
C      1  0.1774955440545  0.2384337000016  0.3459698435241 1.0
C      1  0.7143177333476  0.6860562623006  0.5998225814054 1.0
C      1  0.7071052686774  0.4815639666106  0.7041755661443 1.0
C      1  0.6993779497256  0.2853471347864  0.5062639158124 1.0
C      1  0.7206398966248  0.3957034936184  0.2967351951837 1.0
C      1  0.6822719602532  0.6605432056150  0.3640600918053 1.0
C      1  0.2886596485196  0.6458196783550  0.6124992825845 1.0
C      1  0.3146706271205  0.4379114454730  0.6850285462438 1.0
C      1  0.3100563406969  0.3144464377206  0.5047239619622 1.0
C      1  0.2937059167307  0.4430070161037  0.3296435713973 1.0
C      1  0.2944401442190  0.6516338384882  0.4045926570724 1.0
C      1  0.4225779445465  0.8582046416090  0.4824206903334 1.0
C      1  0.4333572534875  0.6249526480778  0.8263468169809 1.0
C      1  0.4500540460478  0.2311643657071  0.7322674335161 1.0
C      1  0.4223402945290  0.2035672514478  0.3117307555768 1.0
C      1  0.4177896575005  0.5882354950738  0.1664981624401 1.0
C      1  0.5786719351829  0.8515853857120  0.4394620583386 1.0
C      1  0.5805294584749  0.7013821233318  0.8817439769878 1.0
C      1  0.6086619146632  0.2641334528087  0.7505125954161 1.0
C      1  0.5832796509029  0.1851949868763  0.3349933678851 1.0
C      1  0.5798391167118  0.5584956206833  0.0901378447659 1.0
C      1  0.4965438471818  0.1265014252302  0.6174436375361 1.0
C      1  0.4759842247942  0.2880298695441  0.1792100276014 1.0
C      1  0.4860921695266  0.4975246232150  0.9038568359346 1.0
C      1  0.4593980071618  0.7362914170512  0.1830400036453 1.0
C      1  0.4869017637561  0.8598345950026  0.6383031565688 1.0
END
