TITL C-27620-7390-10 -9.046 3375.00 -1616.82210609 0 0 195 (C1) n - 1
REM
REM Run started: at 2020.12.26 23:01:28 in /rds/project/t2_vol4/rds-t2-cs072/BORA/CARBON/AIRSS/Generating-Clusters/Str-Search/Higher-Symm/C100-200
REM VASP from code version vasp.5.4.4.18Apr17-6-g9f103f2a35 (build Oct 11 2019 16:45:47) gamma-only
REM
REM
REM
REM
REM ./C.cell (533062f00bc710175b3da973d35f2034)
REM AIRSS Version 0.9.1 bugfix July 2018 build 013d7b7c2542+ Fri, 06 Jul 2018 19:26:36 +0100
REM compiler GCC version 4.8.5 20150623 (Red Hat 4.8.5-39)
REM options -cpp -mtune=generic -march=x86-64 -g -O0
REM seed -1570518764 1439323379 -2039233446 -845079682 -1692688796 473813602 -1774885428 -122598068 1184283983 417997426 -591193672 -2013863007
REM
REM C.POTCAR (d86ddea03c3ceb6dc662c8ad6801f873)
REM 
CELL 1.54180   15.00000   15.00000   15.00000   90.00000   90.00000   90.00000
LATT -1
SFAC C  
C      1  0.7876726752642  0.3775617575489  0.6580643094849 1.0
C      1  0.3225374469083  0.8559275620744  0.4137793713064 1.0
C      1  0.2931186256453  0.7840814282085  0.6530875025015 1.0
C      1  0.3078701251378  0.2277810124585  0.7353735733783 1.0
C      1  0.1573588559941  0.5203044869910  0.2899441950574 1.0
C      1  0.4304401568823  0.4044665037229  0.8747861836433 1.0
C      1  0.4872460731867  0.7369712947967  0.4101457673615 1.0
C      1  0.5268343271971  0.2480423285301  0.2077094734393 1.0
C      1  0.4379155980514  0.1817125440015  0.7181142790283 1.0
C      1  0.7246714953284  0.4976213239723  0.5854372386910 1.0
C      1  0.5855034370888  0.3415407113075  0.8624159476032 1.0
C      1  0.6544501121717  0.1165160535789  0.4687455421978 1.0
C      1  0.2548212107625  0.3067520395829  0.7384112772654 1.0
C      1  0.5586171968475  0.4956610279349  0.6368896494605 1.0
C      1  0.6288477725392  0.8129351184607  0.4280433159057 1.0
C      1  0.7191083018323  0.5210809497232  0.4254787815056 1.0
C      1  0.2614831914755  0.3858864868440  0.3021880589020 1.0
C      1  0.8265050715083  0.3424834247566  0.5795722124059 1.0
C      1  0.1045469172052  0.4468345344595  0.5805085942024 1.0
C      1  0.8700377915770  0.5076406106153  0.5162039535866 1.0
C      1  0.3785155174548  0.4811752886932  0.8665738721564 1.0
C      1  0.2158395609345  0.7533273976322  0.3371487313022 1.0
C      1  0.4324020922632  0.6566287063157  0.8653535725583 1.0
C      1  0.7830459640636  0.7258056138081  0.4331444333343 1.0
C      1  0.7813332823391  0.6622842945694  0.7231592458399 1.0
C      1  0.7815196923296  0.4285222177535  0.1417608871992 1.0
C      1  0.6090736736486  0.8366626560868  0.5210860576665 1.0
C      1  0.1646736972290  0.3919492206734  0.4324454724237 1.0
C      1  0.6631946655791  0.5767428148339  0.2842430995518 1.0
C      1  0.1790532044150  0.6803872161178  0.6615847432757 1.0
C      1  0.2277436429235  0.7143193060066  0.4237075611507 1.0
C      1  0.3045728642082  0.1732181218856  0.3767658638521 1.0
C      1  0.2460418579113  0.3483617688069  0.6528535142942 1.0
C      1  0.4129814749588  0.1596949694531  0.5005061612992 1.0
C      1  0.8876953177038  0.5735765256602  0.5937756364658 1.0
C      1  0.3435339145570  0.1670320829806  0.5726910855735 1.0
C      1  0.0891193920873  0.4393744706321  0.4807300789433 1.0
C      1  0.5705202696882  0.7759505758805  0.3642697109197 1.0
C      1  0.8740121702990  0.4042489512089  0.5224564718945 1.0
C      1  0.5040023560333  0.5831924254780  0.4862535241659 1.0
C      1  0.5746677946348  0.5428073672844  0.3011199927532 1.0
C      1  0.2640607806395  0.5146751083604  0.3937748276634 1.0
C      1  0.4229171387927  0.7812561637478  0.5431698794064 1.0
C      1  0.4661819438997  0.6335192091008  0.3922428729349 1.0
C      1  0.7748564936973  0.5192498935590  0.1888445584680 1.0
C      1  0.1642543675254  0.5891043819622  0.6264750306873 1.0
C      1  0.6469825493484  0.4607419523519  0.4235941342859 1.0
C      1  0.7683033097681  0.5153626063581  0.5074541337338 1.0
C      1  0.5509583059500  0.1848782913309  0.2695158561657 1.0
C      1  0.3685624871795  0.4680339302310  0.2043932390666 1.0
C      1  0.3900630276630  0.2411465807396  0.7838368890724 1.0
C      1  0.2163631003452  0.5149807397947  0.2136295395146 1.0
C      1  0.5170790325891  0.6240623393346  0.8632161801541 1.0
C      1  0.7157398851766  0.4115103606109  0.7893880823570 1.0
C      1  0.3122837466175  0.9123826114288  0.4903270859741 1.0
C      1  0.3472108328031  0.3715185354982  0.3588939632846 1.0
C      1  0.2624711481356  0.8313951405807  0.3489822712047 1.0
C      1  0.6455848326655  0.5819181790728  0.7639109388326 1.0
C      1  0.8989076856432  0.3759122610366  0.4367789784078 1.0
C      1  0.7780785115323  0.7911108206934  0.2112753885484 1.0
C      1  0.4321844269321  0.2369328611972  0.1953489356980 1.0
C      1  0.3680974716505  0.6306372086996  0.3922891503067 1.0
C      1  0.5717541190368  0.2892519164207  0.7831109546209 1.0
C      1  0.3921862320585  0.5114795749457  0.1236598891401 1.0
C      1  0.4369278183624  0.8293940315513  0.7770731462225 1.0
C      1  0.8423699350618  0.2231438689496  0.4706385291373 1.0
C      1  0.6142622384993  0.2199873068088  0.7275661088346 1.0
C      1  0.7356231182472  0.3364290216413  0.7215253421012 1.0
C      1  0.9044929462701  0.4503089842682  0.3717240000518 1.0
C      1  0.1997497593243  0.4494973193197  0.3539278615207 1.0
C      1  0.6092424730092  0.4312208497942  0.5034338343758 1.0
C      1  0.3100151811616  0.3586899855275  0.5150789336857 1.0
C      1  0.3208002750024  0.9211622696736  0.5731180718609 1.0
C      1  0.8138348243675  0.1410164978985  0.4352822300187 1.0
C      1  0.4835380501012  0.5037413714563  0.5479981796612 1.0
C      1  0.1608637100385  0.6756396894329  0.4736164337199 1.0
C      1  0.5082496142827  0.2793505356847  0.6332634956441 1.0
C      1  0.3496682549650  0.7966061695683  0.7994697088201 1.0
C      1  0.9203622254043  0.3321858582575  0.2686471904922 1.0
C      1  0.3503812485635  0.7368961478014  0.5985889770382 1.0
C      1  0.8424444317046  0.4615510169845  0.2101749274209 1.0
C      1  0.2684862983579  0.5062040021732  0.4825830490356 1.0
C      1  0.4828173310545  0.5821843425130  0.2938159553799 1.0
C      1  0.7930220124868  0.6600692829613  0.3529039476163 1.0
C      1  0.5736568025258  0.3404643200187  0.2053299638509 1.0
C      1  0.5086653443933  0.1241273899149  0.5147867717350 1.0
C      1  0.1998162451364  0.4265742259502  0.6077115460849 1.0
C      1  0.2348234166667  0.4179901663575  0.5101207964009 1.0
C      1  0.1068850559776  0.6101891652126  0.4235422743652 1.0
C      1  0.5031078740209  0.7323948865550  0.5092907731773 1.0
C      1  0.3807100649457  0.4736421825065  0.6717169876995 1.0
C      1  0.5297833859446  0.8067722814319  0.5723345278579 1.0
C      1  0.4863954653361  0.6807915692288  0.7867433086460 1.0
C      1  0.5104466942402  0.4136005623308  0.5019590110786 1.0
C      1  0.8747108702557  0.6233144430499  0.4074332279962 1.0
C      1  0.3339585839909  0.5611103153019  0.3471880609824 1.0
C      1  0.4786681492372  0.3225772431572  0.5444574153708 1.0
C      1  0.6986841801131  0.5694808879501  0.1952016979762 1.0
C      1  0.3059789483557  0.5157625148066  0.7136340029997 1.0
C      1  0.7278596489394  0.7695910249988  0.6262106485456 1.0
C      1  0.2954706585033  0.4723091878195  0.8069588935348 1.0
C      1  0.4815699948663  0.5286876211639  0.0978628895609 1.0
C      1  0.4056642441195  0.5087825740000  0.2936451346221 1.0
C      1  0.3973093740030  0.5672656845346  0.6864570142031 1.0
C      1  0.5018393258220  0.7703996178384  0.7480186549247 1.0
C      1  0.0928070219504  0.5396689111263  0.5783883287764 1.0
C      1  0.1717550661533  0.6849326916724  0.2801895376318 1.0
C      1  0.3803388894271  0.3317193257251  0.8282109697818 1.0
C      1  0.7332854555730  0.5074844448714  0.7534118876158 1.0
C      1  0.2160651058859  0.6769104087863  0.2003270719279 1.0
C      1  0.4785093152436  0.6169199594452  0.7099909262940 1.0
C      1  0.3882433014743  0.7803125113825  0.4448506739120 1.0
C      1  0.7357401697419  0.1143321441708  0.4270942171572 1.0
C      1  0.4992730062016  0.4143678830516  0.4001294141478 1.0
C      1  0.5010632350900  0.2504802337261  0.3956992068094 1.0
C      1  0.3945050138779  0.5256869689947  0.5915976721914 1.0
C      1  0.5938794502881  0.4765933697081  0.8875196352333 1.0
C      1  0.8524153968181  0.6805476326702  0.4810546248433 1.0
C      1  0.4352333517419  0.4019301473639  0.6822141876079 1.0
C      1  0.3016756705962  0.6611668038160  0.5488109733350 1.0
C      1  0.2786687797781  0.4434861984619  0.2216912736903 1.0
C      1  0.5896328878380  0.5621451161969  0.8522252805949 1.0
C      1  0.3592462547337  0.8731257874638  0.7397043519600 1.0
C      1  0.3149321532068  0.8800827276878  0.6580505016751 1.0
C      1  0.7002685352834  0.3982645115180  0.1274191044679 1.0
C      1  0.8591628773370  0.5352287249276  0.6734857513770 1.0
C      1  0.2401710656612  0.5225799384763  0.6372098697882 1.0
C      1  0.5376136251526  0.1671493939089  0.3572531763647 1.0
C      1  0.6099550360614  0.4047914244130  0.1329370386250 1.0
C      1  0.8928134586009  0.2827113189505  0.4161086367665 1.0
C      1  0.3473137965361  0.3107743821483  0.4408649270072 1.0
C      1  0.3360405905724  0.6427339355132  0.8559222336002 1.0
C      1  0.6978514048916  0.2462233700937  0.6910684367057 1.0
C      1  0.5538253948573  0.7086091034974  0.2110484709405 1.0
C      1  0.6268466169470  0.5721624663164  0.1299976855149 1.0
C      1  0.6880661251219  0.6743617949749  0.7428949266576 1.0
C      1  0.1318467381653  0.6050939783724  0.3268400186046 1.0
C      1  0.2942987933224  0.3681804501006  0.8035787388197 1.0
C      1  0.3529044343249  0.1702508532337  0.6640218983940 1.0
C      1  0.3189397011082  0.5512742062047  0.8724967914187 1.0
C      1  0.3210595292535  0.3261680276928  0.6005614811514 1.0
C      1  0.5732880083489  0.6513462602955  0.1343119919502 1.0
C      1  0.5651581321072  0.1146103410762  0.4371025990319 1.0
C      1  0.6563886972291  0.1465846628837  0.5633703423788 1.0
C      1  0.4359038376554  0.2602097114251  0.4713529726307 1.0
C      1  0.7996956913735  0.2527575465496  0.5525444205011 1.0
C      1  0.6991691545016  0.8122683767224  0.5479953976498 1.0
C      1  0.6025329975599  0.7537074261877  0.2751523911410 1.0
C      1  0.7796629707746  0.4757212053803  0.6642055893155 1.0
C      1  0.1987100571866  0.6667659813667  0.5650855325782 1.0
C      1  0.5799647868462  0.3676489983111  0.2926004829483 1.0
C      1  0.5489639383611  0.3340478032790  0.7068236050441 1.0
C      1  0.4155850670184  0.4291060856248  0.3522775218916 1.0
C      1  0.9173771479734  0.2718863100057  0.3257261618183 1.0
C      1  0.5632256629333  0.1364999840349  0.5913130460663 1.0
C      1  0.5250140738164  0.6488281202766  0.5432013956995 1.0
C      1  0.2650039399428  0.2423590040887  0.4389006759240 1.0
C      1  0.6571752278615  0.7450859925911  0.6877318044987 1.0
C      1  0.6568281262335  0.4067303823099  0.8580554047884 1.0
C      1  0.8972732943403  0.5310721992462  0.4208934542062 1.0
C      1  0.4031834360675  0.6630409286127  0.1441848057611 1.0
C      1  0.2501044733562  0.5955199581365  0.1703604910068 1.0
C      1  0.3367907654519  0.5918602011998  0.1313252723021 1.0
C      1  0.4686105357210  0.6565911945658  0.2208212332802 1.0
C      1  0.8050910413971  0.7094029313384  0.6415302527317 1.0
C      1  0.3217740748971  0.6957888083368  0.4517658469738 1.0
C      1  0.7212838207792  0.7889578467944  0.4554719614999 1.0
C      1  0.7253383804782  0.5843621311634  0.3561036435404 1.0
C      1  0.7755528384857  0.7219231327378  0.2779496909278 1.0
C      1  0.2866156828793  0.2174770444366  0.2905580100894 1.0
C      1  0.5708896745367  0.4938098582989  0.1113744279015 1.0
C      1  0.2410356936421  0.7241288054661  0.7150994116495 1.0
C      1  0.5799646491877  0.4580380799340  0.3500753229692 1.0
C      1  0.2973610113916  0.7175090402574  0.7996561897824 1.0
C      1  0.6366958007899  0.4675439694213  0.5832563688054 1.0
C      1  0.1904605136586  0.2938156626379  0.4012924999433 1.0
C      1  0.3679062864630  0.1205668349134  0.4154363264642 1.0
C      1  0.2260056531920  0.2907267158020  0.3111443373231 1.0
C      1  0.4855406147377  0.6244388540758  0.1055939727515 1.0
C      1  0.5374926782045  0.6571786327386  0.6386872412919 1.0
C      1  0.5306994764864  0.3279461682968  0.3640895868343 1.0
C      1  0.7232768919207  0.2081657125660  0.6020327354351 1.0
C      1  0.0792949929915  0.5384367983170  0.4783840601174 1.0
C      1  0.5227183471563  0.4236089838976  0.6952147636309 1.0
C      1  0.4162448514033  0.3261646901464  0.6259762311814 1.0
C      1  0.5321832624861  0.1864831741347  0.6712788491397 1.0
C      1  0.5578631771524  0.7564378286464  0.6635511708913 1.0
C      1  0.8614119182432  0.6655412214465  0.5765288928681 1.0
C      1  0.8973363745143  0.4233200558212  0.2758773424684 1.0
C      1  0.3563907880940  0.2257652674554  0.2273740728628 1.0
C      1  0.5699423495414  0.5781355535357  0.6907103064853 1.0
C      1  0.6977751639378  0.7635446809112  0.2549793328119 1.0
C      1  0.5230959600042  0.4051410030346  0.8954996277584 1.0
C      1  0.3070691697379  0.5567561021966  0.5574225517582 1.0
C      1  0.8124645989593  0.5769545156283  0.7442036099845 1.0
END
