TITL C-2700-441-48 -5.699 3375.00 -953.10981141 0 0 117 (C1) n - 1
REM
REM Run started: at 2020.12.23 11:14:08 in /gpfs/home/chem/mssmkc/CARBON/AIRSS/Generating-Clusters/Str-Search/Higher-Symm/C100-200
REM VASP from code version vasp.5.4.4.18Apr17-6-g9f103f2a35 (build Oct 11 2019 16:45:47) gamma-only
REM
REM
REM
REM
REM ./C.cell (533062f00bc710175b3da973d35f2034)
REM AIRSS Version 0.9.1 bugfix July 2018 build 013d7b7c2542+ Fri, 06 Jul 2018 19:26:36 +0100
REM compiler GCC version 6.3.0
REM options -cpp -iprefix /gpfs/warwick/csc/orac/software/Core/GCCcore/6.3.0/bin/../lib/gcc/x86_64-pc-linux-gnu/6.3.0/ -mtune=generic -march=x86-64 -g -O0
REM seed -994731692 412842723 -244488036 1986564261 1635134302 -566147554 -644630330 1729647755 -1576794303 -1505542753 694578027 1062902522
REM
REM C.POTCAR (d86ddea03c3ceb6dc662c8ad6801f873)
REM 
CELL 1.54180   15.00000   15.00000   15.00000   90.00000   90.00000   90.00000
LATT -1
SFAC C  
C      1  0.4312958669744  0.6601896820823  0.7612311588673 1.0
C      1  0.2424359081178  0.6712850163081  0.5953830615676 1.0
C      1  0.6544513142584  0.2830237004315  0.5759584846885 1.0
C      1  0.8447600274972  0.3434858280271  0.4640156498511 1.0
C      1  0.7301552501602  0.7547037470980  0.4988946343996 1.0
C      1  0.5722525032380  0.4488103881866  0.4782189988008 1.0
C      1  0.4780505162187  0.1237211912823  0.5676910110102 1.0
C      1  0.6998382305818  0.5270854960408  0.7474003297227 1.0
C      1  0.2716075268708  0.4550025990483  0.3465059778305 1.0
C      1  0.3462562201110  0.6335766708047  0.2088398965572 1.0
C      1  0.6108704094320  0.4022832810666  0.2336964866384 1.0
C      1  0.4442146094179  0.5009742786788  0.2048841016943 1.0
C      1  0.5429273742918  0.6361724609858  0.6025423222184 1.0
C      1  0.4740839613756  0.3068877786280  0.3166655669208 1.0
C      1  0.7569980463805  0.7317163720604  0.4114392260031 1.0
C      1  0.1289968276258  0.5351048948581  0.5312274717952 1.0
C      1  0.6735711982076  0.3504645405261  0.7414718910916 1.0
C      1  0.4281781639389  0.3430554352114  0.5269021609022 1.0
C      1  0.6532175677997  0.7785889547496  0.5459468866980 1.0
C      1  0.1844138813721  0.4603607510403  0.3982702929942 1.0
C      1  0.4317092358120  0.6113222269700  0.8423032227308 1.0
C      1  0.7188186764447  0.7227473582875  0.2290569847896 1.0
C      1  0.6329107605722  0.7418935722982  0.6331688750163 1.0
C      1  0.5644271947442  0.5120721321335  0.8469552025968 1.0
C      1  0.2431196394641  0.6759521753904  0.3503046822290 1.0
C      1  0.4898667788009  0.5613356825546  0.8727568793802 1.0
C      1  0.6084682309185  0.6557647029265  0.7672095592456 1.0
C      1  0.3540259538195  0.6575518891624  0.7043924348859 1.0
C      1  0.2974073735328  0.3587993854702  0.3348049709808 1.0
C      1  0.4889556363950  0.1697788785156  0.6409959467274 1.0
C      1  0.6109124922328  0.2619174054863  0.4059235590830 1.0
C      1  0.8062575621003  0.4583491539444  0.2999655520828 1.0
C      1  0.2733776250305  0.6272780964466  0.2759873114652 1.0
C      1  0.7965188627319  0.4643738009517  0.5884657101224 1.0
C      1  0.4319884351413  0.2762584871346  0.4614704891774 1.0
C      1  0.4033446082725  0.7213993853950  0.3681314916041 1.0
C      1  0.5268302819731  0.3756600184312  0.5336417593773 1.0
C      1  0.7199553225015  0.4373395171357  0.7321832826958 1.0
C      1  0.5235747420794  0.5483226433527  0.1621676340951 1.0
C      1  0.7880156328043  0.6833509905365  0.4855484223276 1.0
C      1  0.7275274737019  0.7169294619408  0.3241661527943 1.0
C      1  0.3376970296071  0.5170514669567  0.3849179410743 1.0
C      1  0.7076443238338  0.5877265389103  0.6651537768416 1.0
C      1  0.4616028435319  0.4623574240562  0.6796576144056 1.0
C      1  0.5021004028251  0.6374693889416  0.1544840419761 1.0
C      1  0.6310201263327  0.5679037317935  0.8032842723962 1.0
C      1  0.2780104288931  0.5211647709200  0.7744740052758 1.0
C      1  0.4227843856412  0.6524793706023  0.4443996248225 1.0
C      1  0.2682285813257  0.2374532123111  0.4299416764669 1.0
C      1  0.7920048060417  0.5253113106454  0.3632446308437 1.0
C      1  0.6097936487891  0.5705354131636  0.6289095804426 1.0
C      1  0.6604167431258  0.4603888553181  0.4367335663110 1.0
C      1  0.4827189896683  0.7808610612755  0.3519655603843 1.0
C      1  0.3893355506770  0.4604307804809  0.6115484001318 1.0
C      1  0.5068157294653  0.5117092535559  0.2760484870252 1.0
C      1  0.5926100302641  0.3438018033405  0.7832292121529 1.0
C      1  0.5621248849375  0.3069657538040  0.5874942325495 1.0
C      1  0.5511880793979  0.3357513560962  0.2755992062610 1.0
C      1  0.2638726482905  0.4379119251955  0.7550016276393 1.0
C      1  0.5443234122190  0.8100680281296  0.4136843338866 1.0
C      1  0.7356444101075  0.4076056952647  0.4673998539747 1.0
C      1  0.1938211539738  0.6360429698043  0.4283133196824 1.0
C      1  0.2933746628830  0.3207551341055  0.6380863269235 1.0
C      1  0.7782466090590  0.5577372835418  0.5968006807094 1.0
C      1  0.5195506518032  0.6904297148320  0.7377832570164 1.0
C      1  0.8334888422400  0.5290772835976  0.4499759780368 1.0
C      1  0.3623931519681  0.5394489028034  0.2152188988489 1.0
C      1  0.6318912595708  0.2977661510450  0.3209084508839 1.0
C      1  0.7601155778021  0.4045450924960  0.6500276193111 1.0
C      1  0.3599337785360  0.3706491113594  0.5860606477268 1.0
C      1  0.7758305970644  0.3896865678219  0.2629221370002 1.0
C      1  0.3013095024505  0.5327212464556  0.2922431953602 1.0
C      1  0.6922702319243  0.5244055304645  0.3721450237454 1.0
C      1  0.4400565361347  0.1781093109595  0.4227115788434 1.0
C      1  0.5369549486389  0.7239997725957  0.6473980169571 1.0
C      1  0.6891644377616  0.3564653934128  0.2655993117874 1.0
C      1  0.3939973482008  0.5313634856898  0.5507273003059 1.0
C      1  0.2766004125973  0.5982083528209  0.7258115088536 1.0
C      1  0.5128537816074  0.2541848401190  0.6595026843351 1.0
C      1  0.7543344588213  0.3172955164143  0.4694763805781 1.0
C      1  0.6349124244737  0.5676172754460  0.3011576389343 1.0
C      1  0.2300545032064  0.3147578105285  0.3909762226970 1.0
C      1  0.8256708513083  0.4427131078699  0.4965052278171 1.0
C      1  0.6738173329785  0.2650266641930  0.4833945522202 1.0
C      1  0.3685646985259  0.5610744882723  0.4578766290617 1.0
C      1  0.1501904738416  0.5521589882192  0.6100641686765 1.0
C      1  0.3066593399209  0.7398842324771  0.3832348168711 1.0
C      1  0.7055366608483  0.3248623587937  0.6492410913089 1.0
C      1  0.4860546657058  0.5631617640470  0.5675284249111 1.0
C      1  0.5463785158136  0.4234362420079  0.8183179195705 1.0
C      1  0.2975523949787  0.7418075698435  0.4752077140695 1.0
C      1  0.1588340338415  0.5441289630717  0.4426260803032 1.0
C      1  0.2606707404343  0.2408073697861  0.5982783664738 1.0
C      1  0.8058359521663  0.5961729126601  0.5135747993767 1.0
C      1  0.4790713748363  0.4000243997602  0.7528105908707 1.0
C      1  0.3372405367895  0.6886140216979  0.6147095584182 1.0
C      1  0.6740195411058  0.6802689977822  0.6952457800680 1.0
C      1  0.2678950720538  0.3619529430134  0.7159273970515 1.0
C      1  0.6792603121410  0.6529624920392  0.2784291097875 1.0
C      1  0.5937610823097  0.5007975513198  0.2249016688299 1.0
C      1  0.2220972441386  0.6892550162992  0.5042941925808 1.0
C      1  0.4458412155025  0.1114294736168  0.4895177987878 1.0
C      1  0.1601012120492  0.3739489627345  0.4216934353345 1.0
C      1  0.2525078739725  0.2179182276402  0.5193234091051 1.0
C      1  0.3608429225785  0.2342685499353  0.3972342795520 1.0
C      1  0.2091416494624  0.6083635852858  0.6554689529198 1.0
C      1  0.5078736227166  0.2521775313607  0.3968568838949 1.0
C      1  0.5302746894708  0.5161609769486  0.6434329170681 1.0
C      1  0.5292462408705  0.5353640621712  0.4825959410511 1.0
C      1  0.5378713608315  0.5781314799070  0.3342861982410 1.0
C      1  0.3744425560832  0.7122526319978  0.5270215288897 1.0
C      1  0.4334452776101  0.6797779743073  0.2029306413343 1.0
C      1  0.5125897788242  0.3094490024580  0.7389722853068 1.0
C      1  0.5117466293491  0.6024623205435  0.4235200032794 1.0
C      1  0.3762340890824  0.3076944051596  0.3282909979251 1.0
C      1  0.5871785446477  0.8089775321580  0.4850234586765 1.0
C      1  0.4538716645754  0.7274094819678  0.2838594233091 1.0
END
