TITL C-27459-4422-11 -5.411 3375.00 -970.83030048 0 0 117 (C1) n - 1
REM
REM Run started: at 2021.01.04 13:55:04 in /gpfs/home/chem/mssmkc/CARBON/AIRSS/Generating-Clusters/Str-Search/Higher-Symm/C100-200
REM VASP from code version vasp.5.4.4.18Apr17-6-g9f103f2a35 (build Oct 11 2019 16:45:47) gamma-only
REM
REM
REM
REM
REM ./C.cell (533062f00bc710175b3da973d35f2034)
REM AIRSS Version 0.9.1 bugfix July 2018 build 013d7b7c2542+ Fri, 06 Jul 2018 19:26:36 +0100
REM compiler GCC version 6.3.0
REM options -cpp -iprefix /gpfs/warwick/csc/orac/software/Core/GCCcore/6.3.0/bin/../lib/gcc/x86_64-pc-linux-gnu/6.3.0/ -mtune=generic -march=x86-64 -g -O0
REM seed -1864827593 -630617670 1981141196 -33579161 -597986580 -842520661 1434048221 1883909823 -42872873 -858025652 -199455664 1976112091
REM
REM C.POTCAR (d86ddea03c3ceb6dc662c8ad6801f873)
REM 
CELL 1.54180   15.00000   15.00000   15.00000   90.00000   90.00000   90.00000
LATT -1
SFAC C  
C      1  0.2072035154114  0.5984917313389  0.6226843662855 1.0
C      1  0.6386787031814  0.2121369129224  0.5713335836743 1.0
C      1  0.5367302200874  0.6349894342480  0.2379177527492 1.0
C      1  0.2311740396906  0.4342191590370  0.3810254825063 1.0
C      1  0.7826072380889  0.4472997854015  0.6200525680884 1.0
C      1  0.7706894159038  0.5418243340113  0.3484282464542 1.0
C      1  0.6307397755331  0.7693656814483  0.4553560522576 1.0
C      1  0.3879536066600  0.7958437847099  0.5485929287990 1.0
C      1  0.3979508038480  0.2176554253254  0.4066266575452 1.0
C      1  0.5555138214450  0.3761438848632  0.7814755037502 1.0
C      1  0.4425025868522  0.3902066288987  0.2039909053723 1.0
C      1  0.4224366765405  0.6369644613883  0.7751908141068 1.0
C      1  0.7565291145725  0.5383429616092  0.6125637741483 1.0
C      1  0.4016180294007  0.2188539240326  0.5030459216041 1.0
C      1  0.4443421138245  0.6357083745016  0.2253360364737 1.0
C      1  0.7798390322499  0.4471037010400  0.3453891561297 1.0
C      1  0.2103340270513  0.5005892925645  0.6292797658700 1.0
C      1  0.2423058098150  0.5270131322259  0.3894020088378 1.0
C      1  0.3901510083672  0.7786163371900  0.4550407773997 1.0
C      1  0.6400697902359  0.7888240086441  0.5500169183710 1.0
C      1  0.6390853413400  0.2331014584417  0.4767118790624 1.0
C      1  0.4593292195799  0.3815917781513  0.7607937698043 1.0
C      1  0.5419657627076  0.3945819134155  0.2037458355338 1.0
C      1  0.5188652644620  0.6247604000896  0.7690932607330 1.0
C      1  0.4373100436655  0.4783003756067  0.7393204023444 1.0
C      1  0.7646336004899  0.4396044284168  0.4484231583867 1.0
C      1  0.4711375326343  0.7893129239715  0.4048043516533 1.0
C      1  0.4405292140535  0.5395867079550  0.2530740034273 1.0
C      1  0.5345472858942  0.5268032629712  0.7437076992181 1.0
C      1  0.5911936589571  0.4763782790197  0.2087947994196 1.0
C      1  0.7668240248808  0.5898394985222  0.5316254214314 1.0
C      1  0.2622709947388  0.5553095800395  0.4823221528382 1.0
C      1  0.2533864918695  0.4626413810332  0.5443292939489 1.0
C      1  0.4921540526788  0.2481321557204  0.5338742439907 1.0
C      1  0.5466859214367  0.2572643438694  0.4454375048689 1.0
C      1  0.5478599709458  0.8264344707199  0.5507289291248 1.0
C      1  0.5990161127921  0.4593938455439  0.7806168702682 1.0
C      1  0.2359632199474  0.3886604357543  0.4669895836848 1.0
C      1  0.5470096690953  0.8140254698242  0.4540993462043 1.0
C      1  0.5413402630357  0.5390259821074  0.2643414877651 1.0
C      1  0.3728882898806  0.5546745354688  0.7744185254064 1.0
C      1  0.3896093942053  0.4674198685761  0.2090431741129 1.0
C      1  0.2185587627938  0.6296302597350  0.5359694066545 1.0
C      1  0.7481761953401  0.5395170583879  0.4479497879988 1.0
C      1  0.8039261542333  0.3948154744256  0.5384313233779 1.0
C      1  0.5510160739416  0.2125517897763  0.6084862421565 1.0
C      1  0.4852345043930  0.2248390700410  0.3666633293001 1.0
C      1  0.4728715450376  0.8061045750784  0.5998712358614 1.0
C      1  0.5609662105867  0.6938069617178  0.7217668210955 1.0
C      1  0.6845517485354  0.5617154385133  0.6798001815454 1.0
C      1  0.6881870516702  0.7223272193358  0.5910016739050 1.0
C      1  0.5781067364647  0.3175698162324  0.2472206786688 1.0
C      1  0.4376051508870  0.3105858657147  0.7022429789786 1.0
C      1  0.4058485773898  0.6983598114989  0.2860368912427 1.0
C      1  0.7193444271709  0.4105814261983  0.2756360399134 1.0
C      1  0.2441543295395  0.4771293051386  0.7116221207825 1.0
C      1  0.2976791012918  0.5655964170855  0.3168196850541 1.0
C      1  0.7075224343099  0.2941568472050  0.4594518950621 1.0
C      1  0.3327907341767  0.2664632550850  0.5417028373939 1.0
C      1  0.3210246728419  0.7082946362997  0.4308658093804 1.0
C      1  0.3950487927446  0.7139382951367  0.7257906336776 1.0
C      1  0.2530300228943  0.6384535133080  0.6980299729809 1.0
C      1  0.3096975893382  0.7520479632193  0.5871083912534 1.0
C      1  0.4129153063049  0.3116097507127  0.2499128840353 1.0
C      1  0.5958401304482  0.2986299003761  0.7425593593097 1.0
C      1  0.5745181838504  0.7001380435859  0.2936877643269 1.0
C      1  0.2738634645073  0.4017370432301  0.2982480199588 1.0
C      1  0.7358317325984  0.4116972681500  0.7026799195419 1.0
C      1  0.7075605455539  0.5805253300434  0.2869326330606 1.0
C      1  0.3200308199784  0.2674894976424  0.3809671070320 1.0
C      1  0.7150655457011  0.2654607339946  0.6114545872790 1.0
C      1  0.6760397306271  0.6834699379137  0.4262757795647 1.0
C      1  0.4186112957825  0.4784896967392  0.6331338000946 1.0
C      1  0.6761356781963  0.3917331727641  0.4532022797523 1.0
C      1  0.4305172937016  0.5830151817521  0.4188464615144 1.0
C      1  0.3937764171544  0.5361726950998  0.3419012167549 1.0
C      1  0.5870872647284  0.5343763721480  0.6528671921039 1.0
C      1  0.5966493609676  0.4192290603189  0.3986320576651 1.0
C      1  0.5791906100045  0.5623722087138  0.5133694483098 1.0
C      1  0.3574148394114  0.6166910522802  0.4726918246365 1.0
C      1  0.3469282922791  0.4269941962077  0.5764288702250 1.0
C      1  0.4700552936460  0.3389083056504  0.5788174865228 1.0
C      1  0.5345084826824  0.3553131019044  0.4167345364128 1.0
C      1  0.5704681727483  0.6177903632853  0.5974968184336 1.0
C      1  0.5757979157265  0.4739512235920  0.5713031896916 1.0
C      1  0.3837539555442  0.4189175930664  0.4799786581496 1.0
C      1  0.5138346741884  0.5603724377955  0.4393037234713 1.0
C      1  0.5761485420311  0.5195026284922  0.3742000030921 1.0
C      1  0.4190128853870  0.5731173403671  0.6186826844794 1.0
C      1  0.3946774117226  0.4534102518120  0.3935394398151 1.0
C      1  0.3972897618515  0.6299665428205  0.5571840402914 1.0
C      1  0.6484101454793  0.5711234751925  0.4410665479374 1.0
C      1  0.6379037413854  0.4044081185757  0.5464322100242 1.0
C      1  0.6523397057770  0.3430401408343  0.6066977613327 1.0
C      1  0.4462233411740  0.3847666602898  0.4209701951725 1.0
C      1  0.4777877860740  0.6503845902460  0.6090011535434 1.0
C      1  0.6796544311593  0.4928261877021  0.2351759707496 1.0
C      1  0.2823452845768  0.5581038536793  0.7494008572893 1.0
C      1  0.7694135185923  0.3063915302001  0.5369723187822 1.0
C      1  0.4866064825850  0.7436819571839  0.3252441449381 1.0
C      1  0.3026905525975  0.4766687638781  0.2471028675680 1.0
C      1  0.6879289262206  0.4796136822419  0.7460075168159 1.0
C      1  0.7335841081888  0.6740028283356  0.5188639086882 1.0
C      1  0.2569480140776  0.7135811901966  0.5152095964360 1.0
C      1  0.5266235887923  0.2544785294115  0.6929348693466 1.0
C      1  0.4954976771199  0.2670787849341  0.2817664432691 1.0
C      1  0.4780088018492  0.7370217063976  0.6741517779556 1.0
C      1  0.2783835041039  0.3032171500201  0.4667950483700 1.0
C      1  0.3234352197311  0.6758890237299  0.3291629283138 1.0
C      1  0.6699849629156  0.3288120412810  0.2746727370206 1.0
C      1  0.6852678358906  0.3216818339968  0.6949530697929 1.0
C      1  0.3108875740967  0.7131300090618  0.6789160433516 1.0
C      1  0.3743752762189  0.3287891044932  0.6112189662131 1.0
C      1  0.6637779625270  0.6655583031975  0.3225271117871 1.0
C      1  0.6401459522028  0.6650237959702  0.6599020896010 1.0
C      1  0.3273407795445  0.3183466370808  0.3003659408543 1.0
C      1  0.4925756461652  0.4281126216588  0.5870002893870 1.0
END
