TITL C-27620-7390-4 -8.223 3375.00 -1640.39377485 0 0 199 (C1) n - 1
REM
REM Run started: at 2020.12.26 15:59:12 in /rds/project/t2_vol4/rds-t2-cs072/BORA/CARBON/AIRSS/Generating-Clusters/Str-Search/Higher-Symm/C100-200
REM VASP from code version vasp.5.4.4.18Apr17-6-g9f103f2a35 (build Oct 11 2019 16:45:47) gamma-only
REM
REM
REM
REM
REM ./C.cell (533062f00bc710175b3da973d35f2034)
REM AIRSS Version 0.9.1 bugfix July 2018 build 013d7b7c2542+ Fri, 06 Jul 2018 19:26:36 +0100
REM compiler GCC version 4.8.5 20150623 (Red Hat 4.8.5-39)
REM options -cpp -mtune=generic -march=x86-64 -g -O0
REM seed -1778390149 -1918545228 -880341147 410719927 -468845602 -876062851 -900486920 139679409 1870748357 -467002648 759797839 -1477419084
REM
REM C.POTCAR (d86ddea03c3ceb6dc662c8ad6801f873)
REM 
CELL 1.54180   15.00000   15.00000   15.00000   90.00000   90.00000   90.00000
LATT -1
SFAC C  
C      1  0.2384610838285  0.5626758449482  0.4556776419905 1.0
C      1  0.3082158774124  0.5464033509764  0.2909553483830 1.0
C      1  0.4905440771155  0.5308517596263  0.2345914228299 1.0
C      1  0.7158386335963  0.5467293810254  0.2873506374069 1.0
C      1  0.7991722265418  0.5721258741673  0.4829937918073 1.0
C      1  0.7684082308904  0.5996188251829  0.6529494787014 1.0
C      1  0.6241874387344  0.5370123685162  0.7384888098747 1.0
C      1  0.4200953696766  0.5477120983114  0.8009221669424 1.0
C      1  0.2465509681955  0.5266850619874  0.6565885982082 1.0
C      1  0.5760768405262  0.1980627080674  0.3580361417209 1.0
C      1  0.6267293088021  0.2051456742033  0.4496989437796 1.0
C      1  0.5731214770105  0.2051199260721  0.5330137145367 1.0
C      1  0.5845060129060  0.2598311926172  0.6109086090795 1.0
C      1  0.5154700074809  0.2523890109131  0.6848791757629 1.0
C      1  0.3293233749596  0.2281687482914  0.6097364823019 1.0
C      1  0.2983607825843  0.2270832073878  0.5218998472569 1.0
C      1  0.3914662545151  0.2226623904099  0.3743942569346 1.0
C      1  0.4700390130536  0.2037620617879  0.3213251885951 1.0
C      1  0.1818658946393  0.3405321328532  0.4230151162482 1.0
C      1  0.2881899694134  0.3467256799104  0.2503420283675 1.0
C      1  0.5040709025994  0.3036564601037  0.1552702890324 1.0
C      1  0.6693486549298  0.2995603920738  0.2532922091502 1.0
C      1  0.8801179708360  0.3180516720711  0.5020839592728 1.0
C      1  0.8397774731361  0.3434074846610  0.6469914263814 1.0
C      1  0.5572710241659  0.2844198196987  0.7760906021323 1.0
C      1  0.3280282219284  0.2850271981593  0.7774708344679 1.0
C      1  0.1915344631719  0.3448661077964  0.6603486601093 1.0
C      1  0.1042399113507  0.5953731380136  0.2660162797231 1.0
C      1  0.3499063196290  0.5663298390973  0.0479306748048 1.0
C      1  0.6583285809897  0.5611087297691  0.0868167845893 1.0
C      1  0.8470095819761  0.5254054318828  0.2739708507480 1.0
C      1  0.9818642823873  0.6236216136749  0.6343648006761 1.0
C      1  0.7698300570981  0.5600599024264  0.8674273361929 1.0
C      1  0.3810289705279  0.5934855915075  0.9673596293336 1.0
C      1  0.2066615170687  0.5680738799897  0.8543638877606 1.0
C      1  0.0372874298320  0.6039051327926  0.5617333794701 1.0
C      1  0.7194423381653  0.6765490314700  0.1962982274913 1.0
C      1  0.7990561141175  0.6708339519435  0.3608490981959 1.0
C      1  0.8439902456869  0.7426493541043  0.6271396625877 1.0
C      1  0.6588595204818  0.6744796476458  0.8037988061644 1.0
C      1  0.4552836183321  0.6883549999455  0.8520264500783 1.0
C      1  0.2080636002286  0.6678537927371  0.7219235901535 1.0
C      1  0.1700988149042  0.7002186194255  0.4933864019150 1.0
C      1  0.2472780394500  0.6928011054594  0.2608635881636 1.0
C      1  0.4414195885985  0.6661804507172  0.1679419930382 1.0
C      1  0.8599402085160  0.5865266415288  0.3469537367705 1.0
C      1  0.9082131809495  0.6837833740151  0.6530952858793 1.0
C      1  0.6854147638934  0.5981234904135  0.8604733143871 1.0
C      1  0.4544770572926  0.6348343105663  0.9285643215248 1.0
C      1  0.1680977423368  0.5959029926629  0.7733939709674 1.0
C      1  0.1043958375681  0.6365318386511  0.5011102860115 1.0
C      1  0.1853269665657  0.6264700715209  0.2318340321171 1.0
C      1  0.4007507714428  0.5979724008469  0.1233171080299 1.0
C      1  0.7226771411428  0.5960850714848  0.1433036155556 1.0
C      1  0.8589407635417  0.6025826169322  0.6820472281987 1.0
C      1  0.6337783748339  0.5146923264223  0.8267635877511 1.0
C      1  0.4273979333856  0.5378684341704  0.8972641945274 1.0
C      1  0.1541573511622  0.5090786967839  0.7088328124309 1.0
C      1  0.1494289852008  0.5552591198184  0.4705292105794 1.0
C      1  0.2340595982468  0.5394461373573  0.2315022397877 1.0
C      1  0.4374252581452  0.5192473400614  0.1616239933932 1.0
C      1  0.7643997887531  0.5218143166808  0.2034528597811 1.0
C      1  0.8761834002941  0.5454048961902  0.4350804077245 1.0
C      1  0.6700952584407  0.7939033930374  0.2948656545378 1.0
C      1  0.7506513886064  0.8077611493625  0.4537862527234 1.0
C      1  0.7126610794233  0.8308269851960  0.6209861349230 1.0
C      1  0.5837249197554  0.7868589869993  0.7132814219289 1.0
C      1  0.4054572524629  0.7861966443537  0.7388054406301 1.0
C      1  0.2891804398487  0.7758289792414  0.6305258924452 1.0
C      1  0.2803159100052  0.8082742028155  0.4514810889015 1.0
C      1  0.3629049449684  0.7941730397356  0.3102514517428 1.0
C      1  0.5278106962409  0.7825532364921  0.2325878403429 1.0
C      1  0.3353569513016  0.6822951924626  0.6340781570682 1.0
C      1  0.3218057657456  0.7145960547208  0.4382431943440 1.0
C      1  0.3687982373364  0.7033797698032  0.3577967749452 1.0
C      1  0.5524019877112  0.6929100254300  0.2801358205609 1.0
C      1  0.6369852860100  0.7008749742992  0.3185984070980 1.0
C      1  0.7098384864397  0.7225691492056  0.4926966255829 1.0
C      1  0.6810133325278  0.7310571180912  0.5927290957487 1.0
C      1  0.6009767259465  0.7021315561997  0.6557574739537 1.0
C      1  0.4024224715595  0.6906516572014  0.6990900992141 1.0
C      1  0.2545169592774  0.6555369242872  0.4656103702341 1.0
C      1  0.3236058118516  0.6408862418365  0.2970418395931 1.0
C      1  0.5020727264143  0.6256062602518  0.2394397138460 1.0
C      1  0.7196870588545  0.6472018336374  0.2961781613635 1.0
C      1  0.7615067871960  0.6545722796736  0.4529891891176 1.0
C      1  0.7612589666461  0.6889546723637  0.6285900468878 1.0
C      1  0.6195912515125  0.6335005269721  0.7254963628681 1.0
C      1  0.4302852289753  0.6372867399895  0.7738437998819 1.0
C      1  0.2618797282079  0.6196658442227  0.6563377922471 1.0
C      1  0.1507439578834  0.3890822900468  0.3406457743248 1.0
C      1  0.3228497260433  0.3466488937087  0.1644078011330 1.0
C      1  0.5735098889092  0.3602164812092  0.1258425481764 1.0
C      1  0.7544088065603  0.3034019389806  0.2944550709982 1.0
C      1  0.9200971520801  0.4029986440309  0.5308384163291 1.0
C      1  0.7843695172614  0.3770352405583  0.7136509253027 1.0
C      1  0.4992248577446  0.3082760241602  0.8466785159515 1.0
C      1  0.2531282344967  0.3266934290835  0.8126769411347 1.0
C      1  0.1329770274636  0.3862130110689  0.6012447813813 1.0
C      1  0.5371801968231  0.4378676355142  0.0784683653943 1.0
C      1  0.8003979486632  0.3758936207719  0.2487392417204 1.0
C      1  0.9128411637179  0.4573175312428  0.4521357336284 1.0
C      1  0.8390275151241  0.4432829466196  0.7597697971425 1.0
C      1  0.5269710833153  0.3930999172899  0.8895211883455 1.0
C      1  0.2760244778264  0.4009485465840  0.8760145476343 1.0
C      1  0.0950185000118  0.4672752912409  0.6312473933545 1.0
C      1  0.0882086235024  0.4582413707572  0.3668510102715 1.0
C      1  0.2784657888599  0.4222013588988  0.1217859619340 1.0
C      1  0.6409351098748  0.4672393357910  0.6689291051414 1.0
C      1  0.4362564332727  0.4757945314590  0.7440596187702 1.0
C      1  0.3053771760018  0.4572232061065  0.6285003402996 1.0
C      1  0.2950026307899  0.4814990271305  0.4457351304076 1.0
C      1  0.3468167231294  0.4729282882749  0.3528500591390 1.0
C      1  0.5155034806001  0.4446851748399  0.2831942908623 1.0
C      1  0.6579361694835  0.4844242337557  0.3240965055004 1.0
C      1  0.7320504691930  0.5135865448085  0.5207473332425 1.0
C      1  0.7034268232178  0.5296934816315  0.6126162057940 1.0
C      1  0.0981978383201  0.4723117096255  0.4702953341899 1.0
C      1  0.2092267228181  0.4540346737429  0.1890578621028 1.0
C      1  0.4342263306064  0.4405445250275  0.1035579441440 1.0
C      1  0.7483077592897  0.4222043295682  0.1862231599247 1.0
C      1  0.8915631850367  0.3998055753866  0.3765327671374 1.0
C      1  0.9187302835833  0.4599661730476  0.7007773695575 1.0
C      1  0.6093376987995  0.4202529400477  0.8449562792138 1.0
C      1  0.3687866385856  0.3904378741204  0.8953238280158 1.0
C      1  0.1619672340019  0.4397159048836  0.7788467474129 1.0
C      1  0.5167469182974  0.4744188992214  0.3793189931742 1.0
C      1  0.6036743798215  0.4947505912332  0.4029199643931 1.0
C      1  0.6430625293104  0.5212247187357  0.4826750821681 1.0
C      1  0.6028552051868  0.5428884394051  0.5632044732160 1.0
C      1  0.5511798924660  0.4744882099086  0.6146707459748 1.0
C      1  0.4637504667063  0.4957548002331  0.6533553831706 1.0
C      1  0.3959128902913  0.4735445344459  0.5844228555358 1.0
C      1  0.3844747730476  0.4940676508672  0.4898015815888 1.0
C      1  0.4301234484240  0.4895793489763  0.4112266279390 1.0
C      1  0.4522394439002  0.7605935697344  0.1729168984629 1.0
C      1  0.6846179053770  0.7655109909218  0.1986661790428 1.0
C      1  0.8119593362731  0.7739911713913  0.3766443409194 1.0
C      1  0.8139672028304  0.8307736756398  0.6077528049750 1.0
C      1  0.6637844180579  0.7694900591517  0.7741825017307 1.0
C      1  0.4542263327715  0.7805046136833  0.8264933559483 1.0
C      1  0.2365269054477  0.7617264665436  0.7166543841077 1.0
C      1  0.1904414668713  0.7932073422259  0.4968525915962 1.0
C      1  0.2637602410021  0.7846238373369  0.2873424324364 1.0
C      1  0.2490833801980  0.3977673450358  0.4770609108785 1.0
C      1  0.3588987810463  0.3721900038697  0.3179817555433 1.0
C      1  0.4499805729910  0.3669549827150  0.2632861378059 1.0
C      1  0.6118134393140  0.4324671743763  0.2614616256313 1.0
C      1  0.7758089762515  0.2779771079410  0.3843123640088 1.0
C      1  0.8182076266499  0.2965350086094  0.5688945230713 1.0
C      1  0.6833283489188  0.3696124902806  0.6976664428625 1.0
C      1  0.4329828342460  0.3848673782457  0.7549465518139 1.0
C      1  0.2829693496413  0.3682419139114  0.6450599440455 1.0
C      1  0.6537481268903  0.3785946537299  0.1893463753333 1.0
C      1  0.8592215621108  0.3156793665496  0.4123931911898 1.0
C      1  0.9145344473712  0.4016875534591  0.6281828516772 1.0
C      1  0.6259111390204  0.3516200622098  0.7778818501890 1.0
C      1  0.4028430894270  0.3239852617781  0.8295478087434 1.0
C      1  0.1802195250867  0.3521836538059  0.7556975038005 1.0
C      1  0.1519592918857  0.3928602206897  0.5035272203936 1.0
C      1  0.2006854689689  0.3880811723593  0.2597310923152 1.0
C      1  0.4208745531784  0.3591223148759  0.1605180725952 1.0
C      1  0.6699221318249  0.8372543775605  0.7112261897627 1.0
C      1  0.4985995227261  0.8133275276570  0.7543346568201 1.0
C      1  0.3125612424785  0.8139703151824  0.7191570775779 1.0
C      1  0.2583488368441  0.8216776217402  0.5486211543096 1.0
C      1  0.2872368609843  0.8409429064796  0.3564942292769 1.0
C      1  0.4320456404776  0.8127041920400  0.2442575805650 1.0
C      1  0.6157038073453  0.8261703933182  0.2167350306800 1.0
C      1  0.7402347165767  0.8240543073054  0.3548104386469 1.0
C      1  0.7638493157538  0.8603201628121  0.5390023430708 1.0
C      1  0.3609649763593  0.1481617260461  0.5072597770731 1.0
C      1  0.3948757048637  0.1371229413565  0.4210262662617 1.0
C      1  0.4663197333131  0.1062241495400  0.3621027946310 1.0
C      1  0.5599462973553  0.1005114355479  0.3801044952260 1.0
C      1  0.6102195757338  0.0967723831520  0.4598474326791 1.0
C      1  0.5622584928900  0.1081089639371  0.5453828297333 1.0
C      1  0.5318491975113  0.0864812712630  0.6280137339322 1.0
C      1  0.4711654400787  0.1551917382280  0.6529016601488 1.0
C      1  0.3922339378945  0.1562985881194  0.6025386180710 1.0
C      1  0.4476942375221  0.4417891948390  0.9156290598581 1.0
C      1  0.2124033084099  0.4726385673028  0.8556006201311 1.0
C      1  0.0569520792483  0.5094214591666  0.5577032317677 1.0
C      1  0.0739828286037  0.5296199971587  0.3091708363087 1.0
C      1  0.3392237506352  0.4686394569012  0.0688596458513 1.0
C      1  0.5969357124193  0.5073561797885  0.0661273112763 1.0
C      1  0.8626669455541  0.4318022271956  0.2949427395044 1.0
C      1  0.9350967925680  0.5509049808350  0.6859575417084 1.0
C      1  0.8135779421821  0.4992015335132  0.8286719558124 1.0
C      1  0.5062341376040  0.2704825457198  0.2499172828481 1.0
C      1  0.5966980400343  0.2541908315301  0.2819050483276 1.0
C      1  0.7129160122094  0.2520846295585  0.4563216202374 1.0
C      1  0.7302018786812  0.2796054741363  0.5467163907485 1.0
C      1  0.6650612993318  0.3026398003815  0.6185094889479 1.0
C      1  0.4456188305635  0.3316929126791  0.6718435812789 1.0
C      1  0.3451636012762  0.2981012273579  0.6734863549105 1.0
C      1  0.2749109203548  0.3025819726272  0.4553779886025 1.0
C      1  0.3460847150395  0.2996950056587  0.3861175688980 1.0
C      1  0.4705337345707  0.4049396588433  0.6034756807172 1.0
END
