TITL C-2700-441-22 -5.434 3375.00 -911.02961229 0 0 111 (C1) n - 1
REM
REM Run started: at 2020.12.22 15:54:00 in /gpfs/home/chem/mssmkc/CARBON/AIRSS/Generating-Clusters/Str-Search/Higher-Symm/C100-200
REM VASP from code version vasp.5.4.4.18Apr17-6-g9f103f2a35 (build Oct 11 2019 16:45:47) gamma-only
REM
REM
REM
REM
REM ./C.cell (533062f00bc710175b3da973d35f2034)
REM AIRSS Version 0.9.1 bugfix July 2018 build 013d7b7c2542+ Fri, 06 Jul 2018 19:26:36 +0100
REM compiler GCC version 6.3.0
REM options -cpp -iprefix /gpfs/warwick/csc/orac/software/Core/GCCcore/6.3.0/bin/../lib/gcc/x86_64-pc-linux-gnu/6.3.0/ -mtune=generic -march=x86-64 -g -O0
REM seed 547514567 1392145505 252937917 -858624096 1762310623 -851871840 -574684623 1108631182 1790932729 1052816153 -927960721 -2125777834
REM
REM C.POTCAR (d86ddea03c3ceb6dc662c8ad6801f873)
REM 
CELL 1.54180   15.00000   15.00000   15.00000   90.00000   90.00000   90.00000
LATT -1
SFAC C  
C      1  0.3151604205460  0.5957509502178  0.2305425829423 1.0
C      1  0.2977725794351  0.4036830958767  0.4931536363143 1.0
C      1  0.6310585208294  0.5181948629480  0.3245785008748 1.0
C      1  0.5653123686633  0.7833557575577  0.6453330400720 1.0
C      1  0.3421112918374  0.4025452407805  0.5841187070821 1.0
C      1  0.6417188235282  0.8015750357141  0.5885713724570 1.0
C      1  0.3100008253325  0.5994741280832  0.7407842157880 1.0
C      1  0.6462243123100  0.7604438615846  0.4259929649819 1.0
C      1  0.6138485576107  0.5496075611034  0.4963385096214 1.0
C      1  0.3687834164257  0.3923521802328  0.7405867612134 1.0
C      1  0.7968565270347  0.6570066819030  0.4167519621206 1.0
C      1  0.5949768221437  0.5003311379836  0.5733561771237 1.0
C      1  0.1492440503537  0.4870252200773  0.5781865835622 1.0
C      1  0.5940715732999  0.3055998181853  0.8289519114331 1.0
C      1  0.4317129580059  0.5082010420210  0.6460786696705 1.0
C      1  0.7897918002320  0.4803473159944  0.5164247235368 1.0
C      1  0.6299649104339  0.3213574102052  0.1560044646027 1.0
C      1  0.3987781355049  0.7317677203874  0.4151467933846 1.0
C      1  0.5479198883101  0.6717725478006  0.3021981927647 1.0
C      1  0.5408863160485  0.3557825818471  0.7758901232416 1.0
C      1  0.5481407309749  0.5797503929820  0.5650098536097 1.0
C      1  0.7648425528616  0.5375394763420  0.6551311534598 1.0
C      1  0.4547221990531  0.4079512528172  0.7690317777618 1.0
C      1  0.4038524454053  0.6470976121277  0.4413603122423 1.0
C      1  0.4698196391266  0.3129469257769  0.3321930769564 1.0
C      1  0.4126314876554  0.3825639785886  0.1960117843592 1.0
C      1  0.1720965256798  0.5546811217214  0.5130156882698 1.0
C      1  0.3234034036490  0.7214680906138  0.6066575123350 1.0
C      1  0.5834298862745  0.4099155479668  0.6108317512080 1.0
C      1  0.2055773400882  0.3847675030241  0.3016798081825 1.0
C      1  0.5834203303399  0.4925531911996  0.7376515519646 1.0
C      1  0.6187045936049  0.4079112699853  0.1926289419280 1.0
C      1  0.7706327760677  0.4024869977006  0.5691710222939 1.0
C      1  0.5061494448182  0.2140649125265  0.4669364516890 1.0
C      1  0.4468334270239  0.2197398611915  0.5426549175958 1.0
C      1  0.7983714648571  0.6261493510564  0.2508764085609 1.0
C      1  0.5051996401588  0.3694183860866  0.5892378123265 1.0
C      1  0.6281359895708  0.5703426315464  0.7482246540740 1.0
C      1  0.6525269429199  0.4306885942253  0.2815964831315 1.0
C      1  0.3190638100542  0.2686110168227  0.3102791517230 1.0
C      1  0.1882949818682  0.6265473069884  0.5752085296531 1.0
C      1  0.6615667976084  0.5265354929416  0.4170502807036 1.0
C      1  0.5957410230612  0.7164483512911  0.7079910659275 1.0
C      1  0.2478977467207  0.7476105392047  0.4759062480159 1.0
C      1  0.6895871043422  0.6918456786431  0.6844498022611 1.0
C      1  0.7989857264877  0.5604403108479  0.5654176087056 1.0
C      1  0.4683291320800  0.4395081259282  0.1698038588922 1.0
C      1  0.4361941539928  0.4392435512901  0.5702230654741 1.0
C      1  0.6091447643205  0.4020440394470  0.7082555275345 1.0
C      1  0.4641584801816  0.6723836960662  0.2575531987868 1.0
C      1  0.2260608697491  0.3138463387110  0.7022725225460 1.0
C      1  0.3101658581116  0.7676720161004  0.4243660273529 1.0
C      1  0.4133719033803  0.3839309196735  0.3557708143115 1.0
C      1  0.2240754208198  0.2832438449865  0.4345412679924 1.0
C      1  0.3901139902251  0.6440753101619  0.2324132172444 1.0
C      1  0.3025530912187  0.2283769701045  0.4611931878185 1.0
C      1  0.8080163561021  0.6394054240541  0.5154181048326 1.0
C      1  0.4857541124412  0.8017643362676  0.5913094720475 1.0
C      1  0.7584102650333  0.4377966623265  0.6584989260597 1.0
C      1  0.6119563921663  0.8113241609173  0.5003341045621 1.0
C      1  0.3174114875021  0.3115463097790  0.7107310857841 1.0
C      1  0.7081599178606  0.3279704887385  0.7941211240824 1.0
C      1  0.5893408392753  0.5631706005676  0.1772162410252 1.0
C      1  0.3570843754178  0.3007440993156  0.6179709982518 1.0
C      1  0.7281047101362  0.3796840049745  0.4191302178908 1.0
C      1  0.7063360052792  0.3862316154878  0.7257061026942 1.0
C      1  0.3596049802800  0.2202839923839  0.3810942154046 1.0
C      1  0.7644125955852  0.7218769146554  0.5359859191421 1.0
C      1  0.5586578544906  0.6402120679152  0.7546581785940 1.0
C      1  0.2341723162543  0.3047689635922  0.3422476109287 1.0
C      1  0.4562432576891  0.2334773222110  0.3883302845637 1.0
C      1  0.4753955245528  0.6005580923161  0.7724867931352 1.0
C      1  0.3999537039550  0.6697225359692  0.6464435275197 1.0
C      1  0.2415902668527  0.7035485556868  0.5600355679773 1.0
C      1  0.7331655349069  0.3346407678902  0.5041109040600 1.0
C      1  0.5655434416776  0.7356910214496  0.3723677313320 1.0
C      1  0.1593081523608  0.3918314975880  0.5710831261429 1.0
C      1  0.4033003325231  0.7624421348270  0.6133912806064 1.0
C      1  0.7502639625275  0.6162882765650  0.1781510800655 1.0
C      1  0.3887024106358  0.3286728605223  0.2724207151087 1.0
C      1  0.7330488514804  0.7285513207111  0.4436919694362 1.0
C      1  0.3913694753316  0.6355503273057  0.7414667155857 1.0
C      1  0.5964158136063  0.2335557550420  0.4828874276854 1.0
C      1  0.4233478744089  0.4836837755642  0.4846714202786 1.0
C      1  0.8189707424798  0.6326671598740  0.3328210697687 1.0
C      1  0.7104304974333  0.6003992030323  0.7052927088814 1.0
C      1  0.6714488727345  0.2743814144181  0.2163690373108 1.0
C      1  0.6725312907035  0.5922174300278  0.1531698993173 1.0
C      1  0.3393578822182  0.4657724186455  0.6710985979701 1.0
C      1  0.5161295888470  0.8157542684967  0.4998815381924 1.0
C      1  0.2203480640975  0.4590500860397  0.2674319270157 1.0
C      1  0.4175384856972  0.5781933499253  0.4951674094000 1.0
C      1  0.5533550515449  0.4741127499868  0.1603515232107 1.0
C      1  0.2684992216809  0.5353576680132  0.6931180808896 1.0
C      1  0.4852098108706  0.5020051076202  0.7392502588516 1.0
C      1  0.7386353557748  0.4720263418972  0.4391069562640 1.0
C      1  0.7038921377798  0.2707005817135  0.2964690384766 1.0
C      1  0.6698211418155  0.2547990526679  0.8334794903887 1.0
C      1  0.3716023674411  0.4225424654907  0.4301649610803 1.0
C      1  0.1887454366205  0.5501551846383  0.6403105669697 1.0
C      1  0.4476161997278  0.5948175937219  0.5929677849717 1.0
C      1  0.1680849404251  0.3378821547479  0.6458527862546 1.0
C      1  0.3497073697017  0.2311237291794  0.5418319600389 1.0
C      1  0.5890621620435  0.5876641337989  0.2756557497196 1.0
C      1  0.6686286782075  0.2665121348350  0.5078138429914 1.0
C      1  0.6935984242222  0.3580292897090  0.3333977629727 1.0
C      1  0.4884311258334  0.7733238955874  0.4189959939455 1.0
C      1  0.4573897143236  0.2880131178603  0.6067100541853 1.0
C      1  0.2118763880709  0.3630655131011  0.4918744573376 1.0
C      1  0.7160064590339  0.7475054658875  0.6106287236236 1.0
C      1  0.2580220081016  0.5363597472698  0.2432407454946 1.0
END
