TITL C-2700-441-39 -4.756 3375.00 -838.51997899 0 0 101 (C1) n - 1
REM
REM Run started: at 2020.12.23 02:44:35 in /gpfs/home/chem/mssmkc/CARBON/AIRSS/Generating-Clusters/Str-Search/Higher-Symm/C100-200
REM VASP from code version vasp.5.4.4.18Apr17-6-g9f103f2a35 (build Oct 11 2019 16:45:47) gamma-only
REM
REM
REM
REM
REM ./C.cell (533062f00bc710175b3da973d35f2034)
REM AIRSS Version 0.9.1 bugfix July 2018 build 013d7b7c2542+ Fri, 06 Jul 2018 19:26:36 +0100
REM compiler GCC version 6.3.0
REM options -cpp -iprefix /gpfs/warwick/csc/orac/software/Core/GCCcore/6.3.0/bin/../lib/gcc/x86_64-pc-linux-gnu/6.3.0/ -mtune=generic -march=x86-64 -g -O0
REM seed -1578645591 -378258072 656822765 -1700902772 -2068452848 1713627156 486223129 -1502203525 -1175219666 2007057382 -1364108997 1095371762
REM
REM C.POTCAR (d86ddea03c3ceb6dc662c8ad6801f873)
REM 
CELL 1.54180   15.00000   15.00000   15.00000   90.00000   90.00000   90.00000
LATT -1
SFAC C  
C      1  0.6657227163071  0.4832034335088  0.2737402089434 1.0
C      1  0.6631012226999  0.7027055865918  0.5976654438586 1.0
C      1  0.6625253051216  0.3119835012832  0.6252831306603 1.0
C      1  0.7967644980224  0.4018449064491  0.4621075548271 1.0
C      1  0.7984288437507  0.5822212185274  0.4341051692989 1.0
C      1  0.7980861902950  0.5159760103265  0.6040987276798 1.0
C      1  0.3360586470936  0.5031671259043  0.5778787347753 1.0
C      1  0.3253327883950  0.4508780569599  0.4893512283584 1.0
C      1  0.3213114096055  0.5360252667278  0.4302802779983 1.0
C      1  0.5689737138604  0.5675391704595  0.6366586967906 1.0
C      1  0.5681413555111  0.3459569758330  0.4843796802770 1.0
C      1  0.5674260359941  0.5859464818736  0.3709602555865 1.0
C      1  0.4268787005071  0.2443901005965  0.6085955694005 1.0
C      1  0.4335122086403  0.5329066588423  0.2193495157543 1.0
C      1  0.4274638672977  0.7188456045603  0.6652976412076 1.0
C      1  0.7386682240967  0.6058056486173  0.3658733505903 1.0
C      1  0.7385063999360  0.5628241429945  0.6590628946796 1.0
C      1  0.7380046948319  0.3298218589968  0.4741457083397 1.0
C      1  0.4395916692376  0.2073517062367  0.4352906891205 1.0
C      1  0.4433683576048  0.7036017195763  0.2706168012038 1.0
C      1  0.4405340010598  0.5926190900706  0.7884200016849 1.0
C      1  0.5418633308666  0.2627246731726  0.3330528254958 1.0
C      1  0.5413484257448  0.7591895659514  0.3755718311892 1.0
C      1  0.5406734124492  0.4753707846558  0.7853858116730 1.0
C      1  0.2398226606015  0.4535715336812  0.7527379521240 1.0
C      1  0.2543067578976  0.3276433156907  0.3408851590502 1.0
C      1  0.2479308878570  0.7190962841876  0.4127940457607 1.0
C      1  0.4454201512038  0.3466856071768  0.7358406009685 1.0
C      1  0.4488076434338  0.3723750432315  0.2465546084412 1.0
C      1  0.4449274982807  0.7746207145983  0.5120859942969 1.0
C      1  0.3075236550618  0.2740618408413  0.3907167290041 1.0
C      1  0.3071784389550  0.7061677706905  0.3438709132522 1.0
C      1  0.3061476572000  0.5201400323469  0.7612658292616 1.0
C      1  0.7739769789795  0.5846998450202  0.5296510743201 1.0
C      1  0.7730328062642  0.4316747410214  0.5586282651144 1.0
C      1  0.7752026566273  0.4831888926487  0.4111848803793 1.0
C      1  0.4232681468948  0.4808547795228  0.6116283453578 1.0
C      1  0.4161406467531  0.4196150524192  0.4405893414911 1.0
C      1  0.4094547295562  0.5909018940770  0.4563229800085 1.0
C      1  0.5998676160263  0.6977747197024  0.6758595092140 1.0
C      1  0.5994233538300  0.2469677461230  0.5819046183669 1.0
C      1  0.6043311789820  0.5535753629564  0.2377706518077 1.0
C      1  0.4742072904954  0.5595392123109  0.6208512525926 1.0
C      1  0.4716944932414  0.3645765319226  0.4934891593668 1.0
C      1  0.4710845910608  0.5716299607042  0.3847719928713 1.0
C      1  0.3032133141090  0.6801084219715  0.5646813335761 1.0
C      1  0.3011076171810  0.3478352995165  0.6309124538058 1.0
C      1  0.2992199627468  0.4601766530725  0.2818149387618 1.0
C      1  0.4539422620806  0.2886296182043  0.2968027020171 1.0
C      1  0.4510373209612  0.7756217866688  0.4135924337170 1.0
C      1  0.4516371697188  0.4317682863381  0.7846782033063 1.0
C      1  0.4699937487193  0.5972281362629  0.5297313776778 1.0
C      1  0.4808698808748  0.4159970326828  0.5757720316510 1.0
C      1  0.4756367432664  0.4752272912699  0.3946379916009 1.0
C      1  0.5720535603562  0.4204699726727  0.5472138250191 1.0
C      1  0.5696353176199  0.4949843429473  0.4062156845113 1.0
C      1  0.5664723850973  0.5802406607987  0.5395957801501 1.0
C      1  0.5256014833778  0.5083989312722  0.2102051425330 1.0
C      1  0.5204152726880  0.7416913253759  0.6499566195160 1.0
C      1  0.5205855887220  0.2476554906628  0.6336767789830 1.0
C      1  0.7325132469165  0.5144986966645  0.3288691061754 1.0
C      1  0.7310131837051  0.6407737135294  0.5981625221962 1.0
C      1  0.7303707859051  0.3434647261647  0.5718076677753 1.0
C      1  0.5301710540063  0.3115016577234  0.7071764938994 1.0
C      1  0.5342132555696  0.4137971686315  0.2306580351816 1.0
C      1  0.5292296065590  0.7712703438390  0.5573674766563 1.0
C      1  0.3120908521724  0.2769380453893  0.4867356659573 1.0
C      1  0.3165576029722  0.6235309265767  0.2953746276882 1.0
C      1  0.3138757412738  0.5988204033229  0.7050726716757 1.0
C      1  0.2373387221578  0.3908773470187  0.2888450354961 1.0
C      1  0.2508666859385  0.7024045364854  0.4943462479881 1.0
C      1  0.2549519242318  0.4023180432258  0.6880280120214 1.0
C      1  0.3837641965142  0.4510053513933  0.2366530305147 1.0
C      1  0.3803578341089  0.7372191614361  0.5835119669730 1.0
C      1  0.3795408613950  0.3029542052511  0.6681343364783 1.0
C      1  0.5997540442095  0.6422774223680  0.2844991185469 1.0
C      1  0.5981688394271  0.6131462688021  0.7299571842098 1.0
C      1  0.5974083841535  0.2424850755909  0.4809055331851 1.0
C      1  0.6193180339979  0.3180307842259  0.3326237804037 1.0
C      1  0.6169979077649  0.7314002116343  0.4251895243672 1.0
C      1  0.6174253435242  0.4468469569510  0.7373598100698 1.0
C      1  0.6534671846936  0.3089419562573  0.4278911021800 1.0
C      1  0.6531652707792  0.6543467840970  0.3698264906882 1.0
C      1  0.6533665678328  0.5337165491925  0.6983365109924 1.0
C      1  0.3915837579130  0.5077861085618  0.7992178345133 1.0
C      1  0.3925727593864  0.2450623695915  0.3593707893742 1.0
C      1  0.3925969735739  0.7497167528199  0.3398976284273 1.0
C      1  0.5349378247601  0.7148752628089  0.2885889301947 1.0
C      1  0.5321236795411  0.5727471987723  0.7889169098531 1.0
C      1  0.5322970175978  0.2111873154730  0.4162137472857 1.0
C      1  0.6146432966067  0.3576570907105  0.7005003429347 1.0
C      1  0.6177464760494  0.3955917435118  0.2752489239050 1.0
C      1  0.6141332023375  0.7427835882097  0.5209134159440 1.0
C      1  0.3928306930731  0.2298363848603  0.5180100949058 1.0
C      1  0.3984797874606  0.6207121797392  0.2452613128298 1.0
C      1  0.3937815589296  0.6516445135560  0.7275493128198 1.0
C      1  0.3014782880083  0.5903337113257  0.6114668972226 1.0
C      1  0.2900087160444  0.3550857459566  0.5324342698808 1.0
C      1  0.2960498251816  0.5410855417011  0.3400044959971 1.0
C      1  0.7145532610662  0.4997556228643  0.4999965575894 1.0
C      1  0.6111803670116  0.4991482144600  0.4983567357328 1.0
END
