TITL C-2700-441-2 -7.582 3375.00 -1164.22654427 0 0 143 (C1) n - 1
REM
REM Run started: at 2020.12.21 22:30:07 in /gpfs/home/chem/mssmkc/CARBON/AIRSS/Generating-Clusters/Str-Search/Higher-Symm/C100-200
REM VASP from code version vasp.5.4.4.18Apr17-6-g9f103f2a35 (build Oct 11 2019 16:45:47) gamma-only
REM
REM
REM
REM
REM ./C.cell (533062f00bc710175b3da973d35f2034)
REM AIRSS Version 0.9.1 bugfix July 2018 build 013d7b7c2542+ Fri, 06 Jul 2018 19:26:36 +0100
REM compiler GCC version 6.3.0
REM options -cpp -iprefix /gpfs/warwick/csc/orac/software/Core/GCCcore/6.3.0/bin/../lib/gcc/x86_64-pc-linux-gnu/6.3.0/ -mtune=generic -march=x86-64 -g -O0
REM seed -497311128 41076501 -678933219 1483683315 -30271805 995977179 -1802652204 -1858983027 -1691485605 -1929766772 -1127176966 -1527887845
REM
REM C.POTCAR (d86ddea03c3ceb6dc662c8ad6801f873)
REM 
CELL 1.54180   15.00000   15.00000   15.00000   90.00000   90.00000   90.00000
LATT -1
SFAC C  
C      1  0.6641227272566  0.0844920116692  0.2658831861564 1.0
C      1  0.8309894764905  0.1644330051477  0.4565436239666 1.0
C      1  0.5949754363564  0.1964670955112  0.7408273369384 1.0
C      1  0.2389945971150  0.1748943093990  0.7023392552192 1.0
C      1  0.1922782315737  0.1370493241946  0.3139981280240 1.0
C      1  0.3891864272048  0.7674986780038  0.2215419327502 1.0
C      1  0.7860072077813  0.8134987721253  0.2784968366663 1.0
C      1  0.7347192337383  0.7300604067536  0.6784673668663 1.0
C      1  0.4440480066284  0.7913765914698  0.8025910003607 1.0
C      1  0.2385586121063  0.7815021780534  0.5148106074633 1.0
C      1  0.5116281551007  0.5488236940216  0.0349878771042 1.0
C      1  0.9857755872815  0.5641273923879  0.3954147287701 1.0
C      1  0.6672462246528  0.5366759369458  0.9131879530509 1.0
C      1  0.1990905743579  0.5079148647637  0.7762909030699 1.0
C      1  0.0423674237610  0.5487152693541  0.3277379567795 1.0
C      1  0.8149177335501  0.5598896336380  0.5586041966250 1.0
C      1  0.5618431504538  0.5837412234559  0.7912668722591 1.0
C      1  0.2171187623547  0.6048017292120  0.6142304463679 1.0
C      1  0.2281089018354  0.4387410380491  0.3258866116506 1.0
C      1  0.5699207198796  0.5423707123893  0.2353401523509 1.0
C      1  0.4958019370393  0.5659780679837  0.9489932551515 1.0
C      1  0.0530047074648  0.6448056840993  0.6150631873231 1.0
C      1  0.2540805448649  0.5640995075799  0.2166377314658 1.0
C      1  0.7038818718901  0.6100580130068  0.1763658822226 1.0
C      1  0.9534975923772  0.6273485987589  0.6244648575861 1.0
C      1  0.5766045334957  0.5292682030420  0.5425332340240 1.0
C      1  0.4596930107623  0.6026177298665  0.6397774319344 1.0
C      1  0.3335371853497  0.5265715776238  0.5208017861163 1.0
C      1  0.5024920214809  0.4785703366998  0.2444838889713 1.0
C      1  0.6026177483615  0.6090311789614  0.4063147571665 1.0
C      1  0.1471029473575  0.7534774071315  0.5185552447708 1.0
C      1  0.3473842959626  0.6999863316428  0.1772459495566 1.0
C      1  0.8012769734574  0.7344523621988  0.2359060515244 1.0
C      1  0.8162618570863  0.6880233119840  0.7080500440888 1.0
C      1  0.4243914698996  0.7940523412085  0.8940106495816 1.0
C      1  0.6526613438274  0.4520117675426  0.3495648855663 1.0
C      1  0.6768849715336  0.4991189794751  0.6679448122420 1.0
C      1  0.4599997858646  0.4596223329140  0.7360123258163 1.0
C      1  0.1873203559581  0.4549175004280  0.5547555069695 1.0
C      1  0.3728824255754  0.3533676990246  0.3577898690873 1.0
C      1  0.7620544021367  0.6670964977688  0.2004057345630 1.0
C      1  0.8925379454742  0.6626680568000  0.6873077938294 1.0
C      1  0.4086611375879  0.7917823727497  0.9771909769214 1.0
C      1  0.0857547096503  0.7095198612051  0.5525928860553 1.0
C      1  0.2987217990880  0.6298259981667  0.1861517061019 1.0
C      1  0.6110644023879  0.1289607674388  0.2077130127192 1.0
C      1  0.8413618944961  0.2176200790385  0.3757022592396 1.0
C      1  0.6796656856797  0.2269878434864  0.7360314968272 1.0
C      1  0.2917639751874  0.2267077649956  0.7398300383216 1.0
C      1  0.1464976646683  0.1624684370588  0.3878611627614 1.0
C      1  0.1221646952755  0.2414632038538  0.4328462983821 1.0
C      1  0.5513380269564  0.1774081497560  0.1758803168474 1.0
C      1  0.8423530276433  0.3007390661139  0.3442549134752 1.0
C      1  0.7344191650318  0.3072661554777  0.7443426474353 1.0
C      1  0.3502923392354  0.2943027430330  0.7639706614982 1.0
C      1  0.4814392611083  0.3262541880589  0.1654200822437 1.0
C      1  0.7433161653488  0.4447692142025  0.3306418017880 1.0
C      1  0.6886032459792  0.4709486325191  0.7614734538421 1.0
C      1  0.3728132241251  0.4601046388156  0.7757219070886 1.0
C      1  0.1458321218618  0.3835626084567  0.5160332130603 1.0
C      1  0.8225999373411  0.3818256192176  0.3262888539728 1.0
C      1  0.7258709925782  0.3895196786647  0.7722964433092 1.0
C      1  0.3228237911779  0.3813788606818  0.7859994496810 1.0
C      1  0.1389159193822  0.3345771591928  0.4336459366709 1.0
C      1  0.4766654717606  0.2311453579189  0.1626198044288 1.0
C      1  0.7295640331174  0.5556355328803  0.5202001988278 1.0
C      1  0.5141715811911  0.5388575233422  0.7026317496288 1.0
C      1  0.2467046596885  0.5297502981323  0.5607205103750 1.0
C      1  0.3171170422345  0.4264845868375  0.3670617949725 1.0
C      1  0.5950152804162  0.5401226111410  0.3328776985859 1.0
C      1  0.1087687546470  0.5357624491079  0.2807421403709 1.0
C      1  0.5983783207805  0.5543409893993  0.0682405435327 1.0
C      1  0.9475541312293  0.5753325701747  0.4674328548959 1.0
C      1  0.6576065532713  0.5495684189792  0.9952740843345 1.0
C      1  0.1407124825395  0.5488694058470  0.7338538682854 1.0
C      1  0.4934973510134  0.3734277574721  0.7313516565946 1.0
C      1  0.1366561425372  0.3925222134035  0.6091846448951 1.0
C      1  0.4457043223725  0.3166136726609  0.3748448952434 1.0
C      1  0.5778714490508  0.3980161135665  0.3675121481578 1.0
C      1  0.7448616165757  0.5209975795131  0.6069381086969 1.0
C      1  0.5207661658735  0.7528090765003  0.7673214507399 1.0
C      1  0.2811816383819  0.7646020337802  0.6059315340956 1.0
C      1  0.3514197148824  0.7780748531544  0.3110531067816 1.0
C      1  0.7077935864716  0.8560902291113  0.2460486986394 1.0
C      1  0.7529866324279  0.7794918133192  0.5997211969957 1.0
C      1  0.5128422295678  0.4737786627825  0.3476164935992 1.0
C      1  0.6435740901924  0.5641886251322  0.4854524057663 1.0
C      1  0.5902557463881  0.5139234536954  0.6363166816559 1.0
C      1  0.4171656169366  0.5511850218632  0.5644565600400 1.0
C      1  0.3596954858020  0.4875605941949  0.4326097347543 1.0
C      1  0.4472694833566  0.2939334785465  0.7516930438250 1.0
C      1  0.1278987319087  0.1616665466547  0.4809329588107 1.0
C      1  0.3936988747671  0.1911542392801  0.1772020318876 1.0
C      1  0.7978346801303  0.1344032549272  0.3726285932758 1.0
C      1  0.7651520214337  0.2272854540100  0.6974110553316 1.0
C      1  0.5271904811707  0.1364625712507  0.7111234405422 1.0
C      1  0.1872349785967  0.1453840300326  0.6361531903299 1.0
C      1  0.2517919252695  0.1427423464267  0.2560916203670 1.0
C      1  0.6568829208478  0.0338979985951  0.3476730709769 1.0
C      1  0.8248800643125  0.1720378993753  0.5456204298324 1.0
C      1  0.1461598444804  0.1312161360864  0.5652296017124 1.0
C      1  0.3217251793061  0.1601746728306  0.2043947663904 1.0
C      1  0.7354742909859  0.0836779467468  0.3272565603085 1.0
C      1  0.8071327097197  0.1980718004180  0.6233322283544 1.0
C      1  0.5022887055512  0.2167783539960  0.7492968901934 1.0
C      1  0.1989427205497  0.5127014577435  0.2660893440808 1.0
C      1  0.6254169258578  0.5679546042043  0.1604370902005 1.0
C      1  0.9077875679370  0.5874132573477  0.5511007406032 1.0
C      1  0.4983828509377  0.5753225098153  0.8659574395305 1.0
C      1  0.1240945080723  0.6008633335141  0.6573749450527 1.0
C      1  0.8168872941893  0.8339776572112  0.3652398721509 1.0
C      1  0.6486054347238  0.7173811375279  0.7064211616153 1.0
C      1  0.3830001555594  0.8162841526005  0.7336141643295 1.0
C      1  0.2884201692622  0.7815428273653  0.4380677100167 1.0
C      1  0.4672192410962  0.8138145097104  0.1993165512695 1.0
C      1  0.8085541774103  0.8324990116536  0.4471336489505 1.0
C      1  0.5557194184515  0.7323335867252  0.6781837800585 1.0
C      1  0.3350575889374  0.8135124521717  0.6670059360072 1.0
C      1  0.3813607192287  0.7720922884970  0.4033014753380 1.0
C      1  0.5430587735693  0.8453812494308  0.2040498071752 1.0
C      1  0.1757661957540  0.3795916698178  0.3642185067580 1.0
C      1  0.4821326455929  0.4048391848311  0.1898772119369 1.0
C      1  0.8230878813501  0.4748116452405  0.3004103329452 1.0
C      1  0.6471769555999  0.5305314273032  0.8248329780126 1.0
C      1  0.2778599069951  0.4631560761231  0.7899402618840 1.0
C      1  0.2640825297829  0.6796383885739  0.6238993249965 1.0
C      1  0.2677668609038  0.7534880790719  0.3469121864542 1.0
C      1  0.6301611922086  0.8593067977703  0.2185649499215 1.0
C      1  0.7848920844989  0.8118217907901  0.5311137456089 1.0
C      1  0.5856850169134  0.6811787067612  0.7725477233882 1.0
C      1  0.5667393952721  0.1549305739218  0.4491263895717 1.0
C      1  0.4525507031568  0.4954888497884  0.4235989196950 1.0
C      1  0.5342210266524  0.0527292744943  0.5647068801188 1.0
C      1  0.5387276465840  0.3125433779065  0.3852541792239 1.0
C      1  0.4567268596202  0.7239345543034  0.4389205960060 1.0
C      1  0.5160400447886  0.0774867509372  0.6409762443993 1.0
C      1  0.5676670802452  0.0634710873491  0.4762615618433 1.0
C      1  0.4979250791153  0.7019367806031  0.5168452674407 1.0
C      1  0.4989225062521  0.6826263002753  0.6134917108474 1.0
C      1  0.6084280851813  0.0070627878221  0.4177812116924 1.0
C      1  0.5389935882569  0.6708242321998  0.4338828398148 1.0
C      1  0.5721048242883  0.2300336052905  0.4160206570978 1.0
C      1  0.4869668555292  0.5227576557507  0.5088201366925 1.0
END
