TITL C-2700-441-20 -8.497 3375.00 -1390.10415717 0 0 169 (C1) n - 1
REM
REM Run started: at 2020.12.22 14:24:50 in /gpfs/home/chem/mssmkc/CARBON/AIRSS/Generating-Clusters/Str-Search/Higher-Symm/C100-200
REM VASP from code version vasp.5.4.4.18Apr17-6-g9f103f2a35 (build Oct 11 2019 16:45:47) gamma-only
REM
REM
REM
REM
REM ./C.cell (533062f00bc710175b3da973d35f2034)
REM AIRSS Version 0.9.1 bugfix July 2018 build 013d7b7c2542+ Fri, 06 Jul 2018 19:26:36 +0100
REM compiler GCC version 6.3.0
REM options -cpp -iprefix /gpfs/warwick/csc/orac/software/Core/GCCcore/6.3.0/bin/../lib/gcc/x86_64-pc-linux-gnu/6.3.0/ -mtune=generic -march=x86-64 -g -O0
REM seed 1771423575 694472751 -280445257 1207507998 1940346131 -1311456135 -1787798610 908716990 -243900400 -1613749252 -1613414200 1682093374
REM
REM C.POTCAR (d86ddea03c3ceb6dc662c8ad6801f873)
REM 
CELL 1.54180   15.00000   15.00000   15.00000   90.00000   90.00000   90.00000
LATT -1
SFAC C  
C      1  0.5187303560027  0.4733646748728  0.6866760976121 1.0
C      1  0.4663009872818  0.5608956175095  0.6719303222881 1.0
C      1  0.4345367896966  0.4283399913212  0.1676624555712 1.0
C      1  0.5794171120348  0.5097719960783  0.1724660895223 1.0
C      1  0.1095876171996  0.4854585739935  0.4437172558745 1.0
C      1  0.8865904920877  0.4902097879356  0.4489863062151 1.0
C      1  0.6592153842627  0.4932535150517  0.2400921591806 1.0
C      1  0.3474455148039  0.4491599305760  0.2235781787977 1.0
C      1  0.6498691555582  0.3714689303226  0.1245561621723 1.0
C      1  0.3721423983833  0.5818522419318  0.1191034335295 1.0
C      1  0.3879937964551  0.4891538498919  0.3143276807869 1.0
C      1  0.6121701458049  0.4639611498007  0.3260631666711 1.0
C      1  0.2453522042889  0.2484867807746  0.4270448401215 1.0
C      1  0.7553681541914  0.7393959782572  0.3869954184671 1.0
C      1  0.4706644957050  0.8159836955701  0.6507093134704 1.0
C      1  0.5213607535527  0.2162782038401  0.7144539154092 1.0
C      1  0.8559815510349  0.3014176465382  0.4945768486544 1.0
C      1  0.1289506657727  0.7191112823567  0.4641746664469 1.0
C      1  0.1956826408137  0.3271341951149  0.3973358858261 1.0
C      1  0.8164766595912  0.6719088850771  0.3650250491155 1.0
C      1  0.5393054220428  0.5362066365250  0.6118301456389 1.0
C      1  0.4526240974518  0.4813649676651  0.6151993564565 1.0
C      1  0.1649642037454  0.6024947530247  0.6774472870996 1.0
C      1  0.8175621735609  0.4415059711256  0.7061010418001 1.0
C      1  0.6420134120622  0.8481486229168  0.5964534126512 1.0
C      1  0.3546699484911  0.1703522279813  0.6607015447772 1.0
C      1  0.4538929388880  0.5979991385704  0.1075892500678 1.0
C      1  0.5824171250366  0.4300875931125  0.1082689021692 1.0
C      1  0.8503228872547  0.3893905367237  0.4402983752503 1.0
C      1  0.1492124272998  0.5714226403687  0.4045317410443 1.0
C      1  0.0939729628076  0.4578774358504  0.5325190627470 1.0
C      1  0.8957377433690  0.5394077180396  0.5271976121387 1.0
C      1  0.6902936690419  0.5978877878173  0.8913652678942 1.0
C      1  0.3334005763675  0.4668052641017  0.8857999633491 1.0
C      1  0.7380769641227  0.2402972419861  0.6063343470561 1.0
C      1  0.2535801522300  0.7911322958543  0.5473674635818 1.0
C      1  0.8573212690558  0.2979399891329  0.4033209400701 1.0
C      1  0.1542252143856  0.6666008991254  0.3896825034483 1.0
C      1  0.6828662288001  0.6858435119140  0.5115875392141 1.0
C      1  0.3085143714698  0.3154533924543  0.5495921438340 1.0
C      1  0.5817303109306  0.5616043297073  0.5255143291689 1.0
C      1  0.4102712921096  0.4380794789735  0.5369372473448 1.0
C      1  0.4271677734318  0.1797479194835  0.4368208402323 1.0
C      1  0.5704786097957  0.7960586532651  0.3737746758516 1.0
C      1  0.6713949429475  0.6859434471641  0.8633059559516 1.0
C      1  0.3745589729607  0.3838955007514  0.8783487669106 1.0
C      1  0.5328452917134  0.2668512073064  0.5089890670859 1.0
C      1  0.4582705858375  0.7275357697455  0.4570500316020 1.0
C      1  0.3421086485277  0.5989616518907  0.4418375650012 1.0
C      1  0.6513926806325  0.3825906350406  0.4687695853437 1.0
C      1  0.5861732561219  0.6655724110043  0.5032917334507 1.0
C      1  0.4042441061346  0.3328206361961  0.5377300005431 1.0
C      1  0.4707079349438  0.5414511507722  0.2882803870362 1.0
C      1  0.5314083515099  0.4061536539948  0.3036201841043 1.0
C      1  0.3393072368000  0.3044437780298  0.3072260542854 1.0
C      1  0.6633944870667  0.6485364989444  0.2904954832532 1.0
C      1  0.2550217123982  0.3918434274972  0.5523872950551 1.0
C      1  0.7359959597169  0.6111356498785  0.5259299922238 1.0
C      1  0.4274382218650  0.3233834345643  0.3563105746538 1.0
C      1  0.5704709536631  0.6371989238349  0.3269297143836 1.0
C      1  0.2061427274644  0.3718195708236  0.3169622715367 1.0
C      1  0.7973109421767  0.5877659484499  0.3246460250563 1.0
C      1  0.6351213361457  0.2020126768321  0.3493310565411 1.0
C      1  0.3708280501346  0.7501723886426  0.2929640358340 1.0
C      1  0.3163050939818  0.5521359565304  0.3488045948875 1.0
C      1  0.6806414057807  0.4009047019919  0.3695541441582 1.0
C      1  0.6547818110750  0.4148686929562  0.7596610017961 1.0
C      1  0.3247254009740  0.6302645230485  0.7213033400525 1.0
C      1  0.2247692875462  0.7147187281791  0.3366951265788 1.0
C      1  0.7861750060568  0.2364625544799  0.3725399344795 1.0
C      1  0.2899576414265  0.3722638204490  0.2655529783194 1.0
C      1  0.7142845022636  0.5747949223450  0.2699308756953 1.0
C      1  0.3877967796632  0.6668486932270  0.4857876352678 1.0
C      1  0.6003505325555  0.3340275614599  0.5267892932478 1.0
C      1  0.6512775088731  0.8454877430765  0.5005651049446 1.0
C      1  0.3455108336117  0.1559718837202  0.5658810395238 1.0
C      1  0.4236435699304  0.1317101529458  0.5189560423716 1.0
C      1  0.5747374727897  0.8588405632193  0.4464621496455 1.0
C      1  0.5879691126678  0.1739664329480  0.5176755278073 1.0
C      1  0.4096065158048  0.8242575365652  0.4489993689238 1.0
C      1  0.4703651992163  0.3928551641587  0.9978683858415 1.0
C      1  0.5793429056411  0.7019139392571  0.8700270955994 1.0
C      1  0.7488129773376  0.1931354668543  0.4519617243668 1.0
C      1  0.2548286150034  0.7919293661376  0.3885256011061 1.0
C      1  0.6807927094400  0.5350468325426  0.5240539980723 1.0
C      1  0.3110357478274  0.4650016379350  0.5343884829881 1.0
C      1  0.7334647124506  0.3951767477204  0.7097913235093 1.0
C      1  0.2473434470444  0.6492235987825  0.6698419489509 1.0
C      1  0.2807569074723  0.2248653612413  0.6920862087778 1.0
C      1  0.7197551703542  0.8041005203034  0.6370151632659 1.0
C      1  0.7220769848079  0.7748832122080  0.7244910667255 1.0
C      1  0.2946686168183  0.2725365972906  0.7704778588029 1.0
C      1  0.1791959419844  0.4297979922007  0.3932591289018 1.0
C      1  0.8218846234864  0.5172813733525  0.3813531944618 1.0
C      1  0.2151131344008  0.2423761925857  0.6189662831029 1.0
C      1  0.7811241676680  0.7704994677465  0.5671904331737 1.0
C      1  0.4434965375027  0.2802525670881  0.4530868987805 1.0
C      1  0.5483912418847  0.7005885883930  0.4079911854466 1.0
C      1  0.4725772909896  0.3909892955600  0.9069586094621 1.0
C      1  0.4998400006516  0.6862075814970  0.8528636720111 1.0
C      1  0.4306937623021  0.6555233271359  0.8029412786049 1.0
C      1  0.5429728385880  0.4070772161549  0.8436476012859 1.0
C      1  0.5442241214565  0.2203991771224  0.3170614576719 1.0
C      1  0.4578439590992  0.7311443409598  0.2611342766584 1.0
C      1  0.6711057394920  0.5173290051020  0.8928342247037 1.0
C      1  0.3169126398429  0.5469081538823  0.8728385915576 1.0
C      1  0.5337255491048  0.7916340679179  0.2803980304229 1.0
C      1  0.4665846634894  0.1652236275479  0.3468333449443 1.0
C      1  0.5521023658742  0.5420672708781  0.3574465018798 1.0
C      1  0.4434110208122  0.4222380466656  0.3660934052752 1.0
C      1  0.6303677180955  0.4471002307039  0.8464578032384 1.0
C      1  0.3466496734782  0.6108034956020  0.8118902922264 1.0
C      1  0.3521587201033  0.8177072400639  0.5401891223968 1.0
C      1  0.6423934288070  0.2023017340181  0.6070978480050 1.0
C      1  0.7657691285289  0.4417726057310  0.4112556860629 1.0
C      1  0.2332435613118  0.5171255981390  0.3993689032986 1.0
C      1  0.7138502312900  0.3209100433970  0.6530392529998 1.0
C      1  0.2712252348991  0.7155586689267  0.6060958972774 1.0
C      1  0.2867253981881  0.5363088772169  0.4833594745388 1.0
C      1  0.7073638044834  0.4538770771420  0.4929778159695 1.0
C      1  0.1458229809642  0.3027662142591  0.6105348660718 1.0
C      1  0.8472148777533  0.7064935058152  0.5711669036677 1.0
C      1  0.3197840750976  0.5440299198351  0.1886532037998 1.0
C      1  0.6881402302218  0.3964899331739  0.2099226264337 1.0
C      1  0.3338645187741  0.3167247279468  0.8291001215656 1.0
C      1  0.7140303166312  0.7349136028797  0.7966726856853 1.0
C      1  0.4815393860815  0.4069954989887  0.0874107933556 1.0
C      1  0.5323054100921  0.6004312986531  0.1579798499219 1.0
C      1  0.3755445334537  0.1650383497258  0.3563203361345 1.0
C      1  0.6243510838342  0.7959482196752  0.2922507194598 1.0
C      1  0.6539250755931  0.1712647602827  0.4376377088108 1.0
C      1  0.3455352787158  0.8108659527971  0.3696003411161 1.0
C      1  0.4854668840913  0.9040366917353  0.5669668214678 1.0
C      1  0.5129156496346  0.1130154271421  0.6468489941963 1.0
C      1  0.8851065251723  0.4792427664386  0.6753929590202 1.0
C      1  0.1018177245842  0.5510883238788  0.6615850860468 1.0
C      1  0.5099704182436  0.1116385120357  0.5532632242364 1.0
C      1  0.4894457330308  0.8875453048106  0.4743523361884 1.0
C      1  0.5917234888632  0.1584713197727  0.6842123243232 1.0
C      1  0.4034383958258  0.8718651174150  0.6100184537215 1.0
C      1  0.9456548918555  0.5078229457638  0.6074387519489 1.0
C      1  0.0419520363186  0.5049109330526  0.6046322712600 1.0
C      1  0.5347601619620  0.3100694096878  0.6770484267370 1.0
C      1  0.4506137536503  0.7183790268654  0.6284113707630 1.0
C      1  0.2991965381941  0.5983594272523  0.2603907358176 1.0
C      1  0.7001167956961  0.3432830074606  0.2848037986965 1.0
C      1  0.2013514072844  0.7841125035393  0.4708123985899 1.0
C      1  0.7883700839334  0.2351982370574  0.5278766730298 1.0
C      1  0.2918619693752  0.6921260048550  0.2774906449415 1.0
C      1  0.7143762442400  0.2512080672084  0.3145511742179 1.0
C      1  0.5064551160084  0.7074569117327  0.5445788539495 1.0
C      1  0.4806118316783  0.2996037019281  0.5908856186461 1.0
C      1  0.5284442137973  0.5226452548871  0.4509398329632 1.0
C      1  0.4626928367797  0.4613919436000  0.4553937167579 1.0
C      1  0.6219981995806  0.3047394056327  0.6228689518613 1.0
C      1  0.3642085126849  0.7189507618736  0.5725997079091 1.0
C      1  0.7246767334593  0.7751994998546  0.4814332479953 1.0
C      1  0.2711975453657  0.2227685247934  0.5316867756418 1.0
C      1  0.4989105806616  0.6366668022693  0.2505061330352 1.0
C      1  0.5133590738697  0.3074923590142  0.3068653975240 1.0
C      1  0.4419772810374  0.1551264163880  0.6981199894936 1.0
C      1  0.5531971846880  0.8695254403762  0.6276677319019 1.0
C      1  0.4256199198154  0.6473902617020  0.7005531579656 1.0
C      1  0.5533373998311  0.3946622429491  0.7389642791752 1.0
C      1  0.1561251345013  0.3828375685395  0.5680653799148 1.0
C      1  0.8349016076357  0.6213327781315  0.5401513557924 1.0
C      1  0.6991646084505  0.7355220966589  0.3107424912987 1.0
C      1  0.3016783353795  0.2267104712375  0.3529039827666 1.0
C      1  0.5027666023450  0.4679418802270  0.2255043456467 1.0
END
