TITL C-2700-441-17 -6.024 3375.00 -1073.55324812 0 0 128 (C1) n - 1
REM
REM Run started: at 2020.12.22 11:13:45 in /gpfs/home/chem/mssmkc/CARBON/AIRSS/Generating-Clusters/Str-Search/Higher-Symm/C100-200
REM VASP from code version vasp.5.4.4.18Apr17-6-g9f103f2a35 (build Oct 11 2019 16:45:47) gamma-only
REM
REM
REM
REM
REM ./C.cell (533062f00bc710175b3da973d35f2034)
REM AIRSS Version 0.9.1 bugfix July 2018 build 013d7b7c2542+ Fri, 06 Jul 2018 19:26:36 +0100
REM compiler GCC version 6.3.0
REM options -cpp -iprefix /gpfs/warwick/csc/orac/software/Core/GCCcore/6.3.0/bin/../lib/gcc/x86_64-pc-linux-gnu/6.3.0/ -mtune=generic -march=x86-64 -g -O0
REM seed -264028564 2141744223 432430751 -63281920 2120301925 1419889866 906619977 973912197 -1714102624 -876550924 407595005 -11906281
REM
REM C.POTCAR (d86ddea03c3ceb6dc662c8ad6801f873)
REM 
CELL 1.54180   15.00000   15.00000   15.00000   90.00000   90.00000   90.00000
LATT -1
SFAC C  
C      1  0.2244893827215  0.5764724800212  0.3508222056693 1.0
C      1  0.2117800133869  0.4890594881365  0.3982013515840 1.0
C      1  0.2249348176307  0.3937563992079  0.3728617068633 1.0
C      1  0.2309408244947  0.3292382368116  0.4408166379839 1.0
C      1  0.2289391837969  0.3253133294241  0.5431497568374 1.0
C      1  0.2249303282073  0.3747874781805  0.6216023469425 1.0
C      1  0.2264414175749  0.4674088434256  0.6661985037008 1.0
C      1  0.2329844435421  0.5595477460793  0.6575881952270 1.0
C      1  0.2344888978483  0.6401323679061  0.5947216485148 1.0
C      1  0.2302600467844  0.6738356213833  0.5075772232687 1.0
C      1  0.2297174371158  0.6521744341598  0.4067817495296 1.0
C      1  0.6537809031103  0.6176169297660  0.7745810180464 1.0
C      1  0.6564629227454  0.7496448677108  0.6728811647208 1.0
C      1  0.6560393505222  0.7992789974645  0.5117898503176 1.0
C      1  0.6547553451951  0.7528759969416  0.3494585459066 1.0
C      1  0.6568484637745  0.6333719530100  0.2347321708420 1.0
C      1  0.6596097199073  0.4699522278406  0.1970834344558 1.0
C      1  0.6551923061505  0.3141714302028  0.2625076081699 1.0
C      1  0.6541497472574  0.2183038960746  0.4052748895573 1.0
C      1  0.6547425687377  0.2143344062671  0.5653587814431 1.0
C      1  0.6534562518481  0.3011804912101  0.7131177415817 1.0
C      1  0.6534754579107  0.4452884657284  0.7891605564890 1.0
C      1  0.7397135017752  0.6718722985981  0.5586048502014 1.0
C      1  0.7615908536482  0.6880623164951  0.4539601826006 1.0
C      1  0.7426295590946  0.6222319072242  0.3671397502951 1.0
C      1  0.7603823773535  0.5345697635602  0.3077185517284 1.0
C      1  0.7386101048892  0.4363489820747  0.3310420100968 1.0
C      1  0.7557146422483  0.3495443093622  0.3969161141575 1.0
C      1  0.7615766084195  0.3136517453662  0.4868931340304 1.0
C      1  0.7499418602201  0.3517122190247  0.5860799188293 1.0
C      1  0.7617027467170  0.4166061480914  0.6675724881315 1.0
C      1  0.7449246892122  0.5218874378236  0.6749220981875 1.0
C      1  0.7579397360633  0.6221925685938  0.6504753790483 1.0
C      1  0.5613600084542  0.7617648752910  0.6817664583787 1.0
C      1  0.5607473961339  0.8117262721733  0.5124762097690 1.0
C      1  0.5598124863447  0.7643073300348  0.3420265181419 1.0
C      1  0.5619377681950  0.6381111058108  0.2227151121704 1.0
C      1  0.5649556221634  0.4681932267652  0.1818910897449 1.0
C      1  0.5606387293449  0.3053315255885  0.2524057231513 1.0
C      1  0.5599964311151  0.2020241955351  0.3978643267960 1.0
C      1  0.5617266755107  0.1956314877520  0.5705086553730 1.0
C      1  0.5610754771412  0.2859712212225  0.7246982091230 1.0
C      1  0.5601916637479  0.4432905514572  0.8059799192328 1.0
C      1  0.5605933556893  0.6236628223542  0.7924012737879 1.0
C      1  0.4251857693410  0.3888453207640  0.2161121513897 1.0
C      1  0.4158642783638  0.2551359293935  0.3291815935339 1.0
C      1  0.4206129969169  0.1865163118283  0.4834804120259 1.0
C      1  0.4179595304309  0.2305790607610  0.6466432422589 1.0
C      1  0.4231253921128  0.3592048071912  0.7696639087191 1.0
C      1  0.4177834189380  0.5355220970836  0.8002374455158 1.0
C      1  0.4205030863089  0.6943213124532  0.7401974034248 1.0
C      1  0.4167610302463  0.7822173846538  0.5958871571076 1.0
C      1  0.4219460440992  0.7895433418256  0.4263869494683 1.0
C      1  0.4147519339119  0.6939229751411  0.2856628170174 1.0
C      1  0.4233116844509  0.5533250703843  0.1969175933752 1.0
C      1  0.6198353101062  0.3652133976837  0.4026962401947 1.0
C      1  0.5982367957827  0.3777179391206  0.4899816295924 1.0
C      1  0.6353623848423  0.3647155677940  0.5774599880193 1.0
C      1  0.6014569631096  0.4469601007820  0.6120068001100 1.0
C      1  0.6375247045059  0.5200322531545  0.6568917275346 1.0
C      1  0.5939164049886  0.5990837648374  0.6194236314400 1.0
C      1  0.6417529102971  0.6399065439306  0.5492958871015 1.0
C      1  0.6051151319568  0.6431889741966  0.4627704654119 1.0
C      1  0.6567592367005  0.5816714195166  0.4087818109664 1.0
C      1  0.5918315234741  0.5249145489956  0.3576765797110 1.0
C      1  0.6340740336508  0.4443327199587  0.3553173212724 1.0
C      1  0.3764085168243  0.3431293074093  0.2917334600147 1.0
C      1  0.3713917392536  0.2185711267080  0.4051384333924 1.0
C      1  0.3715456143513  0.2075281080521  0.5654997569522 1.0
C      1  0.3758594368305  0.3088901909993  0.6938710988382 1.0
C      1  0.3767102086751  0.4493599512373  0.7656314104888 1.0
C      1  0.3715267043076  0.6134207022290  0.7702952376554 1.0
C      1  0.3719603554648  0.7373308798077  0.6681663573944 1.0
C      1  0.3722358168594  0.7865242289817  0.5100705936677 1.0
C      1  0.3723243841114  0.7444163398426  0.3552014134958 1.0
C      1  0.3697592220051  0.6164367454457  0.2475359034434 1.0
C      1  0.3799806266295  0.4682492074572  0.1986685090553 1.0
C      1  0.5133436720681  0.5343394926423  0.8087681744766 1.0
C      1  0.5144454039806  0.7016590072295  0.7487412511099 1.0
C      1  0.5135916057159  0.7951577071811  0.5998109575168 1.0
C      1  0.5149910541378  0.8001178399714  0.4239800812439 1.0
C      1  0.5119544017641  0.7053251278022  0.2759639613326 1.0
C      1  0.5174285149998  0.5560261056027  0.1888547598221 1.0
C      1  0.5185203268910  0.3820913289503  0.2059949944799 1.0
C      1  0.5117448639786  0.2465465409239  0.3202009967680 1.0
C      1  0.5148690803799  0.1825257787460  0.4834619938808 1.0
C      1  0.5137018360982  0.2297693617151  0.6523102479787 1.0
C      1  0.5146520143248  0.3565409566209  0.7791177326202 1.0
C      1  0.2806204350972  0.3424012456385  0.6983271378569 1.0
C      1  0.2807897391629  0.4264551146060  0.7399767351982 1.0
C      1  0.2884949211718  0.6145172656593  0.7216834958930 1.0
C      1  0.2899430427429  0.6869367250818  0.6610142784074 1.0
C      1  0.2875363408968  0.7502589183118  0.4858416003295 1.0
C      1  0.2870176694150  0.7277572020799  0.3924579083275 1.0
C      1  0.2883572002179  0.5646778618820  0.2790784492918 1.0
C      1  0.2990312758913  0.4725431468626  0.2482946327020 1.0
C      1  0.2818188606744  0.3898196250469  0.2943039568147 1.0
C      1  0.2865426652030  0.2489133444569  0.4406476286331 1.0
C      1  0.2862808418543  0.2427707459058  0.5352121478038 1.0
C      1  0.4019725898931  0.3807479689213  0.6211137947463 1.0
C      1  0.4069857134341  0.4607772106624  0.6690223323487 1.0
C      1  0.4351503066114  0.5342454068411  0.6266301298627 1.0
C      1  0.5011639590937  0.6043958702699  0.6164251264733 1.0
C      1  0.4626178430215  0.6273542897813  0.5303774586872 1.0
C      1  0.5156068953620  0.6239746572567  0.4520214254343 1.0
C      1  0.4991262700752  0.5418023232020  0.3926528016680 1.0
C      1  0.4065615555946  0.5016835350905  0.3790563705013 1.0
C      1  0.4077710889066  0.4037999481508  0.3701474435584 1.0
C      1  0.4194670630113  0.3687648982086  0.4516372932681 1.0
C      1  0.4203175485341  0.3667866259899  0.5358229101974 1.0
C      1  0.6968150313653  0.6841397736285  0.3022969818226 1.0
C      1  0.7034421834954  0.5490924633906  0.2308615297925 1.0
C      1  0.6965163252045  0.3967980207958  0.2448648404120 1.0
C      1  0.6833578234457  0.2942591094690  0.3542118409233 1.0
C      1  0.7019482640337  0.2299631022422  0.4856329485459 1.0
C      1  0.6839169959446  0.2853225923664  0.6233741489964 1.0
C      1  0.7012063092176  0.3802939731682  0.7376882978674 1.0
C      1  0.6847111345248  0.5288327403774  0.7546463296233 1.0
C      1  0.7010249723495  0.6730141593699  0.7126712872481 1.0
C      1  0.6953838542225  0.7599427355387  0.5875263105723 1.0
C      1  0.7004571832295  0.7605714872546  0.4347295649720 1.0
C      1  0.7630786975862  0.4979942514240  0.5011615097655 1.0
C      1  0.4193984566388  0.5377934205529  0.5303219178881 1.0
C      1  0.6779791605657  0.5144573598447  0.4865411775323 1.0
C      1  0.3543522195698  0.5173339139158  0.4621645559682 1.0
C      1  0.5070721373881  0.5174622339851  0.4871444260248 1.0
C      1  0.5876960678781  0.4737367738844  0.5179876531609 1.0
C      1  0.2670834695444  0.5027744847290  0.4670845794352 1.0
END
