TITL C-28165-8331-9 -4.275 3375.00 -714.47747847 0 0 87 (C1) n - 1
REM
REM Run started: at 2020.12.04 04:34:53 in /rds/project/t2_vol4/rds-t2-cs072/BORA/CARBON/AIRSS/Generating-Clusters/Str-Search/Higher-Symm/C10-100
REM VASP from code version vasp.5.4.4.18Apr17-6-g9f103f2a35 (build Oct 11 2019 16:45:47) gamma-only
REM
REM
REM
REM
REM ./C.cell (f39ce9773e2efe3fa5bbdf770a4156b8)
REM AIRSS Version 0.9.1 bugfix July 2018 build 013d7b7c2542+ Fri, 06 Jul 2018 19:26:36 +0100
REM compiler GCC version 4.8.5 20150623 (Red Hat 4.8.5-39)
REM options -cpp -mtune=generic -march=x86-64 -g -O0
REM seed 803975164 1859564780 -3691252 -1029801554 687554013 1077798562 932904412 1967719311 1918763460 -782241715 1745302989 -677673350
REM
REM C.POTCAR (d86ddea03c3ceb6dc662c8ad6801f873)
REM 
CELL 1.54180   15.00000   15.00000   15.00000   90.00000   90.00000   90.00000
LATT -1
SFAC C  
C      1  0.3795571698267  0.3379324533979  0.3235992930062 1.0
C      1  0.3704851093521  0.3076454742480  0.7218474270872 1.0
C      1  0.3729353760084  0.6889045363102  0.6798248587648 1.0
C      1  0.3876780059329  0.6976926376871  0.2874857855814 1.0
C      1  0.6093540769211  0.2998150700727  0.6911078042969 1.0
C      1  0.6104999006559  0.3427083393943  0.3538027965832 1.0
C      1  0.6267611935561  0.7159750358851  0.3053249041968 1.0
C      1  0.6193099522310  0.6795843420705  0.6831401199252 1.0
C      1  0.7298568154903  0.3350072818294  0.4882499873889 1.0
C      1  0.7324105018738  0.4070767596349  0.6415492804795 1.0
C      1  0.7272733487334  0.7689525990066  0.5907421237567 1.0
C      1  0.7429329400390  0.6144130473811  0.2449324217789 1.0
C      1  0.2584542489888  0.2454786970584  0.6151872836152 1.0
C      1  0.2727516272692  0.4865968564704  0.3356494664206 1.0
C      1  0.2698728804129  0.6406914886282  0.3992301156409 1.0
C      1  0.2691257999937  0.5963340483345  0.7714128213452 1.0
C      1  0.5434678396980  0.6787132200617  0.2739959981315 1.0
C      1  0.5272644108772  0.2897183519454  0.3394316735223 1.0
C      1  0.5242890732979  0.3256250411133  0.7282757980822 1.0
C      1  0.5306142727279  0.7106887287804  0.6574952823337 1.0
C      1  0.4616204275949  0.6615816925043  0.7114319126942 1.0
C      1  0.4527558276743  0.2768827144506  0.6851422608096 1.0
C      1  0.4684999993868  0.3423220909007  0.2846285383547 1.0
C      1  0.4727130221545  0.7282069675570  0.3187293571653 1.0
C      1  0.3156652915011  0.2510671381924  0.4581202460239 1.0
C      1  0.3241805655921  0.4442163708141  0.8045880791678 1.0
C      1  0.3722061904537  0.7482894815563  0.5049639841980 1.0
C      1  0.3843922079828  0.5321216546899  0.2179017398196 1.0
C      1  0.6140689023061  0.2132182576386  0.5285289177374 1.0
C      1  0.6809838233342  0.4617833020891  0.2517061815290 1.0
C      1  0.6726289730991  0.8018901517888  0.4385424047892 1.0
C      1  0.6244755980402  0.5096805630819  0.7503909994238 1.0
C      1  0.7317551121403  0.5253577469729  0.2396653376793 1.0
C      1  0.6840242515081  0.2525278307377  0.4803478420484 1.0
C      1  0.6865609811740  0.4492585049887  0.7168041035477 1.0
C      1  0.7185629017919  0.7995123615552  0.5072796236158 1.0
C      1  0.2787393805903  0.5136812683241  0.8029537714091 1.0
C      1  0.2704835515972  0.2402236011639  0.5260407882744 1.0
C      1  0.3140984432143  0.4810685934752  0.2512155614050 1.0
C      1  0.3100445139306  0.7176047363239  0.4410535990819 1.0
C      1  0.6077899233299  0.7714472993976  0.3805658016704 1.0
C      1  0.6053289917078  0.4169943169965  0.2848971225738 1.0
C      1  0.5914454378648  0.2489545074091  0.6135373028513 1.0
C      1  0.6022434704038  0.6012134216763  0.7326389607258 1.0
C      1  0.3896467076998  0.7379550259936  0.5985315808171 1.0
C      1  0.3887580103901  0.3852007752465  0.7763493352195 1.0
C      1  0.3918327973534  0.2906903291000  0.4137069110202 1.0
C      1  0.4067781270858  0.6240036844915  0.2296275507674 1.0
C      1  0.4838999172628  0.2449203198225  0.4133707571047 1.0
C      1  0.4853510286010  0.4056685361781  0.7730192643605 1.0
C      1  0.4853279489545  0.7528512679460  0.5847640229414 1.0
C      1  0.5017870184518  0.6055258322679  0.2272762151366 1.0
C      1  0.4948217486152  0.2591511106823  0.5911100778161 1.0
C      1  0.5147293635601  0.4203089421046  0.2429599120557 1.0
C      1  0.5109757378939  0.7701780745968  0.4000454132242 1.0
C      1  0.5074810624258  0.5884681225694  0.7540882662925 1.0
C      1  0.4857012295373  0.3513338814036  0.5536706746297 1.0
C      1  0.5377020679034  0.5181548377274  0.5850417631343 1.0
C      1  0.5013008915174  0.5917682848275  0.4580634167883 1.0
C      1  0.5789963633679  0.4327893297081  0.3923402182981 1.0
C      1  0.4264103048974  0.3705912515812  0.4739648627993 1.0
C      1  0.4402338569592  0.5230851334483  0.4233441123387 1.0
C      1  0.4723995776233  0.5840448446950  0.5502962856324 1.0
C      1  0.4883991735921  0.4391838167086  0.5992146209026 1.0
C      1  0.6868793520257  0.3101959030131  0.4071905710256 1.0
C      1  0.6839449346723  0.3563407217942  0.7015792679748 1.0
C      1  0.6957456176735  0.7186163922316  0.6484376031193 1.0
C      1  0.7084634943462  0.6835767526345  0.2745334190888 1.0
C      1  0.2904007020506  0.2767752797056  0.6848308231931 1.0
C      1  0.3180191347739  0.4046273708963  0.3080315912449 1.0
C      1  0.3161292218390  0.7026752974682  0.3479195660992 1.0
C      1  0.2973997366391  0.6579519841568  0.7235092414375 1.0
C      1  0.3938631428918  0.4679323511700  0.5917242888398 1.0
C      1  0.3819745457047  0.5595369117974  0.5616072409470 1.0
C      1  0.3464057675040  0.5211212690234  0.4717670052602 1.0
C      1  0.3573195685322  0.4308508488602  0.5141713598918 1.0
C      1  0.6381829808082  0.5000101486476  0.4320625107613 1.0
C      1  0.5948486976545  0.5845679049564  0.4546943147964 1.0
C      1  0.6214029287608  0.5381897199783  0.5378087608705 1.0
C      1  0.6965332733734  0.4874501158785  0.5080439625766 1.0
C      1  0.4795189523910  0.5043655166176  0.2182905788680 1.0
C      1  0.5208533248534  0.2156756853480  0.4948520746680 1.0
C      1  0.4679552652882  0.7698423340894  0.4850789998708 1.0
C      1  0.5281418428833  0.4908932897817  0.7755840661429 1.0
C      1  0.2743037217664  0.5467785635872  0.4077865345210 1.0
C      1  0.7347130865151  0.4101842289337  0.5459161871399 1.0
C      1  0.4825244411010  0.4404317247362  0.4190529918503 1.0
END
