TITL C-2874-4087-44 -6.844 3375.00 -1249.77831819 0 0 149 (C1) n - 1
REM
REM Run started: at 2020.12.31 05:34:44 in /gpfs/home/chem/mssmkc/CARBON/AIRSS/Generating-Clusters/Str-Search/Higher-Symm/C100-200
REM VASP from code version vasp.5.4.4.18Apr17-6-g9f103f2a35 (build Oct 11 2019 16:45:47) gamma-only
REM
REM
REM
REM
REM ./C.cell (533062f00bc710175b3da973d35f2034)
REM AIRSS Version 0.9.1 bugfix July 2018 build 013d7b7c2542+ Fri, 06 Jul 2018 19:26:36 +0100
REM compiler GCC version 6.3.0
REM options -cpp -iprefix /gpfs/warwick/csc/orac/software/Core/GCCcore/6.3.0/bin/../lib/gcc/x86_64-pc-linux-gnu/6.3.0/ -mtune=generic -march=x86-64 -g -O0
REM seed -1504999456 784105313 -856689318 1941547932 -957228756 986156224 -1074178006 1690333466 -1353912077 -1338754959 346954996 314927560
REM
REM C.POTCAR (d86ddea03c3ceb6dc662c8ad6801f873)
REM 
CELL 1.54180   15.00000   15.00000   15.00000   90.00000   90.00000   90.00000
LATT -1
SFAC C  
C      1  0.2097336726465  0.5277323463127  0.6654148113862 1.0
C      1  0.6653994082815  0.2101571729526  0.5283692286466 1.0
C      1  0.5273552358167  0.6659700368363  0.2103344196464 1.0
C      1  0.8003045442140  0.5295562271354  0.3358659137565 1.0
C      1  0.2055951872943  0.4760023239501  0.3379844606820 1.0
C      1  0.7944606045479  0.4753708735676  0.6646529643102 1.0
C      1  0.3360382863806  0.2064620362528  0.4763589553179 1.0
C      1  0.6639140198416  0.7940919741234  0.4755889604141 1.0
C      1  0.3357826602820  0.7998950058246  0.5290506596415 1.0
C      1  0.4753676473924  0.6639911494500  0.7937717230930 1.0
C      1  0.5283995154960  0.3363158878483  0.8000159039315 1.0
C      1  0.4751966816913  0.3402643338967  0.2096075183726 1.0
C      1  0.6653878755348  0.5283406074893  0.2101833822495 1.0
C      1  0.5273563584830  0.2102999725065  0.6659927254485 1.0
C      1  0.2097380655698  0.6653834976595  0.5277532775757 1.0
C      1  0.3357728577480  0.5290249405246  0.7999229576569 1.0
C      1  0.3360362128279  0.4763448277054  0.2064981515235 1.0
C      1  0.6639000345818  0.4755623640677  0.7941175670701 1.0
C      1  0.4752024043486  0.2096010315030  0.3402852763244 1.0
C      1  0.4753681640831  0.7937577719960  0.6640167134941 1.0
C      1  0.5284086199511  0.8000014354900  0.3363480722722 1.0
C      1  0.7944738373064  0.6646243504875  0.4753994145010 1.0
C      1  0.8003024257099  0.3358388891124  0.5295790657707 1.0
C      1  0.2055992582965  0.3379536487633  0.4760235200573 1.0
C      1  0.4985576941135  0.5744628473219  0.7555934179749 1.0
C      1  0.7570424178313  0.4984607346104  0.5746390375754 1.0
C      1  0.5743381920181  0.7557683804071  0.4984051224930 1.0
C      1  0.5038419173444  0.5767940315131  0.2467199518519 1.0
C      1  0.4999337750063  0.4303792668313  0.2445590698610 1.0
C      1  0.5015807303648  0.4259495185445  0.7636670403675 1.0
C      1  0.2440438892621  0.5013690835670  0.4273986966019 1.0
C      1  0.7646025067932  0.5020863647019  0.4257497369030 1.0
C      1  0.2458122054292  0.5045412800142  0.5758405610707 1.0
C      1  0.4255748279144  0.7636756060079  0.5023074945610 1.0
C      1  0.5757925921417  0.2471133837875  0.5054467560550 1.0
C      1  0.4257076890256  0.2437628914396  0.5030615272648 1.0
C      1  0.7570390407237  0.5746126406316  0.4984883364243 1.0
C      1  0.5743259051698  0.4983708415843  0.7557865198874 1.0
C      1  0.4985617230907  0.7555702886620  0.5744943180481 1.0
C      1  0.2458173035581  0.5758160309371  0.5045616321611 1.0
C      1  0.2440348360914  0.4273687478811  0.5013996425632 1.0
C      1  0.7646102408410  0.4257280600367  0.5021086141727 1.0
C      1  0.4257065978282  0.5030405799466  0.2437856601771 1.0
C      1  0.4255656017153  0.5022794010914  0.7637053931343 1.0
C      1  0.5757844368454  0.5054168903787  0.2471403883722 1.0
C      1  0.5015942941258  0.7636482401083  0.4259806483010 1.0
C      1  0.5038481844830  0.2466979417514  0.5768208224674 1.0
C      1  0.4999366600922  0.2445359162971  0.4304093152490 1.0
C      1  0.7773657679999  0.7084422881752  0.6425348298628 1.0
C      1  0.6422397366454  0.7773056519457  0.7082934931801 1.0
C      1  0.7081108078307  0.6424514796193  0.7773166777253 1.0
C      1  0.2247035105518  0.7105485308508  0.3600640553891 1.0
C      1  0.7826104996316  0.2935191171497  0.3600173207102 1.0
C      1  0.2233440619738  0.2938934698315  0.6443409332675 1.0
C      1  0.3586013351437  0.7816883521728  0.2931981471196 1.0
C      1  0.6435830588267  0.2272675301215  0.2963294175163 1.0
C      1  0.3590301156334  0.2259853274138  0.7102509474779 1.0
C      1  0.2924698813251  0.6442325891979  0.2247602889253 1.0
C      1  0.7105163562525  0.3610380575713  0.2268302805223 1.0
C      1  0.2920518930791  0.3595257054372  0.7818754150629 1.0
C      1  0.6422377577598  0.7082719787991  0.7773220857416 1.0
C      1  0.7081140395333  0.7772913135644  0.6424714777564 1.0
C      1  0.7773605059105  0.6425078559444  0.7084664204352 1.0
C      1  0.3590366662310  0.7102269146033  0.2260307863180 1.0
C      1  0.3586000919412  0.2931546566640  0.7817143329517 1.0
C      1  0.6435849580078  0.2963157432598  0.2272837161990 1.0
C      1  0.2920536586528  0.7818588298911  0.3595609901655 1.0
C      1  0.2924691142533  0.2247177288679  0.6442488504549 1.0
C      1  0.7105051098642  0.2268162320454  0.3610631705658 1.0
C      1  0.2233318781803  0.6443327492518  0.2939238707259 1.0
C      1  0.2247158143353  0.3600351762788  0.7105538276555 1.0
C      1  0.7826150672109  0.3599932183852  0.2935405119505 1.0
C      1  0.3872934345918  0.3199761674864  0.2517533633658 1.0
C      1  0.2489282341186  0.3881545182442  0.3186310666947 1.0
C      1  0.3172763611982  0.2507659221191  0.3887584737966 1.0
C      1  0.6157848757282  0.3178147048416  0.7550875606357 1.0
C      1  0.3871384389414  0.6849222700217  0.7529686439501 1.0
C      1  0.6159082005820  0.6861073789793  0.2509336569317 1.0
C      1  0.7531289720329  0.3873390423796  0.6854643120398 1.0
C      1  0.2504643697667  0.6162576489785  0.6856731885782 1.0
C      1  0.7549073256418  0.6166083883860  0.3175281427785 1.0
C      1  0.6856329128719  0.2505978992303  0.6168751192871 1.0
C      1  0.3173327912625  0.7546766853111  0.6161995007260 1.0
C      1  0.6848918991815  0.7533399017866  0.3874093864872 1.0
C      1  0.2489372313721  0.3186140351751  0.3881735559145 1.0
C      1  0.3172695431422  0.3887381834859  0.2507827681281 1.0
C      1  0.3872978362341  0.2517392723647  0.3199956877567 1.0
C      1  0.7549137997650  0.3174982254994  0.6166355056626 1.0
C      1  0.7531368702224  0.6854395624240  0.3873672581220 1.0
C      1  0.2504729034423  0.6856466766071  0.6162767087158 1.0
C      1  0.6848804057994  0.3873847103287  0.7533584229408 1.0
C      1  0.6856225131764  0.6168459558080  0.2506345947732 1.0
C      1  0.3173216765296  0.6161782230791  0.7547074650219 1.0
C      1  0.6159088486266  0.2509010460118  0.6861283883145 1.0
C      1  0.6157945252265  0.7550742371154  0.3178401144771 1.0
C      1  0.3871430579200  0.7529430741268  0.6849463397374 1.0
C      1  0.7994313066615  0.4586254123472  0.2757646223554 1.0
C      1  0.2755033338169  0.7985285693514  0.4581705197444 1.0
C      1  0.4572426780288  0.2763380218437  0.7986383717172 1.0
C      1  0.2086347679479  0.4579841101907  0.7258775813282 1.0
C      1  0.7947082920154  0.5451012149305  0.7250207664160 1.0
C      1  0.2056356540381  0.5464029709448  0.2771878559758 1.0
C      1  0.7243841966542  0.7945858280703  0.5451564130865 1.0
C      1  0.2750404765248  0.2070302410812  0.5464213237540 1.0
C      1  0.7258906714453  0.2096916989229  0.4585512897114 1.0
C      1  0.5457275135138  0.2799216508057  0.2104477219058 1.0
C      1  0.4570584766421  0.7259115798180  0.2097331534062 1.0
C      1  0.5448721993826  0.7245234317989  0.7944891008147 1.0
C      1  0.2754998505785  0.4581391196159  0.7985511419002 1.0
C      1  0.4572466626943  0.7986171958372  0.2763743235501 1.0
C      1  0.7994313413553  0.2757420127503  0.4586447323115 1.0
C      1  0.7258867244953  0.4585309840516  0.2097134002243 1.0
C      1  0.7243693523351  0.5451322638510  0.7946125052467 1.0
C      1  0.2750393855895  0.5464090674999  0.2070738658926 1.0
C      1  0.5448730713049  0.7944762937738  0.7245451160318 1.0
C      1  0.5457268644598  0.2104356949645  0.2799393104000 1.0
C      1  0.4570571872545  0.2096943682472  0.7259344179555 1.0
C      1  0.2056419977068  0.2771526896656  0.5464158905505 1.0
C      1  0.2086317673251  0.7258592370446  0.4580113440407 1.0
C      1  0.7947232452865  0.7249941400545  0.5451262999333 1.0
C      1  0.6607992705617  0.5280558326595  0.5940135223683 1.0
C      1  0.5936068196236  0.6586401390743  0.5262903334013 1.0
C      1  0.5274746608484  0.5931599360786  0.6587598870480 1.0
C      1  0.3337624275249  0.5371989951818  0.3982587205573 1.0
C      1  0.6746124816699  0.4629071560962  0.4003280777960 1.0
C      1  0.3481372214524  0.4792570436556  0.5921311159743 1.0
C      1  0.3998356389234  0.6735195899121  0.4637097352326 1.0
C      1  0.5936888041458  0.3499564229599  0.4830284403331 1.0
C      1  0.3967840482691  0.3346882103997  0.5365910988289 1.0
C      1  0.4781157322858  0.5920363223618  0.3490711286389 1.0
C      1  0.5275603813752  0.4086602384158  0.3413953663379 1.0
C      1  0.4621980266520  0.4008780440062  0.6736967334457 1.0
C      1  0.5936005118783  0.5262578458108  0.6586589513772 1.0
C      1  0.5274803404491  0.6587391809583  0.5931906980303 1.0
C      1  0.6608026802509  0.5939920731919  0.5280868110838 1.0
C      1  0.3967846431121  0.5365680131747  0.3347171270720 1.0
C      1  0.3998242663681  0.4636917788056  0.6735450889362 1.0
C      1  0.5936713886281  0.4829923643164  0.3499863782432 1.0
C      1  0.4622107271058  0.6736795876523  0.4009003335707 1.0
C      1  0.4781089577643  0.3490468927497  0.5920543160713 1.0
C      1  0.5275870147713  0.3413534701691  0.4086844007263 1.0
C      1  0.3481504818033  0.5921042853878  0.4792873121837 1.0
C      1  0.3337435799666  0.3982158795919  0.5372445929758 1.0
C      1  0.6746277216257  0.4003013563956  0.4629356196263 1.0
C      1  0.5312570882738  0.5337697172964  0.4086539720198 1.0
C      1  0.4054831915986  0.5282859603543  0.5283164544294 1.0
C      1  0.5312593230715  0.4086219747206  0.5337784071874 1.0
C      1  0.4526998385700  0.4137889133372  0.4138153275319 1.0
C      1  0.4832213600900  0.4834202774839  0.4834442615237 1.0
END
