TITL C-28165-8331-22 -2.944 3375.00 -497.94273868 0 0 62 (C1) n - 1
REM
REM Run started: at 2020.12.04 07:35:11 in /rds/project/t2_vol4/rds-t2-cs072/BORA/CARBON/AIRSS/Generating-Clusters/Str-Search/Higher-Symm/C10-100
REM VASP from code version vasp.5.4.4.18Apr17-6-g9f103f2a35 (build Oct 11 2019 16:45:47) gamma-only
REM
REM
REM
REM
REM ./C.cell (f39ce9773e2efe3fa5bbdf770a4156b8)
REM AIRSS Version 0.9.1 bugfix July 2018 build 013d7b7c2542+ Fri, 06 Jul 2018 19:26:36 +0100
REM compiler GCC version 4.8.5 20150623 (Red Hat 4.8.5-39)
REM options -cpp -mtune=generic -march=x86-64 -g -O0
REM seed 822704819 502279104 -2047766465 937252453 295083337 -686389373 -1150772310 515725956 1340848302 -1269304010 -1613856812 1913889275
REM
REM C.POTCAR (d86ddea03c3ceb6dc662c8ad6801f873)
REM 
CELL 1.54180   15.00000   15.00000   15.00000   90.00000   90.00000   90.00000
LATT -1
SFAC C  
C      1  0.3519415082656  0.4947235151406  0.7456214516100 1.0
C      1  0.2129085673543  0.4842509824560  0.5277966883317 1.0
C      1  0.3163731593236  0.4630748900412  0.3150316768474 1.0
C      1  0.5678375121615  0.5174893680204  0.2125686077464 1.0
C      1  0.7303142340659  0.5148988603502  0.3966139627870 1.0
C      1  0.7237227183027  0.5096441403561  0.5921967873292 1.0
C      1  0.5782648242954  0.5070338473165  0.7497466352326 1.0
C      1  0.4204496973645  0.4556788907632  0.6133350018423 1.0
C      1  0.3610453285145  0.4458569120784  0.5291409434930 1.0
C      1  0.4423810696598  0.4873516992177  0.3906813974739 1.0
C      1  0.5319148256774  0.4714420607094  0.3552319806386 1.0
C      1  0.5770016005162  0.4285462561173  0.4369846100699 1.0
C      1  0.5781097930529  0.4354691400168  0.5361903572274 1.0
C      1  0.5174066010557  0.4401954574093  0.6027413129622 1.0
C      1  0.4591877419145  0.6660087954151  0.3898147966008 1.0
C      1  0.5530064148022  0.6762356939348  0.4108359825746 1.0
C      1  0.6029828966476  0.7068636508287  0.4935914028002 1.0
C      1  0.5606638385875  0.6849138038260  0.5814862899291 1.0
C      1  0.4725055679699  0.6703720922212  0.6065437963136 1.0
C      1  0.3937399108642  0.6571083760133  0.5532828560480 1.0
C      1  0.3880651029588  0.6550929172977  0.4554073756101 1.0
C      1  0.5734921761763  0.4240346228553  0.7524307710751 1.0
C      1  0.3602661011073  0.4119717894583  0.7503097421909 1.0
C      1  0.2137913491530  0.4026798520656  0.5450618417822 1.0
C      1  0.3052669033813  0.3876105998844  0.3492414555353 1.0
C      1  0.5682323570775  0.4319624992272  0.2112202081997 1.0
C      1  0.7271721215944  0.4324310177771  0.3960969022825 1.0
C      1  0.7121984066750  0.4274871048527  0.5895906215856 1.0
C      1  0.3330309378986  0.5843980484629  0.4321425495007 1.0
C      1  0.4492616050699  0.6059444756001  0.3174785067831 1.0
C      1  0.6059710223625  0.6205986721587  0.3590142860764 1.0
C      1  0.6815958680908  0.6394727149086  0.4944323375944 1.0
C      1  0.6177605992876  0.6307017688906  0.6374794154460 1.0
C      1  0.4711240612909  0.6083345135335  0.6804504442291 1.0
C      1  0.3395950798626  0.5920284305146  0.5912740750638 1.0
C      1  0.5247629579464  0.3749927870250  0.6823229535847 1.0
C      1  0.4186281612023  0.3730513520850  0.6803412989217 1.0
C      1  0.2994521977458  0.3576482895177  0.5200519747148 1.0
C      1  0.3170311185115  0.3280389563893  0.4207883843690 1.0
C      1  0.5447404672177  0.3879538302850  0.2904751888829 1.0
C      1  0.6634395286641  0.3687622452836  0.4330342435834 1.0
C      1  0.6540701897534  0.3638910493796  0.5421637783669 1.0
C      1  0.5272147501671  0.2897203549564  0.6266699857619 1.0
C      1  0.4280386318793  0.2919581789468  0.6181947761253 1.0
C      1  0.3689382827499  0.2838525275900  0.5458165909361 1.0
C      1  0.3868889824189  0.2704823606453  0.4504514744210 1.0
C      1  0.5450681806134  0.3013848372003  0.3367691812910 1.0
C      1  0.6209411210922  0.2845744470970  0.3970098057811 1.0
C      1  0.5934363217259  0.2804472197168  0.5591196403931 1.0
C      1  0.6870659610888  0.5971660307151  0.4099723035567 1.0
C      1  0.6888789079534  0.5978289991854  0.5822147676181 1.0
C      1  0.5610059957468  0.5872831939659  0.7053284423601 1.0
C      1  0.3897843436903  0.5467827718679  0.6683169321010 1.0
C      1  0.3003941485054  0.5339751318979  0.5173130626193 1.0
C      1  0.3714661596104  0.5417117959460  0.3480260870197 1.0
C      1  0.5460095165886  0.5627017238332  0.3001493299275 1.0
C      1  0.5714766183356  0.2486010271842  0.4704815327267 1.0
C      1  0.6266689433984  0.8845448123471  0.4690153732413 1.0
C      1  0.4967043130384  0.3735739102485  0.4559128412341 1.0
C      1  0.4266671691626  0.4369228254354  0.4614952697672 1.0
C      1  0.6243657060211  0.8019298117269  0.4837062566953 1.0
C      1  0.4849254227898  0.2806432698089  0.4238081531872 1.0
END
