TITL C-2874-4087-4 -5.714 3375.00 -954.62893319 0 0 117 (C1) n - 1
REM
REM Run started: at 2020.12.29 18:11:16 in /gpfs/home/chem/mssmkc/CARBON/AIRSS/Generating-Clusters/Str-Search/Higher-Symm/C100-200
REM VASP from code version vasp.5.4.4.18Apr17-6-g9f103f2a35 (build Oct 11 2019 16:45:47) gamma-only
REM
REM
REM
REM
REM ./C.cell (533062f00bc710175b3da973d35f2034)
REM AIRSS Version 0.9.1 bugfix July 2018 build 013d7b7c2542+ Fri, 06 Jul 2018 19:26:36 +0100
REM compiler GCC version 6.3.0
REM options -cpp -iprefix /gpfs/warwick/csc/orac/software/Core/GCCcore/6.3.0/bin/../lib/gcc/x86_64-pc-linux-gnu/6.3.0/ -mtune=generic -march=x86-64 -g -O0
REM seed -1510616617 2120457304 -525551366 351796004 312928027 -1000838567 -840168079 1720279621 -1924073640 -70699649 220593517 -48737482
REM
REM C.POTCAR (d86ddea03c3ceb6dc662c8ad6801f873)
REM 
CELL 1.54180   15.00000   15.00000   15.00000   90.00000   90.00000   90.00000
LATT -1
SFAC C  
C      1  0.6844518755559  0.3045793737463  0.4246026742948 1.0
C      1  0.3264189250937  0.3042893048297  0.5824562657382 1.0
C      1  0.4224167551376  0.3355617606447  0.6008369415275 1.0
C      1  0.6009252159876  0.3671910388584  0.4442504382971 1.0
C      1  0.5044882161539  0.4817719007493  0.3783040865426 1.0
C      1  0.5268516477300  0.4827599856674  0.6145189474580 1.0
C      1  0.5086672249034  0.8063969643772  0.3390994167309 1.0
C      1  0.4861923691568  0.7860366675728  0.7187873824523 1.0
C      1  0.3925755432831  0.3557043899045  0.7912251811538 1.0
C      1  0.5675368938737  0.3029558785707  0.2423408620597 1.0
C      1  0.1656192005918  0.4719349146666  0.3764325051387 1.0
C      1  0.8397952307155  0.4796336958244  0.6075479010014 1.0
C      1  0.7860832794372  0.6271241855541  0.4864645639478 1.0
C      1  0.2072943677565  0.6240144773371  0.5048058316030 1.0
C      1  0.5937726478635  0.4549998639889  0.3908194802702 1.0
C      1  0.4420657173642  0.4426211008545  0.6010467514504 1.0
C      1  0.4537552445592  0.5634913662481  0.3591044824491 1.0
C      1  0.5690429344948  0.5701752942869  0.6052837593511 1.0
C      1  0.3832186930426  0.4715778323224  0.5330769624167 1.0
C      1  0.6858904864003  0.4882251926146  0.4108249941938 1.0
C      1  0.6532509224824  0.5656882785105  0.5594889169834 1.0
C      1  0.3653855050965  0.5619749687033  0.3892528799097 1.0
C      1  0.5084368362405  0.3393570782022  0.4520659441774 1.0
C      1  0.4928176430314  0.2605591810420  0.6198978554428 1.0
C      1  0.6246815757350  0.4738354373612  0.7942711966455 1.0
C      1  0.3810697171117  0.4694409899037  0.1919957458075 1.0
C      1  0.6709041104798  0.7290444293516  0.5316693089859 1.0
C      1  0.3243450705588  0.7221250352893  0.4748235799871 1.0
C      1  0.5227090151853  0.3745199123602  0.1929602179076 1.0
C      1  0.4750246397656  0.4059529824110  0.8112144055805 1.0
C      1  0.2812831314722  0.8385944432013  0.5672150753890 1.0
C      1  0.7187898932560  0.8456185426378  0.4496101871002 1.0
C      1  0.5955089836988  0.3572116154955  0.6938845910785 1.0
C      1  0.4100386504216  0.3530933209377  0.3025769185804 1.0
C      1  0.6500655138055  0.2978228108065  0.2873970601318 1.0
C      1  0.3143233876802  0.3469871192323  0.7411177700045 1.0
C      1  0.8105341485897  0.5171788548002  0.6742805245481 1.0
C      1  0.1951471179027  0.5143772325771  0.3122250929332 1.0
C      1  0.3603216780837  0.4086314560020  0.4563808549227 1.0
C      1  0.6463446276273  0.4002149651451  0.5345712473806 1.0
C      1  0.7161943351201  0.6150934383792  0.2478013748873 1.0
C      1  0.2660924355016  0.5953890848274  0.7419440428208 1.0
C      1  0.3977156091850  0.7129165803956  0.5959624853350 1.0
C      1  0.5099453065315  0.7095393095801  0.4729242307769 1.0
C      1  0.6800648033274  0.8162786531542  0.5915079543916 1.0
C      1  0.3191084459737  0.8100141302938  0.4216913691848 1.0
C      1  0.5705535342912  0.2384332284163  0.3104826925079 1.0
C      1  0.3207188371433  0.3051771397933  0.8265322067515 1.0
C      1  0.5224520887257  0.7229190657795  0.3752987865075 1.0
C      1  0.4660894664761  0.7152801012512  0.6609900550655 1.0
C      1  0.4862896478233  0.1711900495396  0.5728991506235 1.0
C      1  0.5306553260483  0.1813607362111  0.3863810952896 1.0
C      1  0.1669169328131  0.4582357730896  0.4677630384114 1.0
C      1  0.8371427541731  0.4663658129872  0.5141867076994 1.0
C      1  0.3144329294650  0.5804685959741  0.8073777902501 1.0
C      1  0.6753963188072  0.5721567454191  0.1893859842005 1.0
C      1  0.4446801038492  0.3948423250016  0.3963506689678 1.0
C      1  0.5971325264080  0.4106832920583  0.6197579851292 1.0
C      1  0.3612206358342  0.7954379701259  0.3385948538603 1.0
C      1  0.6415223070435  0.7964313408450  0.6754914633387 1.0
C      1  0.7207391358250  0.6437826541420  0.5629715250061 1.0
C      1  0.2608912150442  0.6576278321505  0.4345837561621 1.0
C      1  0.5853676099302  0.2664098499544  0.6581446299605 1.0
C      1  0.3717885973938  0.2764565187235  0.3151498232868 1.0
C      1  0.7184368452094  0.3357335004886  0.3378226453000 1.0
C      1  0.2731509958987  0.3546598643372  0.6548829488568 1.0
C      1  0.5616768935216  0.4039810589519  0.7763120099403 1.0
C      1  0.4350450228303  0.3972954784124  0.2176827688381 1.0
C      1  0.5753422203847  0.1544765022776  0.5490914557678 1.0
C      1  0.4372579538078  0.1684072194318  0.4160090106221 1.0
C      1  0.3736654739122  0.6989608384511  0.3199604017051 1.0
C      1  0.6367494570708  0.6989313234398  0.6854765287928 1.0
C      1  0.5778972984310  0.4394325806207  0.1535310566790 1.0
C      1  0.4415025578023  0.4815708895779  0.8575453341164 1.0
C      1  0.1698301079133  0.5369772475102  0.5249768902942 1.0
C      1  0.8188829690232  0.5444459218086  0.4617215886215 1.0
C      1  0.5609737041892  0.8265772020310  0.7155092449536 1.0
C      1  0.4388640985167  0.8461249092087  0.3127028483914 1.0
C      1  0.7735488259006  0.5235235646846  0.3738529353828 1.0
C      1  0.1929199543415  0.5138245830025  0.6139449627824 1.0
C      1  0.2070446943085  0.3898099603490  0.5172498625297 1.0
C      1  0.8039632005827  0.3918803830890  0.4685880740045 1.0
C      1  0.7547120754391  0.6157621645635  0.3316334403959 1.0
C      1  0.2276276382937  0.5950238823987  0.6574762615611 1.0
C      1  0.2191180036211  0.4184349705486  0.6107761376080 1.0
C      1  0.7642084685086  0.4192931803501  0.3766528903397 1.0
C      1  0.6375453992833  0.2103154893513  0.6039172060831 1.0
C      1  0.3585402006980  0.2167508758528  0.3798170045678 1.0
C      1  0.4161769882100  0.1618629727791  0.5112898951442 1.0
C      1  0.5960988724513  0.1621599419051  0.4555545059169 1.0
C      1  0.3036653634456  0.6296032989522  0.3474770943020 1.0
C      1  0.7170148288170  0.6442814838264  0.6660686274356 1.0
C      1  0.4597556330813  0.6596092555291  0.3315699749545 1.0
C      1  0.5531663040435  0.6669161952579  0.6339466155779 1.0
C      1  0.7094078617417  0.7544228601573  0.4391593384703 1.0
C      1  0.2997154748781  0.7372268853261  0.5773120686458 1.0
C      1  0.3342628371941  0.2114916197268  0.5309242262415 1.0
C      1  0.6771018275002  0.2131130284151  0.4580046620671 1.0
C      1  0.2883156972631  0.3389610015664  0.4895924227328 1.0
C      1  0.7321784579152  0.3347485806432  0.5100799873580 1.0
C      1  0.7043009841262  0.8812741904365  0.5280358700292 1.0
C      1  0.2950732018814  0.8710228141504  0.4899798715248 1.0
C      1  0.7543987205104  0.6749510306252  0.4065019220704 1.0
C      1  0.2352656753592  0.6625336828735  0.5914281031182 1.0
C      1  0.3218555201665  0.5216173700360  0.2183695079207 1.0
C      1  0.6850375119536  0.5277746367775  0.7778014851794 1.0
C      1  0.3434351207124  0.5046893776892  0.4606235152210 1.0
C      1  0.6708066867681  0.4908770396123  0.5075577696998 1.0
C      1  0.2639044514050  0.5654618969706  0.2766889778463 1.0
C      1  0.7450592028641  0.5708516497463  0.7171757024735 1.0
C      1  0.6245389538849  0.5078610994728  0.1540110197153 1.0
C      1  0.3801046571696  0.5369238570093  0.8493883669762 1.0
C      1  0.7078693799579  0.2397058955584  0.5430706417122 1.0
C      1  0.2988324988307  0.2437242638998  0.4523269423184 1.0
C      1  0.4186596727153  0.7002734646600  0.5060127601082 1.0
C      1  0.5740800324971  0.7072998972746  0.5378618830731 1.0
C      1  0.4838326831082  0.3111172477035  0.5327035620453 1.0
END
