TITL C-28866-6487-3 -8.636 3375.00 -1521.25867370 0 0 183 (C1) n - 1
REM
REM Run started: at 2020.12.26 15:29:55 in /rds/project/t2_vol4/rds-t2-cs072/BORA/CARBON/AIRSS/Generating-Clusters/Str-Search/Higher-Symm/C100-200
REM VASP from code version vasp.5.4.4.18Apr17-6-g9f103f2a35 (build Oct 11 2019 16:45:47) gamma-only
REM
REM
REM
REM
REM ./C.cell (533062f00bc710175b3da973d35f2034)
REM AIRSS Version 0.9.1 bugfix July 2018 build 013d7b7c2542+ Fri, 06 Jul 2018 19:26:36 +0100
REM compiler GCC version 4.8.5 20150623 (Red Hat 4.8.5-39)
REM options -cpp -mtune=generic -march=x86-64 -g -O0
REM seed 287201420 826126036 -1248735819 1646818018 124399000 1845196233 2048961100 -380606717 -2083624108 1138644643 2072704425 1049445827
REM
REM C.POTCAR (d86ddea03c3ceb6dc662c8ad6801f873)
REM 
CELL 1.54180   15.00000   15.00000   15.00000   90.00000   90.00000   90.00000
LATT -1
SFAC C  
C      1  0.4218149849189  0.2229334132925  0.7163100684535 1.0
C      1  0.2985902460576  0.6658772125988  0.7060809534727 1.0
C      1  0.8017997629699  0.6115172296612  0.6986281191768 1.0
C      1  0.4309840001538  0.6297565890705  0.1604808634772 1.0
C      1  0.6146273983354  0.5178049353405  0.1548949778008 1.0
C      1  0.4111404433127  0.3905205506827  0.1844847466624 1.0
C      1  0.2257642751614  0.7862804216472  0.4699217270375 1.0
C      1  0.8861641193253  0.5926162220086  0.4363253471344 1.0
C      1  0.3687234718448  0.1249179212094  0.4803277686930 1.0
C      1  0.5304219759913  0.5118957236392  0.5411962251101 1.0
C      1  0.5922861264008  0.4655408751659  0.6038213454839 1.0
C      1  0.5286407698444  0.4054397242550  0.6479375924688 1.0
C      1  0.8673648084999  0.4997347496223  0.5800066439891 1.0
C      1  0.3128948014414  0.2176001034079  0.5994009136158 1.0
C      1  0.3373652196635  0.7677623301420  0.5921097550271 1.0
C      1  0.3373395023333  0.5932565307961  0.3965005140444 1.0
C      1  0.6648307049287  0.6379655696123  0.3904411666214 1.0
C      1  0.4914635824845  0.3581889010395  0.4403933969672 1.0
C      1  0.6196402461145  0.7533974752303  0.5383501177126 1.0
C      1  0.6644108600945  0.2279874017149  0.5581840293676 1.0
C      1  0.1745640544849  0.4855379202530  0.5248320385622 1.0
C      1  0.4738319503495  0.3596308291417  0.3444005732051 1.0
C      1  0.3791128054289  0.6227241753960  0.3139604143676 1.0
C      1  0.6847288663606  0.5620684320145  0.3343094603956 1.0
C      1  0.3345515004575  0.2492519177621  0.6836463376445 1.0
C      1  0.3624366167214  0.7312610817942  0.6767401415936 1.0
C      1  0.8219441625392  0.5236467161688  0.6596625506901 1.0
C      1  0.7076894221035  0.7319734181250  0.4003901318280 1.0
C      1  0.6046246817122  0.1413737987249  0.4354378132353 1.0
C      1  0.1184011166673  0.5801396643510  0.4035020405405 1.0
C      1  0.4003008871306  0.7452946891652  0.4470015392290 1.0
C      1  0.7995530014499  0.4265176127176  0.4572168706043 1.0
C      1  0.3340281520579  0.3260901433556  0.4732008979352 1.0
C      1  0.5344707378682  0.8920528012448  0.4236719170704 1.0
C      1  0.8232852196241  0.2433521214593  0.4308556491328 1.0
C      1  0.1358662128866  0.3440725375937  0.4135060753091 1.0
C      1  0.5222409326818  0.6500198575028  0.1360334541854 1.0
C      1  0.5755632495244  0.4397383849508  0.2005083221819 1.0
C      1  0.3672419108667  0.4698745720216  0.1417670141418 1.0
C      1  0.0526994626674  0.3732078469774  0.5562988842732 1.0
C      1  0.5728410286457  0.9841966054230  0.5712915807289 1.0
C      1  0.8279011018868  0.1706626399922  0.5774211651518 1.0
C      1  0.5329943824294  0.2171967622616  0.3144778532830 1.0
C      1  0.2068642519228  0.6229026775628  0.2730180354943 1.0
C      1  0.7416373202791  0.7059145188268  0.2500102784435 1.0
C      1  0.5079458223814  0.8072469509435  0.6484618814497 1.0
C      1  0.7638974068246  0.3105481958048  0.6606888171093 1.0
C      1  0.2064585147201  0.3629549716462  0.6384887466630 1.0
C      1  0.7655559708440  0.7487463166343  0.6056987793024 1.0
C      1  0.5589587329027  0.1402665054906  0.6438315289712 1.0
C      1  0.1486670860893  0.6268817614948  0.6226396240943 1.0
C      1  0.0948249693844  0.4289479116269  0.3871490209365 1.0
C      1  0.6254408308055  0.8644781990207  0.4050404064305 1.0
C      1  0.7506822505513  0.1840806431893  0.4152658295311 1.0
C      1  0.4478514303545  0.5315093933304  0.1449405297221 1.0
C      1  0.5416354128209  0.5590519663129  0.1115449954844 1.0
C      1  0.4784875174847  0.4590681321545  0.2165106795693 1.0
C      1  0.2918795054020  0.3427917809164  0.6946818213736 1.0
C      1  0.4564913523446  0.7472434071840  0.7050513428472 1.0
C      1  0.7376118424540  0.3840115497964  0.7145965064024 1.0
C      1  0.5904159768733  0.2900638435041  0.5397962208826 1.0
C      1  0.2624382695825  0.5030776407921  0.5051420133390 1.0
C      1  0.6166119580017  0.6603098127757  0.5420950906665 1.0
C      1  0.4508445008090  0.3357030538635  0.8372153725745 1.0
C      1  0.3755130246922  0.5820052973426  0.8285889099737 1.0
C      1  0.6930547496867  0.5750734411847  0.8254549607737 1.0
C      1  0.3538573529958  0.6539166267267  0.2167464204749 1.0
C      1  0.6893779820802  0.5722182385519  0.1818682875978 1.0
C      1  0.4283885595167  0.3114179183184  0.2298126623282 1.0
C      1  0.4215926947316  0.3538612245015  0.5000606349287 1.0
C      1  0.3713186643344  0.6565602904693  0.4623910649950 1.0
C      1  0.7143752582457  0.4477321111660  0.4880804382475 1.0
C      1  0.6486228671869  0.7899713845101  0.4551344201508 1.0
C      1  0.6846286268121  0.1704001629503  0.4822767128758 1.0
C      1  0.1084063893311  0.4954402225893  0.4515243316904 1.0
C      1  0.7854342812721  0.1555696128136  0.6486112360139 1.0
C      1  0.0649386509299  0.4167154154553  0.6283814589183 1.0
C      1  0.6141792327659  0.9068002242943  0.5831423319699 1.0
C      1  0.2960290913755  0.6107874840792  0.7809352712961 1.0
C      1  0.7438729321051  0.6354107821022  0.7687256908323 1.0
C      1  0.4763725700140  0.2567461800312  0.7853253669230 1.0
C      1  0.5765205887890  0.2529758278771  0.7690686753871 1.0
C      1  0.2261296636152  0.5412199997592  0.7685966972720 1.0
C      1  0.6817718121621  0.7204953161798  0.7488998751906 1.0
C      1  0.7435455468681  0.4353184565643  0.2952083797189 1.0
C      1  0.3372315262396  0.4407650700169  0.3428378690580 1.0
C      1  0.4987993457412  0.7071376126292  0.3176516160345 1.0
C      1  0.8237651859716  0.3265249337645  0.5829915830329 1.0
C      1  0.1888997307259  0.3086891075607  0.5617053194506 1.0
C      1  0.4701402100252  0.8472067714917  0.5694170866961 1.0
C      1  0.6129324785565  0.8143219299290  0.6232294840499 1.0
C      1  0.7074094839132  0.2180001871330  0.6540276015933 1.0
C      1  0.1556219241735  0.4596566368733  0.6252757041491 1.0
C      1  0.2381395744546  0.7027803916584  0.3228889943345 1.0
C      1  0.8017115441487  0.6381352244388  0.2913281283391 1.0
C      1  0.4490432537321  0.2009506528557  0.3548747408981 1.0
C      1  0.6890354303269  0.4497644693051  0.5774646754222 1.0
C      1  0.4491289685042  0.3613513702326  0.5969487661409 1.0
C      1  0.3856788080859  0.6032733896622  0.5410058058042 1.0
C      1  0.8147744331190  0.3059213311160  0.3579045833796 1.0
C      1  0.2124942741351  0.3394489839635  0.3568266668316 1.0
C      1  0.4864991074490  0.8577081528084  0.3488998171375 1.0
C      1  0.1416092347392  0.5627429699116  0.3129907731590 1.0
C      1  0.7089488768163  0.7730236942992  0.3079982417474 1.0
C      1  0.6115749800541  0.1765798461647  0.3456862726966 1.0
C      1  0.4452144357688  0.1393575711919  0.4303145924896 1.0
C      1  0.1944279070453  0.7265199337793  0.4049400381843 1.0
C      1  0.8434077047157  0.6535343539597  0.3784077887169 1.0
C      1  0.5269226531323  0.1145262409932  0.4778054366008 1.0
C      1  0.1363879336045  0.6599182306076  0.4498976557367 1.0
C      1  0.7998883075449  0.7224246960404  0.4391352868586 1.0
C      1  0.6085174329059  0.3363560995107  0.8017545287519 1.0
C      1  0.2644277728857  0.4642000889679  0.8001585931569 1.0
C      1  0.5961184986747  0.6993775469454  0.7926963512033 1.0
C      1  0.5068221224741  0.2796151308885  0.5944835994419 1.0
C      1  0.3092755859147  0.5548586933858  0.5814666482675 1.0
C      1  0.6717747649641  0.6138897381412  0.6069860141578 1.0
C      1  0.6584248938689  0.5273484465817  0.6448281922932 1.0
C      1  0.4964880178069  0.4300382161218  0.7337919500697 1.0
C      1  0.3804754853136  0.4989063762263  0.6351608098698 1.0
C      1  0.3606955337534  0.4796955853764  0.8205813351873 1.0
C      1  0.5374385255023  0.5709142781899  0.8630871857511 1.0
C      1  0.5700568990444  0.4816709198542  0.8598746359628 1.0
C      1  0.6639018136807  0.4815970718348  0.8315765175368 1.0
C      1  0.3684445268183  0.3782390479902  0.8416416845999 1.0
C      1  0.4607183130594  0.6205076841007  0.8280995499706 1.0
C      1  0.3940236052654  0.2865578761611  0.3253435858342 1.0
C      1  0.3392905731393  0.7195263735953  0.2953044446835 1.0
C      1  0.7514847223043  0.5501491499983  0.2604575392130 1.0
C      1  0.4051819958886  0.7942565110181  0.5287797662449 1.0
C      1  0.8504815135859  0.4108968995814  0.5431142114652 1.0
C      1  0.2767300534156  0.2837290897942  0.5345345570272 1.0
C      1  0.8045604254125  0.7539887053667  0.5244323330795 1.0
C      1  0.5500865266194  0.0758756166113  0.5727904563665 1.0
C      1  0.1265632296645  0.6534961896864  0.5426736677671 1.0
C      1  0.5656100925377  0.5229036803942  0.4488177732695 1.0
C      1  0.6319674846884  0.4404678530251  0.4325743521917 1.0
C      1  0.4992384893967  0.5324838378829  0.3681386464178 1.0
C      1  0.6837613444447  0.3933647054613  0.7920143490310 1.0
C      1  0.2844694241060  0.3700929926612  0.7913282349880 1.0
C      1  0.4996327649239  0.6993524618352  0.7768455790562 1.0
C      1  0.7393600338558  0.4687525570789  0.6630270836982 1.0
C      1  0.3725401420064  0.3989044799224  0.6534678593611 1.0
C      1  0.4476830330914  0.5413423695685  0.5710797878302 1.0
C      1  0.4250047279288  0.7713150566238  0.3530345254221 1.0
C      1  0.8080513743977  0.3983654986075  0.3655183908177 1.0
C      1  0.3149132450267  0.3388505118334  0.3749751802753 1.0
C      1  0.5458614074949  0.7495001720286  0.2500921043547 1.0
C      1  0.7017478163615  0.3498740184753  0.2521391408584 1.0
C      1  0.2785729341855  0.4428409850629  0.2600651240300 1.0
C      1  0.1774674138732  0.5474450397676  0.6808376162209 1.0
C      1  0.6944762959705  0.7784137000707  0.6756680271817 1.0
C      1  0.6202670012629  0.1933688930213  0.7063731040754 1.0
C      1  0.5815433178287  0.3541847997662  0.4673404008953 1.0
C      1  0.3054449675744  0.5102208867995  0.4151504493976 1.0
C      1  0.6132700631977  0.6108815404826  0.4586220584781 1.0
C      1  0.6067126063908  0.3584125414880  0.2306089123584 1.0
C      1  0.2923823998434  0.5038149621370  0.1858805676980 1.0
C      1  0.5889609933583  0.7018716904991  0.1772720780018 1.0
C      1  0.4474960608359  0.4552341006478  0.3213260579114 1.0
C      1  0.4752840485449  0.6144513817367  0.3317056967457 1.0
C      1  0.6688163532270  0.4734398676291  0.3474463253298 1.0
C      1  0.8967368257331  0.5595398902122  0.5123423180593 1.0
C      1  0.3334031753641  0.1393244352515  0.5542242716526 1.0
C      1  0.2564147131887  0.7810971225107  0.5480419576192 1.0
C      1  0.7541582240554  0.6534484259900  0.6238730578227 1.0
C      1  0.4851412724884  0.2037484285393  0.6413084843362 1.0
C      1  0.2476717399655  0.6103327256638  0.6372365430382 1.0
C      1  0.1258990900773  0.4657700442988  0.3021987222307 1.0
C      1  0.6452514686337  0.8459643992901  0.3117250946354 1.0
C      1  0.7037580230906  0.1985359528824  0.3311435440280 1.0
C      1  0.2716832991516  0.5960348569951  0.2084797628855 1.0
C      1  0.6788511624348  0.6679761892775  0.1848740716576 1.0
C      1  0.5284392453293  0.3069546051536  0.2697703592015 1.0
C      1  0.1142915645872  0.3217994341111  0.5049531393312 1.0
C      1  0.5257228800989  0.9087595145811  0.5202060067385 1.0
C      1  0.8415009103994  0.2475364562727  0.5255258051073 1.0
C      1  0.5312194411012  0.3966549536025  0.8250018083704 1.0
C      1  0.4081755318993  0.4673687389442  0.7271124981559 1.0
C      1  0.6131805462766  0.6237483596165  0.8464344217659 1.0
C      1  0.7428324317113  0.2772663242647  0.2943133312381 1.0
C      1  0.1983363310214  0.4052442142284  0.2867985863976 1.0
C      1  0.5548559235889  0.8394750966203  0.2803846569371 1.0
END
