TITL C-28945-2386-23 -4.54 3375.00 -769.52650253 0 0 98 (C1) n - 1
REM
REM Run started: at 2020.12.29 09:58:22 in /gpfs/home/chem/mssmkc/CARBON/AIRSS/Generating-Clusters/Str-Search/Higher-Symm/C4-100
REM VASP from code version vasp.5.4.4.18Apr17-6-g9f103f2a35 (build Oct 11 2019 16:45:47) gamma-only
REM
REM
REM
REM
REM ./C.cell (6bd13a13d554368a30d355f37ece5b26)
REM AIRSS Version 0.9.1 bugfix July 2018 build 013d7b7c2542+ Fri, 06 Jul 2018 19:26:36 +0100
REM compiler GCC version 6.3.0
REM options -cpp -iprefix /gpfs/warwick/csc/orac/software/Core/GCCcore/6.3.0/bin/../lib/gcc/x86_64-pc-linux-gnu/6.3.0/ -mtune=generic -march=x86-64 -g -O0
REM seed 415954828 -1049480758 -763466624 -21753935 -1190207723 535407305 1404461463 -1608027656 -2058875329 -692618596 546452316 74637395
REM
REM C.POTCAR (d86ddea03c3ceb6dc662c8ad6801f873)
REM 
CELL 1.54180   15.00000   15.00000   15.00000   90.00000   90.00000   90.00000
LATT -1
SFAC C  
C      1  0.1840809586662  0.2786444752957  0.4688582116607 1.0
C      1  0.1045943747733  0.3668167868843  0.3642001503172 1.0
C      1  0.0789587645576  0.4526379334433  0.3402336234679 1.0
C      1  0.0797166090932  0.6071570482212  0.3682001241099 1.0
C      1  0.1063924285144  0.6785222341924  0.4209717277114 1.0
C      1  0.1866753410914  0.7234355820431  0.5496355906503 1.0
C      1  0.2371664963170  0.6924344489730  0.6220156758198 1.0
C      1  0.2927063144129  0.5484077776852  0.6874891122759 1.0
C      1  0.3402349181869  0.4673713521625  0.6902067873416 1.0
C      1  0.2916901535010  0.3929970890764  0.6591527898822 1.0
C      1  0.2347388730149  0.2818629948613  0.5473986791192 1.0
C      1  0.3022080755087  0.3420140019219  0.5071421408716 1.0
C      1  0.2491470781591  0.3398307075759  0.4214856634656 1.0
C      1  0.2024768395865  0.3932821164869  0.3614809504198 1.0
C      1  0.1740708420569  0.4853942371449  0.3347849501945 1.0
C      1  0.1745578839953  0.5773021044729  0.3514659596532 1.0
C      1  0.2039616599689  0.6537303053325  0.4089192424859 1.0
C      1  0.2511316834679  0.6823693646802  0.4837015598097 1.0
C      1  0.3042104069882  0.6497463571491  0.5631626245877 1.0
C      1  0.3379698953965  0.5740192813337  0.6042794605152 1.0
C      1  0.3883108565380  0.4837080868413  0.5982279543160 1.0
C      1  0.3365408420822  0.3981449142583  0.5721350525729 1.0
C      1  0.6699715432057  0.4699501303517  0.2389962298040 1.0
C      1  0.6708026900375  0.6119915916533  0.2614102701651 1.0
C      1  0.6589444945515  0.7050026498780  0.3632651063983 1.0
C      1  0.6379991892790  0.7552297683597  0.4921392570436 1.0
C      1  0.6110773216256  0.7087465293526  0.6265457275818 1.0
C      1  0.5902574921036  0.5861831525156  0.6993692554887 1.0
C      1  0.6392249357553  0.4549148117611  0.7564484779103 1.0
C      1  0.5897714867362  0.3506175223366  0.6593651107845 1.0
C      1  0.6095455786845  0.2583294508887  0.5501606928172 1.0
C      1  0.6361096974560  0.2572154026549  0.4076883305052 1.0
C      1  0.6563024078076  0.3476857225390  0.3035580982657 1.0
C      1  0.6056798107434  0.2813186164697  0.7937720209414 1.0
C      1  0.5958268577702  0.2209367626170  0.7304041105514 1.0
C      1  0.6251488689314  0.1030494221316  0.4736157363368 1.0
C      1  0.6651601949812  0.2103929102767  0.2291012747067 1.0
C      1  0.6735499043982  0.2923495531273  0.1876829843758 1.0
C      1  0.6890514624801  0.5601208687975  0.0978096733906 1.0
C      1  0.6748169981444  0.7975044573035  0.2382503352111 1.0
C      1  0.6638425855506  0.8286910385728  0.3245444785920 1.0
C      1  0.6246897442320  0.8780210058684  0.6118188192425 1.0
C      1  0.5994885597641  0.6894065338688  0.8100261369011 1.0
C      1  0.6057246656366  0.6088924230710  0.8447870717059 1.0
C      1  0.5281803022859  0.3900609874917  0.5865742911230 1.0
C      1  0.5416159789869  0.3314965300733  0.5141463728603 1.0
C      1  0.5605688764674  0.3333610448525  0.4185462105198 1.0
C      1  0.5737282721618  0.3931604860537  0.3420708166699 1.0
C      1  0.5840496938924  0.4822743988431  0.3041368722409 1.0
C      1  0.5844272139944  0.5801102507695  0.3197612714230 1.0
C      1  0.5754196563567  0.6510697889776  0.3856432957189 1.0
C      1  0.5620942426072  0.6811454974222  0.4779730288204 1.0
C      1  0.5423241112161  0.6524052020601  0.5685328283796 1.0
C      1  0.5287980839296  0.5730708163879  0.6178965986541 1.0
C      1  0.4881882380193  0.4857992944893  0.5789440337392 1.0
C      1  0.0607563563165  0.3765868284182  0.4549091011955 1.0
C      1  0.0325763071037  0.4694193816473  0.4276091847664 1.0
C      1  0.0329080670987  0.5612739563889  0.4442535817166 1.0
C      1  0.0621156609934  0.6382259214519  0.5024789140798 1.0
C      1  0.1078568818708  0.6665158464274  0.5783134278365 1.0
C      1  0.1649001556966  0.6353454304021  0.6556894364420 1.0
C      1  0.1953817896162  0.5538747379280  0.6910411947323 1.0
C      1  0.1458737124140  0.4692977843552  0.6862774166715 1.0
C      1  0.1943167680376  0.3878752333945  0.6607635582072 1.0
C      1  0.1630261436721  0.3244809008528  0.5991026153405 1.0
C      1  0.1059427043991  0.3230456933615  0.5159104385445 1.0
C      1  0.6032391960841  0.3662628211204  0.7599934744737 1.0
C      1  0.5920799501023  0.2505837185183  0.6457981099548 1.0
C      1  0.6225157449442  0.1903137106006  0.4797078254698 1.0
C      1  0.6530391751499  0.2494426104751  0.3112168535190 1.0
C      1  0.6719673165911  0.3771732918464  0.2078002084800 1.0
C      1  0.6793889849460  0.5512954729542  0.1843771455345 1.0
C      1  0.6723278916797  0.7101946108141  0.2660817595334 1.0
C      1  0.6550563618192  0.7976957083840  0.4055459418131 1.0
C      1  0.6247325654411  0.7958775225301  0.5811367504116 1.0
C      1  0.5940099327809  0.6841869860981  0.7195704812748 1.0
C      1  0.6035355996911  0.5373582009700  0.7889804757829 1.0
C      1  0.6910695963507  0.3299875944495  0.5408110595511 1.0
C      1  0.7061255437096  0.3317945917265  0.4454339098086 1.0
C      1  0.7237093969523  0.3903489910221  0.3668926522696 1.0
C      1  0.7324329049007  0.4778389536527  0.3267429427321 1.0
C      1  0.7336725293920  0.5757379826478  0.3425167981320 1.0
C      1  0.7254189704477  0.6443199365836  0.4098690599087 1.0
C      1  0.7073770425661  0.6725129559396  0.5036656392821 1.0
C      1  0.6920659443443  0.6432008817233  0.5939596063724 1.0
C      1  0.6770557542795  0.5658899385803  0.6482740371968 1.0
C      1  0.6834476084502  0.4693841212277  0.6693578389601 1.0
C      1  0.6771486558705  0.3851766061700  0.6176150314365 1.0
C      1  0.5049731831721  0.5026271967393  0.4799593692778 1.0
C      1  0.0563887835947  0.4713537792314  0.6746163818392 1.0
C      1  0.3698947790584  0.5241748454628  0.3690225181974 1.0
C      1  0.4368509062486  0.5142783420958  0.4201364868361 1.0
C      1  0.5956060477108  0.5036111871229  0.4691001977976 1.0
C      1  0.6767265515426  0.4998418013592  0.4908202148580 1.0
C      1  0.8361096629651  0.4896819773639  0.5490079013869 1.0
C      1  0.9061660679053  0.4824181737813  0.5970050408536 1.0
C      1  0.7616260045503  0.4966587447037  0.5088973091726 1.0
C      1  0.9789091438706  0.4753808076253  0.6421560582336 1.0
END
