TITL C-28945-2386-160 -4.043 3375.00 -674.60115286 0 0 85 (C1) n - 1
REM
REM Run started: at 2020.12.30 13:23:34 in /gpfs/home/chem/mssmkc/CARBON/AIRSS/Generating-Clusters/Str-Search/Higher-Symm/C4-100
REM VASP from code version vasp.5.4.4.18Apr17-6-g9f103f2a35 (build Oct 11 2019 16:45:47) gamma-only
REM
REM
REM
REM
REM ./C.cell (6bd13a13d554368a30d355f37ece5b26)
REM AIRSS Version 0.9.1 bugfix July 2018 build 013d7b7c2542+ Fri, 06 Jul 2018 19:26:36 +0100
REM compiler GCC version 6.3.0
REM options -cpp -iprefix /gpfs/warwick/csc/orac/software/Core/GCCcore/6.3.0/bin/../lib/gcc/x86_64-pc-linux-gnu/6.3.0/ -mtune=generic -march=x86-64 -g -O0
REM seed -1803965117 536450044 455100098 -578787602 -1184353649 1033312180 86650872 427087378 -858995215 493434641 -277936786 171175695
REM
REM C.POTCAR (d86ddea03c3ceb6dc662c8ad6801f873)
REM 
CELL 1.54180   15.00000   15.00000   15.00000   90.00000   90.00000   90.00000
LATT -1
SFAC C  
C      1  0.3760230422511  0.6778134784265  0.7223445698104 1.0
C      1  0.2998597062991  0.4293911997491  0.7328903710639 1.0
C      1  0.5091004643263  0.2786127532020  0.7072080369366 1.0
C      1  0.7016771102915  0.4257657452665  0.7220983274049 1.0
C      1  0.6272872400678  0.6675056410049  0.7289900381979 1.0
C      1  0.6405833973486  0.6691712660748  0.2661866981291 1.0
C      1  0.7030963944128  0.4379237846109  0.2645561387431 1.0
C      1  0.5124179441714  0.2777565970909  0.2536138636309 1.0
C      1  0.3067449352769  0.4197669929327  0.2734894096826 1.0
C      1  0.3975295374452  0.6528232150737  0.2373981435558 1.0
C      1  0.3747126288159  0.3691664013919  0.5677701369701 1.0
C      1  0.6028343405552  0.3889478044123  0.6042672300975 1.0
C      1  0.6465569044618  0.5814542453498  0.5981645355724 1.0
C      1  0.4737541255487  0.6860687951982  0.5958458757664 1.0
C      1  0.3143049345201  0.5599839035295  0.5783730752696 1.0
C      1  0.6079277215166  0.3481313556845  0.4317144789827 1.0
C      1  0.3967666986615  0.3636909721264  0.4033432851988 1.0
C      1  0.3189955460446  0.5594386637187  0.4333442472005 1.0
C      1  0.4984918995008  0.6946762734338  0.4365344452668 1.0
C      1  0.6864409756303  0.5583028898067  0.4393304149225 1.0
C      1  0.3515863162144  0.3431689288811  0.7292789921118 1.0
C      1  0.5978094374556  0.2980193551502  0.7351907235265 1.0
C      1  0.6980284765089  0.5126703839660  0.7546757763199 1.0
C      1  0.5411300331119  0.6893463238809  0.7573044941853 1.0
C      1  0.3168003107860  0.6005742235081  0.7380014285444 1.0
C      1  0.6536092211552  0.3563179279604  0.2601836079910 1.0
C      1  0.4178479373906  0.2922700809855  0.2480097289324 1.0
C      1  0.2885599926992  0.5127244059475  0.2689365210529 1.0
C      1  0.4865005619589  0.6772130086427  0.2501402759446 1.0
C      1  0.6993452270152  0.5961340806806  0.2666497385265 1.0
C      1  0.5542142741110  0.4417454718157  0.4181070389049 1.0
C      1  0.5825326595857  0.5323156433541  0.4244332644294 1.0
C      1  0.4995793895170  0.5898199009845  0.4274004474122 1.0
C      1  0.4224137922991  0.5319874882512  0.4164205529201 1.0
C      1  0.4566211638776  0.4434021145654  0.4034758191635 1.0
C      1  0.4386319457662  0.4461980684367  0.5894186734442 1.0
C      1  0.4085245257905  0.5329059494357  0.5958084298884 1.0
C      1  0.4839739025970  0.5920991045739  0.6020136909760 1.0
C      1  0.5611240223500  0.5412469929826  0.6035344996682 1.0
C      1  0.5352888617175  0.4487247287790  0.5993191842012 1.0
C      1  0.7326583659498  0.5625989281594  0.3493483686907 1.0
C      1  0.5124043373071  0.7124890022910  0.3372735571818 1.0
C      1  0.2840926371395  0.5724005100529  0.3415249473488 1.0
C      1  0.3715451130194  0.2948241890257  0.3306346102218 1.0
C      1  0.6311307724471  0.3108403764811  0.3402400468113 1.0
C      1  0.2632793292693  0.5609277665796  0.6671780657559 1.0
C      1  0.4686642225630  0.7805109301492  0.5996081603151 1.0
C      1  0.7370660652226  0.6087245162265  0.6051407049657 1.0
C      1  0.6583864164085  0.3150196986481  0.5924145203130 1.0
C      1  0.3792503564083  0.3034111567211  0.6427217902101 1.0
C      1  0.7437172915471  0.4692829145618  0.3505910570231 1.0
C      1  0.6066507658543  0.7153235251872  0.3491507012585 1.0
C      1  0.3141400368405  0.6536462840261  0.2855855692354 1.0
C      1  0.3094088049015  0.3658419810964  0.3544095338460 1.0
C      1  0.5511565773555  0.2568656260622  0.3435266491611 1.0
C      1  0.2363652878178  0.4646217400725  0.6712068391103 1.0
C      1  0.3829032846722  0.7233675717389  0.6332983353506 1.0
C      1  0.6606260162060  0.6771471396347  0.6299891449497 1.0
C      1  0.7041125401026  0.4035929107919  0.6207772506341 1.0
C      1  0.4664142199327  0.2596786869936  0.6220685374551 1.0
C      1  0.6848645162038  0.5171642780782  0.2147325651925 1.0
C      1  0.5678597169717  0.6571343605819  0.2057746961146 1.0
C      1  0.3320096801473  0.5877919359122  0.2194276935023 1.0
C      1  0.3624300113125  0.3622544270989  0.2268288126917 1.0
C      1  0.5729218031398  0.3376826383999  0.2126735379096 1.0
C      1  0.3419201322566  0.5133647661519  0.7581741963404 1.0
C      1  0.4577015630676  0.6880483746146  0.7666136622207 1.0
C      1  0.6675481408308  0.5905678897880  0.7647016970550 1.0
C      1  0.6537603842209  0.3549679876202  0.7634337359093 1.0
C      1  0.4391188822661  0.3297569033951  0.7478763375503 1.0
C      1  0.5421856953619  0.2683807338869  0.4389718003635 1.0
C      1  0.7366142741553  0.4709378338015  0.4482791700434 1.0
C      1  0.5971222257201  0.7204628605077  0.4466584379841 1.0
C      1  0.3127706886995  0.6296920176268  0.5083090890467 1.0
C      1  0.2893072866455  0.4038404942741  0.5395890541465 1.0
C      1  0.4093467363498  0.3190412448637  0.4902959781141 1.0
C      1  0.2741919366042  0.4944379826749  0.5123828146664 1.0
C      1  0.4409129297208  0.7357974444881  0.5074702416504 1.0
C      1  0.7013673073941  0.6224665400095  0.5121849595657 1.0
C      1  0.6794311531622  0.3413658233054  0.4997568092891 1.0
C      1  0.3547379158148  0.7047710775911  0.5375526120715 1.0
C      1  0.6486977774589  0.7004479744960  0.5258199099192 1.0
C      1  0.7371955118316  0.4125138400695  0.5216830031376 1.0
C      1  0.4772921440968  0.2641461451738  0.5167103970839 1.0
C      1  0.2154915465492  0.4365720102247  0.5791886880478 1.0
END
