TITL C-28945-2386-135 -1.371 3375.00 -203.54278406 0 0 26 (C3) n - 1
REM
REM Run started: at 2020.12.30 09:22:03 in /gpfs/home/chem/mssmkc/CARBON/AIRSS/Generating-Clusters/Str-Search/Higher-Symm/C4-100
REM VASP from code version vasp.5.4.4.18Apr17-6-g9f103f2a35 (build Oct 11 2019 16:45:47) gamma-only
REM
REM
REM
REM
REM ./C.cell (6bd13a13d554368a30d355f37ece5b26)
REM AIRSS Version 0.9.1 bugfix July 2018 build 013d7b7c2542+ Fri, 06 Jul 2018 19:26:36 +0100
REM compiler GCC version 6.3.0
REM options -cpp -iprefix /gpfs/warwick/csc/orac/software/Core/GCCcore/6.3.0/bin/../lib/gcc/x86_64-pc-linux-gnu/6.3.0/ -mtune=generic -march=x86-64 -g -O0
REM seed 1954978525 918834090 -140925447 -52704997 1060264158 298450706 293908277 1159176569 -638578247 1988469564 364170876 151394617
REM
REM C.POTCAR (d86ddea03c3ceb6dc662c8ad6801f873)
REM 
CELL 1.54180   15.00000   15.00000   15.00000   90.00000   90.00000   90.00000
LATT -1
SFAC C  
C      1  0.7157372756332  0.5459290268126  0.4181052925455 1.0
C      1  0.3253404596255  0.5457514619704  0.3602955412124 1.0
C      1  0.4730235677903  0.5462853151917  0.7266430156347 1.0
C      1  0.5066432748659  0.3953941827870  0.6701395291405 1.0
C      1  0.6490931565952  0.3956233596678  0.4164545855803 1.0
C      1  0.3569937328764  0.3955121396482  0.4194319402211 1.0
C      1  0.5481377899787  0.3919987163737  0.5861070716553 1.0
C      1  0.5555121346717  0.3918815054469  0.4212061625721 1.0
C      1  0.4085455770357  0.3919487610210  0.4976654865159 1.0
C      1  0.6625936064902  0.6044401030337  0.4498735522543 1.0
C      1  0.3797705383323  0.6043027855132  0.3895488044181 1.0
C      1  0.4701288110385  0.6043423455833  0.6644283103832 1.0
C      1  0.6172906977431  0.5430556096035  0.5782624854553 1.0
C      1  0.5142411513030  0.5428247487815  0.3643583500502 1.0
C      1  0.3804391093480  0.5427702559043  0.5621015954103 1.0
C      1  0.4434981564970  0.6135662527796  0.5758082182881 1.0
C      1  0.5982103676921  0.6136565123741  0.5163933585618 1.0
C      1  0.4696616755690  0.6133447385458  0.4115978220372 1.0
C      1  0.4936318685237  0.4606565921471  0.7226479925812 1.0
C      1  0.7021207737277  0.4602626200308  0.4025323482770 1.0
C      1  0.3185609916563  0.4601598700571  0.3803969065997 1.0
C      1  0.5204867854799  0.4594159673592  0.3633030031367 1.0
C      1  0.3764632855273  0.4593619615798  0.5573510534830 1.0
C      1  0.6155501089513  0.4595880645914  0.5836495291089 1.0
C      1  0.5036638267978  0.6327350416412  0.5011798174259 1.0
C      1  0.5039161762501  0.3712712615552  0.5015425274510 1.0
END
