TITL C-2874-4087-47 -8.461 3375.00 -1466.78915514 0 0 183 (C1) n - 1
REM
REM Run started: at 2020.12.31 09:02:52 in /gpfs/home/chem/mssmkc/CARBON/AIRSS/Generating-Clusters/Str-Search/Higher-Symm/C100-200
REM VASP from code version vasp.5.4.4.18Apr17-6-g9f103f2a35 (build Oct 11 2019 16:45:47) gamma-only
REM
REM
REM
REM
REM ./C.cell (533062f00bc710175b3da973d35f2034)
REM AIRSS Version 0.9.1 bugfix July 2018 build 013d7b7c2542+ Fri, 06 Jul 2018 19:26:36 +0100
REM compiler GCC version 6.3.0
REM options -cpp -iprefix /gpfs/warwick/csc/orac/software/Core/GCCcore/6.3.0/bin/../lib/gcc/x86_64-pc-linux-gnu/6.3.0/ -mtune=generic -march=x86-64 -g -O0
REM seed 1473453826 107843569 761395294 1469635603 -1822729321 866230550 605625161 -294127098 -851140610 899394249 -122450272 98499768
REM
REM C.POTCAR (d86ddea03c3ceb6dc662c8ad6801f873)
REM 
CELL 1.54180   15.00000   15.00000   15.00000   90.00000   90.00000   90.00000
LATT -1
SFAC C  
C      1  0.6412319000887  0.4843541437495  0.1387903314697 1.0
C      1  0.3638757656284  0.1420759470898  0.4998767037669 1.0
C      1  0.6213066757878  0.4832455581853  0.8837094385631 1.0
C      1  0.3589378049432  0.8823641695487  0.4896095250941 1.0
C      1  0.5244448793549  0.2486933471169  0.5479216522938 1.0
C      1  0.4778945749143  0.5536137668809  0.7568667834627 1.0
C      1  0.5308468818866  0.7566556552653  0.4539851291376 1.0
C      1  0.4736016375240  0.4564811755874  0.2476533710954 1.0
C      1  0.3882141362099  0.4184194274090  0.1628815789797 1.0
C      1  0.6102901021907  0.1662337129970  0.5835831530844 1.0
C      1  0.3868062945300  0.5915907334014  0.8313077560368 1.0
C      1  0.6165590216347  0.8424006439602  0.4146552008008 1.0
C      1  0.3953343058119  0.5576945973154  0.1193598768288 1.0
C      1  0.6132319973966  0.1300978173282  0.4411966087614 1.0
C      1  0.3702623651866  0.4534880188086  0.8740285164185 1.0
C      1  0.5938773709595  0.8434943702297  0.5630994333376 1.0
C      1  0.3431366644633  0.2450852462901  0.2800615858199 1.0
C      1  0.6727010174727  0.3871538220942  0.7099641933938 1.0
C      1  0.3459818089319  0.7253905056335  0.6151038939478 1.0
C      1  0.6701455747028  0.6077601893608  0.2881028879997 1.0
C      1  0.6839600336779  0.2780303298918  0.5135237523799 1.0
C      1  0.2932766339462  0.4874836110167  0.7340738749490 1.0
C      1  0.6919116346976  0.7278726769331  0.4757585290151 1.0
C      1  0.3162730273238  0.4920823479388  0.2712142992507 1.0
C      1  0.8556121290029  0.4828843093658  0.3407387090913 1.0
C      1  0.1488478484462  0.3390066434653  0.4957933386431 1.0
C      1  0.8691344367920  0.5030418724305  0.6527564648134 1.0
C      1  0.1617672207267  0.6594568345950  0.5116315310599 1.0
C      1  0.7845194014139  0.6192619294190  0.7252110887111 1.0
C      1  0.2363689909430  0.7246937225817  0.3893846081018 1.0
C      1  0.7677135854322  0.3653885071585  0.2794773203344 1.0
C      1  0.2268614821580  0.2718070645322  0.6172884302599 1.0
C      1  0.4542936378512  0.4460557166439  0.7515971805129 1.0
C      1  0.5577081604877  0.7485588846104  0.5550181244646 1.0
C      1  0.4614473765979  0.5612733828901  0.2559577883738 1.0
C      1  0.5360361614007  0.2582562745812  0.4422127528139 1.0
C      1  0.2381263409171  0.4334743732730  0.4129525587863 1.0
C      1  0.7640235145216  0.4350382434187  0.5091998463719 1.0
C      1  0.2359783064462  0.5017749021830  0.5729988494331 1.0
C      1  0.7723283188236  0.5809963815560  0.4301017313652 1.0
C      1  0.6970920430755  0.7102723645484  0.6373799388629 1.0
C      1  0.2392659355443  0.6982515171198  0.2403296243056 1.0
C      1  0.7391589504683  0.2229444289479  0.3144010625567 1.0
C      1  0.2310375542597  0.2901209517491  0.7646917378140 1.0
C      1  0.3354343179570  0.4966894166181  0.1604603540120 1.0
C      1  0.6679971800514  0.1694866512312  0.5083472085623 1.0
C      1  0.3211332847146  0.5180201921799  0.8290971851995 1.0
C      1  0.6674993710551  0.8339588069476  0.4935788673408 1.0
C      1  0.4431877844496  0.2993934691801  0.5724471954327 1.0
C      1  0.5635501190685  0.5679167765771  0.7117545642827 1.0
C      1  0.4472744594188  0.7102394815494  0.4342033653759 1.0
C      1  0.5548563281680  0.4342752310032  0.2986408536578 1.0
C      1  0.5501273117398  0.5021251205237  0.1251227782688 1.0
C      1  0.4550345637650  0.1250814671744  0.4896590318077 1.0
C      1  0.5301649771964  0.4888216083764  0.8905461140312 1.0
C      1  0.4561077610542  0.8922286271994  0.5022004218227 1.0
C      1  0.1919996799572  0.3288865066720  0.6843880428459 1.0
C      1  0.7815234713371  0.6665879741183  0.6394215433260 1.0
C      1  0.2126241341009  0.6555913767000  0.3234937715136 1.0
C      1  0.7886120356816  0.3006968933758  0.3463064307983 1.0
C      1  0.7377729815778  0.4779938782806  0.1832655346635 1.0
C      1  0.2705839069523  0.1880170383530  0.4997041657678 1.0
C      1  0.7734859443275  0.4762809240491  0.8028953481452 1.0
C      1  0.2687976321745  0.8285560707600  0.4956800829049 1.0
C      1  0.1874729496720  0.5781573353788  0.4573918165708 1.0
C      1  0.8696117741507  0.4235519403217  0.4157077316441 1.0
C      1  0.1287085524467  0.4114968447018  0.5584298530929 1.0
C      1  0.8665036672107  0.5535889474888  0.5685874141840 1.0
C      1  0.5976243762338  0.3196462226819  0.7020892210121 1.0
C      1  0.4202340856577  0.7150544674627  0.6849911128224 1.0
C      1  0.6016487304947  0.6807589996315  0.3050205353951 1.0
C      1  0.3938641032374  0.3165562793600  0.3161115045763 1.0
C      1  0.4127676075517  0.6294850345927  0.7442449750605 1.0
C      1  0.6187268928973  0.7392362844535  0.3976818176577 1.0
C      1  0.3845986402778  0.4055656810942  0.2652995797648 1.0
C      1  0.6109416797818  0.2660757015100  0.6034122816374 1.0
C      1  0.3687420257868  0.4481889830672  0.6973217127657 1.0
C      1  0.6417412916077  0.6904297344765  0.5575973337718 1.0
C      1  0.3763048117355  0.5606342836716  0.3091983392624 1.0
C      1  0.6203843246589  0.3130850733172  0.4445824443762 1.0
C      1  0.2808209207889  0.5590932258377  0.5086029287176 1.0
C      1  0.7135064072189  0.5107816432140  0.4582179493244 1.0
C      1  0.2847611366076  0.4587764057940  0.4938801282776 1.0
C      1  0.7102750464621  0.4941656581227  0.5549600168217 1.0
C      1  0.4568681120564  0.3175285392984  0.4024575031374 1.0
C      1  0.5287874996068  0.4023520639135  0.6935505417359 1.0
C      1  0.4827145960690  0.6955322455681  0.6033978488247 1.0
C      1  0.5319105849201  0.6019605707533  0.3176400222930 1.0
C      1  0.6098292226892  0.6402147592124  0.7695698352313 1.0
C      1  0.4019542707963  0.7660080202753  0.3618790429417 1.0
C      1  0.5968356965313  0.3573459513143  0.2473729911099 1.0
C      1  0.3965199111958  0.2384715017425  0.6411926835046 1.0
C      1  0.2745537881427  0.7746441685539  0.2484854697044 1.0
C      1  0.7054458699413  0.2313267993677  0.2369304368552 1.0
C      1  0.2731420771569  0.2176823050848  0.7536982631696 1.0
C      1  0.6620362186246  0.7104194691866  0.7248888589102 1.0
C      1  0.1560929074034  0.4096159408527  0.6519964579186 1.0
C      1  0.8242328850452  0.6388438880070  0.5586268521568 1.0
C      1  0.1944805847829  0.5722699852453  0.3577032943934 1.0
C      1  0.8273061883568  0.3357682716503  0.4243766217290 1.0
C      1  0.1666298576008  0.3953331373419  0.3093007575793 1.0
C      1  0.8217093953737  0.3433058347087  0.6074528324203 1.0
C      1  0.1661817728508  0.5935075581467  0.6695142160907 1.0
C      1  0.8399423595527  0.6689809002576  0.3735527421485 1.0
C      1  0.4785658386521  0.5732862583024  0.1493398610968 1.0
C      1  0.5285833052418  0.1534929597384  0.4252428182842 1.0
C      1  0.4543964942012  0.4289514256944  0.8553788127027 1.0
C      1  0.5194035247172  0.8959051551836  0.5687514803759 1.0
C      1  0.8775535616804  0.4189569893695  0.6025801797326 1.0
C      1  0.1265577054755  0.6025789338504  0.5806204751342 1.0
C      1  0.8477730742342  0.5727141809182  0.3800357831085 1.0
C      1  0.1678960894495  0.3775481411350  0.4069907647016 1.0
C      1  0.7949768454913  0.4533591294754  0.2678118941538 1.0
C      1  0.2092511163962  0.2679629532514  0.5258708634934 1.0
C      1  0.8218007499049  0.5332574141009  0.7341367793777 1.0
C      1  0.2136763151525  0.7386237590343  0.4788096935905 1.0
C      1  0.5427597982153  0.1731815410829  0.7999703925442 1.0
C      1  0.4806529434965  0.8098788022896  0.8264095472253 1.0
C      1  0.5090190292121  0.8675853010177  0.2107061085503 1.0
C      1  0.5008193990519  0.1707076486554  0.1508350779396 1.0
C      1  0.5894149551470  0.7401571390633  0.2309879804161 1.0
C      1  0.3766462558657  0.1570691333321  0.2641450764003 1.0
C      1  0.5966665046634  0.2598636959698  0.7787578804103 1.0
C      1  0.4317543659872  0.7968602407143  0.7378914900703 1.0
C      1  0.7549598279397  0.3916406747374  0.7620788244623 1.0
C      1  0.2635031047911  0.7173270707134  0.6491783762276 1.0
C      1  0.7485065813967  0.6446853240628  0.2621619628857 1.0
C      1  0.2593041580515  0.2725096717470  0.2459772167807 1.0
C      1  0.5152332959242  0.8532983887575  0.4212884204455 1.0
C      1  0.4891353842411  0.4191018752253  0.1509309723554 1.0
C      1  0.5097037169063  0.1494767019983  0.5775224637901 1.0
C      1  0.4864767625101  0.5772438492259  0.8611257955624 1.0
C      1  0.2103170431543  0.6689492414663  0.6948876049136 1.0
C      1  0.8124668646749  0.6967781227287  0.2881809696905 1.0
C      1  0.1975005483640  0.3276452084850  0.2553799013514 1.0
C      1  0.7653016309569  0.3535887065937  0.6818044757050 1.0
C      1  0.7119831079237  0.6548089200476  0.7795884378285 1.0
C      1  0.3030755311382  0.7866990085789  0.3457260724885 1.0
C      1  0.6923489625069  0.3328850682647  0.2222942963384 1.0
C      1  0.2995837045490  0.2127143698169  0.6534195118008 1.0
C      1  0.4380387790904  0.4703484712190  0.4373339726875 1.0
C      1  0.5535016049681  0.4348599644409  0.5402663183666 1.0
C      1  0.4402571798395  0.5431092261066  0.5743774456566 1.0
C      1  0.5579350095013  0.5703732196508  0.4681113546148 1.0
C      1  0.6114528941338  0.2164116387267  0.8535696374859 1.0
C      1  0.4214948437328  0.8731158992423  0.7820348811859 1.0
C      1  0.5707616951169  0.8068376158563  0.1851640018809 1.0
C      1  0.4351012409634  0.1434745026350  0.2059659724108 1.0
C      1  0.4555364867862  0.8398126670532  0.3434531066101 1.0
C      1  0.5379348776751  0.3352957297299  0.1761650955087 1.0
C      1  0.4574770867900  0.1684830571539  0.6602311245496 1.0
C      1  0.5456594701540  0.6580872898475  0.8460930293564 1.0
C      1  0.5954265526379  0.5954903715737  0.5566998429846 1.0
C      1  0.4059769779049  0.5608782544993  0.4073410672031 1.0
C      1  0.5868657308276  0.4074883081391  0.4491327101597 1.0
C      1  0.4051403172712  0.4511627361081  0.6019362735629 1.0
C      1  0.3984254590774  0.3280163876359  0.4874555453808 1.0
C      1  0.6060168354801  0.4730231158345  0.6845592027203 1.0
C      1  0.4013790972483  0.6903648054825  0.5330360799582 1.0
C      1  0.6064304707301  0.5277038653296  0.3222809673149 1.0
C      1  0.6246844651712  0.5037842410475  0.4194116715384 1.0
C      1  0.3728504864337  0.4214755251198  0.5037113316795 1.0
C      1  0.6237554430143  0.4963760873034  0.5890787478154 1.0
C      1  0.3718322055299  0.5947457990981  0.5095897312324 1.0
C      1  0.7745132166735  0.3318107400910  0.5152485049031 1.0
C      1  0.2107250153195  0.4982371191989  0.6742409874580 1.0
C      1  0.7835250677715  0.6739998709798  0.4669458401378 1.0
C      1  0.2285924419779  0.4819578069493  0.3235220153430 1.0
C      1  0.4834802276560  0.1465065563943  0.7461041318912 1.0
C      1  0.5201166825370  0.7432203586125  0.8622144302865 1.0
C      1  0.4537702367014  0.8968125820586  0.2668388347308 1.0
C      1  0.5286513862322  0.2497123402462  0.1432296799280 1.0
C      1  0.5062066896906  0.4068342934116  0.3901877795429 1.0
C      1  0.4852236181537  0.3903858287996  0.6047085844393 1.0
C      1  0.5183595190227  0.6030808226430  0.6186741611491 1.0
C      1  0.4878638777276  0.6173703250927  0.4060900180124 1.0
C      1  0.7030076607029  0.4961553804757  0.8606014840873 1.0
C      1  0.3019042724499  0.8613508678153  0.4162795362641 1.0
C      1  0.6959565362612  0.4041343259986  0.1486009896735 1.0
C      1  0.3028601312168  0.1459355561833  0.5754384412577 1.0
C      1  0.1435093707755  0.5140686110840  0.5321570018810 1.0
C      1  0.8656363620888  0.4642481628453  0.5126303518191 1.0
C      1  0.4971612072032  0.5053149810270  0.5054081624843 1.0
END
