TITL C-28945-2386-147 -3.396 3375.00 -582.72292930 0 0 71 (C1) n - 1
REM
REM Run started: at 2020.12.30 11:01:12 in /gpfs/home/chem/mssmkc/CARBON/AIRSS/Generating-Clusters/Str-Search/Higher-Symm/C4-100
REM VASP from code version vasp.5.4.4.18Apr17-6-g9f103f2a35 (build Oct 11 2019 16:45:47) gamma-only
REM
REM
REM
REM
REM ./C.cell (6bd13a13d554368a30d355f37ece5b26)
REM AIRSS Version 0.9.1 bugfix July 2018 build 013d7b7c2542+ Fri, 06 Jul 2018 19:26:36 +0100
REM compiler GCC version 6.3.0
REM options -cpp -iprefix /gpfs/warwick/csc/orac/software/Core/GCCcore/6.3.0/bin/../lib/gcc/x86_64-pc-linux-gnu/6.3.0/ -mtune=generic -march=x86-64 -g -O0
REM seed -1575564040 827232316 51892177 2120326100 2146189763 -1337796747 256913330 -1140488650 11727900 -1858600793 1109628482 -799099619
REM
REM C.POTCAR (d86ddea03c3ceb6dc662c8ad6801f873)
REM 
CELL 1.54180   15.00000   15.00000   15.00000   90.00000   90.00000   90.00000
LATT -1
SFAC C  
C      1  0.3198429281328  0.5063067574619  0.6869245177829 1.0
C      1  0.3801898796294  0.3616110821756  0.6879249943449 1.0
C      1  0.5303115990925  0.3161639948524  0.6900963841565 1.0
C      1  0.6596838850157  0.4054729204528  0.6896974012302 1.0
C      1  0.6588422873335  0.5634713406680  0.6745774697350 1.0
C      1  0.5482150371235  0.6674769929926  0.6908473021930 1.0
C      1  0.3976931463442  0.6450178508745  0.6798163047677 1.0
C      1  0.3513106137956  0.6476046117025  0.4335834089994 1.0
C      1  0.2928270516259  0.4777054650821  0.4300692291617 1.0
C      1  0.3923559028850  0.3305915614016  0.4255052509075 1.0
C      1  0.5642055774130  0.3045900270628  0.4284888191443 1.0
C      1  0.7015399221992  0.4203766845433  0.4336824672146 1.0
C      1  0.6876322492743  0.6068001947815  0.4273811894387 1.0
C      1  0.5291075473548  0.7504098385897  0.3861631166078 1.0
C      1  0.6205805994067  0.3233962695296  0.6521967562105 1.0
C      1  0.7051373619333  0.4802103572947  0.6465377055346 1.0
C      1  0.6248842278758  0.6467427276599  0.6377120118438 1.0
C      1  0.4720497397509  0.6943722477843  0.6387432104238 1.0
C      1  0.3182679233023  0.5967248147371  0.6482958967940 1.0
C      1  0.3089277172405  0.4168208709710  0.6487430160275 1.0
C      1  0.4431537036503  0.2968346788392  0.6484968491351 1.0
C      1  0.2998793052634  0.3515615814841  0.4045681558632 1.0
C      1  0.4866986963396  0.2517498166015  0.4021788506329 1.0
C      1  0.6896038105573  0.3259164536938  0.4113730281588 1.0
C      1  0.7582391272018  0.5382886852718  0.4142376211213 1.0
C      1  0.6166296265127  0.7184940221235  0.3871612157680 1.0
C      1  0.3980998902693  0.7297890476278  0.4174976916736 1.0
C      1  0.2478163936046  0.5629160729843  0.4155707133824 1.0
C      1  0.6577424614840  0.6446300306099  0.3383815145140 1.0
C      1  0.4462448711001  0.7188312314182  0.3348218280536 1.0
C      1  0.3083994950255  0.6008015581360  0.3523971220317 1.0
C      1  0.3159725587184  0.4276736278013  0.3460700619955 1.0
C      1  0.4455424833800  0.3160751205036  0.3417666484445 1.0
C      1  0.6155592782625  0.3342742654930  0.3485319622552 1.0
C      1  0.7172735148218  0.4755355624701  0.3522355762334 1.0
C      1  0.5990577712661  0.5369001986558  0.7475241053319 1.0
C      1  0.5295900853407  0.6009602180309  0.7559176022090 1.0
C      1  0.4370257871740  0.5860819628785  0.7493005808879 1.0
C      1  0.3922787053487  0.5033715283973  0.7497079829933 1.0
C      1  0.4278385310146  0.4155246780240  0.7512663283067 1.0
C      1  0.5182779027116  0.3881532283518  0.7525842538024 1.0
C      1  0.5954000188880  0.4431250317865  0.7509978348271 1.0
C      1  0.6556055218349  0.6923190395837  0.4726169826992 1.0
C      1  0.4792867518081  0.7542941811358  0.4691585707110 1.0
C      1  0.2673700409007  0.6223565886169  0.4911289363931 1.0
C      1  0.2590491901836  0.3923111810882  0.4853133638075 1.0
C      1  0.4265601109988  0.2477208506523  0.4821662737729 1.0
C      1  0.6469509559984  0.2781206816057  0.4877453543893 1.0
C      1  0.7682605186327  0.4779281689881  0.4908251578066 1.0
C      1  0.6407426497918  0.4861553273938  0.2948220901336 1.0
C      1  0.6127102073905  0.5776866614911  0.2865972580305 1.0
C      1  0.4430570898272  0.6331105395314  0.2871243731313 1.0
C      1  0.3760863107749  0.5641875343156  0.2942236992485 1.0
C      1  0.3919680327641  0.4620926854553  0.2975939446248 1.0
C      1  0.4748457223837  0.3974473695796  0.2972481406075 1.0
C      1  0.5776445241208  0.4075553714505  0.2985171230151 1.0
C      1  0.5132144590355  0.7272701706827  0.5533303821601 1.0
C      1  0.2631999135960  0.6146609429738  0.5777033512294 1.0
C      1  0.2649981092093  0.3915673166335  0.5713741386036 1.0
C      1  0.4327214133490  0.2517081707091  0.5684796642816 1.0
C      1  0.6492124765023  0.2835008749569  0.5743881610761 1.0
C      1  0.7649652062024  0.4820814555427  0.5777946765652 1.0
C      1  0.6088254115253  0.6960995565668  0.5538399018733 1.0
C      1  0.6078715321719  0.4578256093478  0.4677018683544 1.0
C      1  0.5984928019360  0.5472657890450  0.4534772683596 1.0
C      1  0.5149551335638  0.5758511344568  0.4128624495558 1.0
C      1  0.4251420431796  0.5739895226855  0.4535289844505 1.0
C      1  0.3914522003923  0.4899785021358  0.4662661380727 1.0
C      1  0.4437299617058  0.4105494381013  0.4671628266676 1.0
C      1  0.5348793685077  0.3963550851799  0.4686473677870 1.0
C      1  0.5226373270490  0.5903057382938  0.3185305724522 1.0
END
