TITL C-28945-2386-71 -3.056 3375.00 -533.42561300 0 0 68 (D3h) n - 1
REM
REM Run started: at 2020.12.29 17:54:43 in /gpfs/home/chem/mssmkc/CARBON/AIRSS/Generating-Clusters/Str-Search/Higher-Symm/C4-100
REM VASP from code version vasp.5.4.4.18Apr17-6-g9f103f2a35 (build Oct 11 2019 16:45:47) gamma-only
REM
REM
REM
REM
REM ./C.cell (6bd13a13d554368a30d355f37ece5b26)
REM AIRSS Version 0.9.1 bugfix July 2018 build 013d7b7c2542+ Fri, 06 Jul 2018 19:26:36 +0100
REM compiler GCC version 6.3.0
REM options -cpp -iprefix /gpfs/warwick/csc/orac/software/Core/GCCcore/6.3.0/bin/../lib/gcc/x86_64-pc-linux-gnu/6.3.0/ -mtune=generic -march=x86-64 -g -O0
REM seed 143288746 887900958 908064557 1007208719 878014021 -204391023 618234913 1919380829 -1527160800 -1118168895 721997133 1679235433
REM
REM C.POTCAR (d86ddea03c3ceb6dc662c8ad6801f873)
REM 
CELL 1.54180   15.00000   15.00000   15.00000   90.00000   90.00000   90.00000
LATT -1
SFAC C  
C      1  0.4554477927644  0.7222546274253  0.6540768380002 1.0
C      1  0.4553990770542  0.2551854144957  0.6139184005358 1.0
C      1  0.4553668959332  0.5233771403816  0.2298135749207 1.0
C      1  0.5507543633810  0.7222387274013  0.6540649753260 1.0
C      1  0.5506973539770  0.2552363527954  0.6138896421152 1.0
C      1  0.5506937295672  0.5233532628472  0.2298560316217 1.0
C      1  0.4554497798533  0.7221818168145  0.3442152580236 1.0
C      1  0.4554200072653  0.2552036733326  0.3846163474264 1.0
C      1  0.4554182559847  0.5234176071893  0.7686783714033 1.0
C      1  0.5507751006156  0.7221684292718  0.3442400071186 1.0
C      1  0.5507277508995  0.2552819667564  0.3846030836882 1.0
C      1  0.5507384782876  0.5233788162188  0.7686215079577 1.0
C      1  0.3148729776548  0.3445165763050  0.4516982996427 1.0
C      1  0.3148773664833  0.6195843052599  0.3882137317928 1.0
C      1  0.3149200412876  0.5369233054018  0.6579890009723 1.0
C      1  0.6916490641767  0.3446736308313  0.4517011202205 1.0
C      1  0.6915508740299  0.6195815606931  0.3883616464304 1.0
C      1  0.6915614618670  0.5369134436086  0.6578693927688 1.0
C      1  0.3148634909064  0.3445174144081  0.5471106983919 1.0
C      1  0.3149034618257  0.6196328823605  0.6103541422686 1.0
C      1  0.3148851580944  0.5368397990593  0.3406497189387 1.0
C      1  0.6916352432426  0.3446904380339  0.5471153432555 1.0
C      1  0.6915750923451  0.6196296666067  0.6102657998477 1.0
C      1  0.6915700605769  0.5368711775409  0.3407505995018 1.0
C      1  0.4104978425310  0.5165012866356  0.6796371988433 1.0
C      1  0.4104694277354  0.3358632853573  0.4230677101306 1.0
C      1  0.4104810300909  0.6486214933163  0.3948543917706 1.0
C      1  0.5959075864941  0.5164804695771  0.6796301666613 1.0
C      1  0.5959534994200  0.3358637102025  0.4230460334321 1.0
C      1  0.5958806253332  0.6486566671524  0.3948942964478 1.0
C      1  0.4104521664114  0.5164628870109  0.3188554357753 1.0
C      1  0.4104653389644  0.3358825376810  0.5756380033715 1.0
C      1  0.4105042644663  0.6486397358303  0.6035161833230 1.0
C      1  0.5959206215735  0.5164869449112  0.3188179096115 1.0
C      1  0.5959123067601  0.3358754247002  0.5756392045499 1.0
C      1  0.5958978490901  0.6486692499515  0.6035049040385 1.0
C      1  0.7556026458338  0.4184529080894  0.4487367802300 1.0
C      1  0.7555937308775  0.5854426797693  0.4536340074848 1.0
C      1  0.7556374241592  0.4976260571067  0.5956795835814 1.0
C      1  0.2511393159993  0.4183657175438  0.4487565971202 1.0
C      1  0.2511299852018  0.5852928817920  0.4536160328855 1.0
C      1  0.2511305692719  0.4975353409412  0.5956133334878 1.0
C      1  0.7555932301714  0.4184427166117  0.5500300119468 1.0
C      1  0.7556376814686  0.5854494031885  0.5450581423467 1.0
C      1  0.7555892396139  0.4975727441581  0.4030619782342 1.0
C      1  0.2511207143270  0.4183839487597  0.5500268167248 1.0
C      1  0.2511093918526  0.5853181700273  0.5450210487954 1.0
C      1  0.2511284518952  0.4974841090146  0.4030622388159 1.0
C      1  0.4529181910224  0.7264738686658  0.5506321380363 1.0
C      1  0.4529061686779  0.3426342097659  0.6694373276994 1.0
C      1  0.4529071123805  0.4318639017333  0.2778781400671 1.0
C      1  0.5533122990347  0.7265146155650  0.5506795598432 1.0
C      1  0.5532799455546  0.3425766423369  0.6694325827865 1.0
C      1  0.5532833745219  0.4318680500870  0.2778669281610 1.0
C      1  0.4529256124697  0.7265184596151  0.4476457218764 1.0
C      1  0.4529089363847  0.3426803528495  0.3292501634710 1.0
C      1  0.4529258279639  0.4318884254088  0.7206688268049 1.0
C      1  0.5532959481353  0.7265491511430  0.4476304181143 1.0
C      1  0.5533068116824  0.3426851968464  0.3292323170111 1.0
C      1  0.5533124052859  0.4318879044058  0.7206670198823 1.0
C      1  0.5531257664001  0.5557706790508  0.4034123514677 1.0
C      1  0.4532892620701  0.5557562498021  0.4034250451197 1.0
C      1  0.5531558894036  0.3895706949777  0.4993360594528 1.0
C      1  0.5531407553899  0.5557834631318  0.5950646918456 1.0
C      1  0.4532907593219  0.3895736076171  0.4993425541319 1.0
C      1  0.4532997512178  0.5557785674243  0.5950713774072 1.0
C      1  0.5549252661558  0.5004107290490  0.4992605785052 1.0
C      1  0.4515619993109  0.5004066261568  0.4992722565382 1.0
END
