TITL C-28945-2386-168 -1.797 3375.00 -300.07527092 0 0 39 (Cs) n - 1
REM
REM Run started: at 2020.12.30 14:44:09 in /gpfs/home/chem/mssmkc/CARBON/AIRSS/Generating-Clusters/Str-Search/Higher-Symm/C4-100
REM VASP from code version vasp.5.4.4.18Apr17-6-g9f103f2a35 (build Oct 11 2019 16:45:47) gamma-only
REM
REM
REM
REM
REM ./C.cell (6bd13a13d554368a30d355f37ece5b26)
REM AIRSS Version 0.9.1 bugfix July 2018 build 013d7b7c2542+ Fri, 06 Jul 2018 19:26:36 +0100
REM compiler GCC version 6.3.0
REM options -cpp -iprefix /gpfs/warwick/csc/orac/software/Core/GCCcore/6.3.0/bin/../lib/gcc/x86_64-pc-linux-gnu/6.3.0/ -mtune=generic -march=x86-64 -g -O0
REM seed 930465729 1014358096 1219096815 1017389375 1467658314 1680985594 -551001048 -1418633878 -1708154151 -81931769 1334920628 1477307676
REM
REM C.POTCAR (d86ddea03c3ceb6dc662c8ad6801f873)
REM 
CELL 1.54180   15.00000   15.00000   15.00000   90.00000   90.00000   90.00000
LATT -1
SFAC C  
C      1  0.4597784528127  0.3941755168658  0.5104195451872 1.0
C      1  0.4598233903979  0.6056346469078  0.5104308662768 1.0
C      1  0.4803769532686  0.6153319364152  0.3378351122149 1.0
C      1  0.4803095379637  0.3844296372277  0.3378342706523 1.0
C      1  0.3359012023792  0.4215231826378  0.4450498123066 1.0
C      1  0.3359369481376  0.5783719989304  0.4450777020535 1.0
C      1  0.3739239024010  0.4529090427579  0.6427734312489 1.0
C      1  0.3739452616882  0.5469129315846  0.6427790731102 1.0
C      1  0.4433726507597  0.3062525198992  0.6485987752219 1.0
C      1  0.4434409785142  0.6935527293000  0.6486248167336 1.0
C      1  0.6644437816405  0.4000002680948  0.4796859886371 1.0
C      1  0.6644971517399  0.5997084262174  0.4796700564144 1.0
C      1  0.4736602653006  0.7028077099430  0.3747622692842 1.0
C      1  0.4735797400302  0.2969552606514  0.3747669888052 1.0
C      1  0.6502379482882  0.5968647608109  0.3862137112704 1.0
C      1  0.6501700580972  0.4028341379865  0.3862286252111 1.0
C      1  0.5064817071031  0.3475027918536  0.5911886155231 1.0
C      1  0.5065427697960  0.6522714971275  0.5912165354608 1.0
C      1  0.4147096117330  0.6388931274002  0.4233263579862 1.0
C      1  0.4146570577352  0.3609452478580  0.4232794801742 1.0
C      1  0.3756154734397  0.5516673217327  0.5401270635536 1.0
C      1  0.3755929007997  0.4481675047798  0.5401151289853 1.0
C      1  0.5837138193417  0.4078175844403  0.6204777581534 1.0
C      1  0.5837570472319  0.5919507075443  0.6204889554780 1.0
C      1  0.5585585807023  0.7230783525777  0.4088720500895 1.0
C      1  0.5584645108861  0.2766763989945  0.4088876096814 1.0
C      1  0.5159391729594  0.5441233341713  0.4615136217317 1.0
C      1  0.5159165488052  0.4556620144170  0.4615092953725 1.0
C      1  0.6437615252023  0.5511242903178  0.5579110766166 1.0
C      1  0.6437428165432  0.4486105453966  0.5579114022657 1.0
C      1  0.4439835269030  0.3967896336639  0.6837271599561 1.0
C      1  0.4440318092320  0.6029999349969  0.6837247503886 1.0
C      1  0.5551582159025  0.4462334104637  0.3690251825010 1.0
C      1  0.5551994821576  0.5535008152585  0.3690239056379 1.0
C      1  0.5306780492162  0.5470617683108  0.6828397932283 1.0
C      1  0.5306515843277  0.4527176469562  0.6828314329821 1.0
C      1  0.6323376391989  0.3176022826851  0.4331326247877 1.0
C      1  0.6324193402239  0.6820991980238  0.4330884414954 1.0
C      1  0.3184886871401  0.4999596847991  0.3968146133226 1.0
END
