TITL C-28945-2386-25 -3.909 3375.00 -659.66050194 0 0 84 (C1) n - 1
REM
REM Run started: at 2020.12.29 10:12:24 in /gpfs/home/chem/mssmkc/CARBON/AIRSS/Generating-Clusters/Str-Search/Higher-Symm/C4-100
REM VASP from code version vasp.5.4.4.18Apr17-6-g9f103f2a35 (build Oct 11 2019 16:45:47) gamma-only
REM
REM
REM
REM
REM ./C.cell (6bd13a13d554368a30d355f37ece5b26)
REM AIRSS Version 0.9.1 bugfix July 2018 build 013d7b7c2542+ Fri, 06 Jul 2018 19:26:36 +0100
REM compiler GCC version 6.3.0
REM options -cpp -iprefix /gpfs/warwick/csc/orac/software/Core/GCCcore/6.3.0/bin/../lib/gcc/x86_64-pc-linux-gnu/6.3.0/ -mtune=generic -march=x86-64 -g -O0
REM seed 717217819 1231946998 -488666421 2033771983 -1084659039 -1021947815 232416666 -885188313 -908870863 1040884485 1571355818 107274492
REM
REM C.POTCAR (d86ddea03c3ceb6dc662c8ad6801f873)
REM 
CELL 1.54180   15.00000   15.00000   15.00000   90.00000   90.00000   90.00000
LATT -1
SFAC C  
C      1  0.2832866825921  0.3341153252172  0.3781141694125 1.0
C      1  0.5459715820973  0.3305375514773  0.2855495390092 1.0
C      1  0.7431829468526  0.3455642564400  0.4771288729068 1.0
C      1  0.6054714303784  0.3318138396405  0.7058778295646 1.0
C      1  0.3416779128917  0.3377478299877  0.6382427772971 1.0
C      1  0.6854815807284  0.3796799704327  0.3930317398721 1.0
C      1  0.6710170828866  0.3878876417995  0.6396326631377 1.0
C      1  0.4344123533129  0.3765445961704  0.6767660872947 1.0
C      1  0.2736425268483  0.3777917315662  0.4741113912668 1.0
C      1  0.4511803775142  0.3737965951047  0.3109479207163 1.0
C      1  0.5204456893043  0.7421953997871  0.5784526750787 1.0
C      1  0.4316498229524  0.7410359087510  0.5388485800503 1.0
C      1  0.4415581304957  0.7416128851581  0.4423158590381 1.0
C      1  0.5364710188338  0.7399347368187  0.4235079076806 1.0
C      1  0.5855675800524  0.7422600217265  0.5071085721948 1.0
C      1  0.8131119168802  0.4258736258121  0.5865715148271 1.0
C      1  0.5093540091168  0.3959353101423  0.8136862167757 1.0
C      1  0.2121507335008  0.4094969586282  0.6102871851790 1.0
C      1  0.3137825028975  0.4139973364765  0.2496428134215 1.0
C      1  0.6725975605174  0.3997416743792  0.2394165711583 1.0
C      1  0.8260912958920  0.3740226196173  0.5197723451631 1.0
C      1  0.5740326135931  0.3435804310654  0.7923043208401 1.0
C      1  0.2504070967766  0.3576018949068  0.6674850094309 1.0
C      1  0.2601966210300  0.3626024346493  0.2937596539536 1.0
C      1  0.6103682810633  0.3460692244498  0.2164440357731 1.0
C      1  0.4634288638239  0.6436061600131  0.6990782397670 1.0
C      1  0.3040813966469  0.6423295668953  0.5214580342945 1.0
C      1  0.4130965897357  0.6459314790657  0.3143236670309 1.0
C      1  0.6512927189706  0.6382526738719  0.3647063945630 1.0
C      1  0.6865390433861  0.6538868197570  0.5968584058276 1.0
C      1  0.5759548433003  0.5138828484740  0.7025389351263 1.0
C      1  0.3512873299148  0.5162390764776  0.6256985108675 1.0
C      1  0.3313806800034  0.5157355629757  0.3927649484939 1.0
C      1  0.5551449842909  0.5061876422944  0.3185765427790 1.0
C      1  0.7040778764686  0.5212733733054  0.4913209949236 1.0
C      1  0.5360085336102  0.5260013195685  0.2187728015151 1.0
C      1  0.7877519912173  0.5640804003667  0.4566775448600 1.0
C      1  0.6430928362533  0.5460039174392  0.7704658390354 1.0
C      1  0.3029269264140  0.5387396015453  0.7110975224358 1.0
C      1  0.2379373674739  0.5437401412081  0.3671564413501 1.0
C      1  0.5832210109920  0.4346635667615  0.6428396872571 1.0
C      1  0.3905630530500  0.4270330968766  0.6048504680997 1.0
C      1  0.3548248830835  0.4250520095504  0.4329060280519 1.0
C      1  0.5327090373523  0.4142928097715  0.3510709358830 1.0
C      1  0.6768175316581  0.4260604611522  0.4798512713003 1.0
C      1  0.6666918245659  0.3552468158251  0.5427232605602 1.0
C      1  0.5279367197454  0.3525582169558  0.6461480381850 1.0
C      1  0.3433234753288  0.3177501858852  0.5376388934659 1.0
C      1  0.3872697400990  0.3389803214059  0.3862017743326 1.0
C      1  0.5899341862958  0.3429157499169  0.3765903716934 1.0
C      1  0.3959450729408  0.4499220175989  0.2632571666983 1.0
C      1  0.7036223965268  0.4442171849816  0.3150113102976 1.0
C      1  0.7423438446306  0.4623482756424  0.6345826244607 1.0
C      1  0.4487905931036  0.4408762903267  0.7602068213836 1.0
C      1  0.2312842801923  0.4517907397631  0.5314742867834 1.0
C      1  0.5297794361586  0.6099581747405  0.2140941874021 1.0
C      1  0.8122913432249  0.6443408842596  0.4346934988748 1.0
C      1  0.6515052347845  0.6262838806490  0.7489657710825 1.0
C      1  0.3057722195895  0.6232469198995  0.7188136012524 1.0
C      1  0.2294891632743  0.6276167420767  0.3764732238478 1.0
C      1  0.4441696838276  0.5560474197855  0.6315079212393 1.0
C      1  0.3623062906122  0.5614152869753  0.4766279017966 1.0
C      1  0.4821111542495  0.5427919114107  0.3781527060823 1.0
C      1  0.6396909694487  0.5587292704820  0.4292623571396 1.0
C      1  0.5918559654702  0.5287942969898  0.6020205066150 1.0
C      1  0.2906854960078  0.6750600641779  0.4275193601469 1.0
C      1  0.5032509207154  0.6684053432554  0.2809883161120 1.0
C      1  0.7185677582447  0.6709217919033  0.4307456677722 1.0
C      1  0.6330899819942  0.6787224791574  0.6745838780358 1.0
C      1  0.3706306841274  0.6759634979645  0.6784771529310 1.0
C      1  0.3765004099244  0.7016369675242  0.3859026534124 1.0
C      1  0.5686120533216  0.6953110302820  0.3476082538901 1.0
C      1  0.6712110234935  0.7007739241965  0.5147278191429 1.0
C      1  0.5397261090271  0.7000227798734  0.6605295441822 1.0
C      1  0.3599641135906  0.6998130215919  0.5832089141303 1.0
C      1  0.4811963306661  0.5356127711962  0.7214973210547 1.0
C      1  0.2949751019853  0.5393338743021  0.5462339906390 1.0
C      1  0.3983829174334  0.5389656650793  0.3219955740497 1.0
C      1  0.6509918705715  0.5311115237973  0.3376794601681 1.0
C      1  0.6920297080964  0.5470155552328  0.5880622206904 1.0
C      1  0.4153410944730  0.4037701857973  0.5122619779569 1.0
C      1  0.4634172807812  0.5550345830896  0.4727498723287 1.0
C      1  0.4225802099435  0.3097356828815  0.4808874898475 1.0
C      1  0.5066938948792  0.5529868455525  0.5567041458121 1.0
END
