TITL C-2874-4087-30 -6.15 3375.00 -1077.00544788 0 0 135 (C1) n - 1
REM
REM Run started: at 2020.12.30 19:39:39 in /gpfs/home/chem/mssmkc/CARBON/AIRSS/Generating-Clusters/Str-Search/Higher-Symm/C100-200
REM VASP from code version vasp.5.4.4.18Apr17-6-g9f103f2a35 (build Oct 11 2019 16:45:47) gamma-only
REM
REM
REM
REM
REM ./C.cell (533062f00bc710175b3da973d35f2034)
REM AIRSS Version 0.9.1 bugfix July 2018 build 013d7b7c2542+ Fri, 06 Jul 2018 19:26:36 +0100
REM compiler GCC version 6.3.0
REM options -cpp -iprefix /gpfs/warwick/csc/orac/software/Core/GCCcore/6.3.0/bin/../lib/gcc/x86_64-pc-linux-gnu/6.3.0/ -mtune=generic -march=x86-64 -g -O0
REM seed 507592165 -417944306 -891778380 623324850 436725339 -1598822436 -1053312580 -1097139508 1790730425 1447202175 -399857375 -1630134095
REM
REM C.POTCAR (d86ddea03c3ceb6dc662c8ad6801f873)
REM 
CELL 1.54180   15.00000   15.00000   15.00000   90.00000   90.00000   90.00000
LATT -1
SFAC C  
C      1  0.7264778491571  0.5664380145144  0.6636304680320 1.0
C      1  0.6793399510472  0.4761001342709  0.6554931122702 1.0
C      1  0.6770024929716  0.3844417109744  0.6013920838055 1.0
C      1  0.7202710390159  0.3204148207866  0.5317061808979 1.0
C      1  0.6902884625217  0.3281222178228  0.4261633373984 1.0
C      1  0.6897690583713  0.3935795204894  0.3357073586460 1.0
C      1  0.7296662022964  0.4938952641542  0.3604469954149 1.0
C      1  0.7055286460597  0.5904324194608  0.3265764883173 1.0
C      1  0.6675855276185  0.6504429123401  0.3984392127165 1.0
C      1  0.6680156078118  0.6664344451970  0.5033970338847 1.0
C      1  0.7045048136184  0.6441137895324  0.5978746753554 1.0
C      1  0.5384955062539  0.7695049594447  0.6498930264233 1.0
C      1  0.5485386978109  0.7249569775646  0.7354448462914 1.0
C      1  0.5402074842528  0.4912094929811  0.8207380642862 1.0
C      1  0.5312777822764  0.3958472986646  0.7963991384387 1.0
C      1  0.5277602837021  0.1944464173593  0.6417974256034 1.0
C      1  0.5440274869518  0.1753600391637  0.4381125469441 1.0
C      1  0.5349216876684  0.2072787736207  0.3457058538558 1.0
C      1  0.5678657055421  0.3637908880252  0.1960338903331 1.0
C      1  0.5405425983456  0.6231825902059  0.1884711125624 1.0
C      1  0.5370972106453  0.7064416452646  0.2346425406608 1.0
C      1  0.5290021413241  0.8332263949756  0.4023047581041 1.0
C      1  0.2488877171470  0.3342850289424  0.4456950582817 1.0
C      1  0.2509901189720  0.3866364008509  0.3703752503127 1.0
C      1  0.2495886522088  0.4824304440789  0.3495341699241 1.0
C      1  0.2448390962948  0.5800495196054  0.3561020025322 1.0
C      1  0.2417312926802  0.6495628313359  0.4173238831137 1.0
C      1  0.2654679422919  0.6445305085422  0.5174504041355 1.0
C      1  0.2415792009303  0.6349668769909  0.6152653078955 1.0
C      1  0.1950921877713  0.5342784454776  0.6110033065359 1.0
C      1  0.2302417617930  0.4627098423074  0.6685895115355 1.0
C      1  0.2396994689700  0.3763062901569  0.6368886376461 1.0
C      1  0.2451370325048  0.3401961292397  0.5444195368510 1.0
C      1  0.4410771304096  0.7224945828892  0.2661359396764 1.0
C      1  0.4448142960677  0.8058852755502  0.4323846777131 1.0
C      1  0.4598340330306  0.7258002262647  0.6047868134192 1.0
C      1  0.4588620665435  0.6998144660332  0.7696937870809 1.0
C      1  0.4583612253498  0.5315997736377  0.8074348612355 1.0
C      1  0.4379087336549  0.3714504133695  0.7810884297286 1.0
C      1  0.4449480003915  0.2300679613214  0.6716381001984 1.0
C      1  0.4659287841560  0.1889475908172  0.4854341334171 1.0
C      1  0.4434723826201  0.2412809530549  0.3315227383566 1.0
C      1  0.4679350548777  0.3800686671779  0.2147575636019 1.0
C      1  0.4757235541752  0.5648512569470  0.2389641787179 1.0
C      1  0.3562642355127  0.3826360062132  0.3570313565888 1.0
C      1  0.3416884397351  0.4861711574150  0.3421267945650 1.0
C      1  0.3442446645703  0.5922093185022  0.3335081699368 1.0
C      1  0.3453252486319  0.6779350880789  0.3984232790389 1.0
C      1  0.3501058150231  0.6873646398616  0.4940711424649 1.0
C      1  0.3306980999658  0.6341529250304  0.6611163987490 1.0
C      1  0.3512297814251  0.5467765920373  0.6314180938409 1.0
C      1  0.3401389491706  0.4667150397144  0.6868623427853 1.0
C      1  0.3432207923090  0.3693588824367  0.6466682774370 1.0
C      1  0.3372207493585  0.3406669568367  0.5479076407272 1.0
C      1  0.3516866329953  0.3200141393689  0.4478082848076 1.0
C      1  0.6168898293664  0.2420962404445  0.3172770330200 1.0
C      1  0.6075980865550  0.4271617437640  0.1456726795616 1.0
C      1  0.6296778474779  0.5872410528116  0.1759908371718 1.0
C      1  0.6248068454948  0.7168994747310  0.2702111721022 1.0
C      1  0.6103388562241  0.7986892778421  0.4268857206062 1.0
C      1  0.6204592301272  0.7769685903171  0.6028428916929 1.0
C      1  0.6347556413635  0.6846133951198  0.7360309364403 1.0
C      1  0.6316507510785  0.5222420369451  0.7971539955055 1.0
C      1  0.6072626375498  0.3705342817985  0.7502226990261 1.0
C      1  0.6053827431941  0.2399382513341  0.6236239001283 1.0
C      1  0.6372409700095  0.1898515191924  0.4676797431254 1.0
C      1  0.3886524982134  0.4626628096131  0.7778214560452 1.0
C      1  0.4006931627517  0.3119956598489  0.7076862357680 1.0
C      1  0.4553404281834  0.1636150486896  0.5807046371824 1.0
C      1  0.3980162439526  0.2322819137879  0.4242151489192 1.0
C      1  0.4137832621279  0.3291566002784  0.2877934265162 1.0
C      1  0.4423758699944  0.4771452061745  0.1966719450744 1.0
C      1  0.3963805149150  0.6252033367413  0.2545947369881 1.0
C      1  0.3978587205160  0.7538283113905  0.3533230336955 1.0
C      1  0.4024554072797  0.7669028378722  0.5269841935746 1.0
C      1  0.3951485156096  0.7044599759954  0.6836459538949 1.0
C      1  0.4359905577926  0.6248217776498  0.8286806903891 1.0
C      1  0.8322020963629  0.4876192000669  0.3710781691347 1.0
C      1  0.8820661974285  0.5634336156210  0.3905735962315 1.0
C      1  0.9084343770314  0.6089250412169  0.4554644410390 1.0
C      1  0.9172502811452  0.6314963894004  0.5411942106094 1.0
C      1  0.8820130694926  0.6033540856055  0.6121617033518 1.0
C      1  0.8277521845186  0.5467332015054  0.6601599143077 1.0
C      1  0.8525579318127  0.4565705264979  0.6550127539872 1.0
C      1  0.8519856306001  0.3834748048570  0.6152445799664 1.0
C      1  0.8216337071557  0.3352998953224  0.5408480600982 1.0
C      1  0.8638620755373  0.3542698897911  0.4615226542355 1.0
C      1  0.8665930505556  0.4055215286429  0.3953922571144 1.0
C      1  0.5525973924784  0.4806424194052  0.3625642408262 1.0
C      1  0.5211666411601  0.5589122400911  0.3356086012093 1.0
C      1  0.5635593894876  0.6219325774738  0.4043472391857 1.0
C      1  0.5632103587259  0.6414907196714  0.4940892971460 1.0
C      1  0.5072636330522  0.6383170109358  0.5733188902448 1.0
C      1  0.5293762409479  0.5634355755892  0.6176066694158 1.0
C      1  0.5805035807393  0.4922462689922  0.6264996815334 1.0
C      1  0.5731345659501  0.4000211925581  0.5931977921249 1.0
C      1  0.5441313910660  0.4014312023263  0.5027926839936 1.0
C      1  0.5935189783182  0.3606721809954  0.4357840027003 1.0
C      1  0.5872942690613  0.3936204524725  0.3439979316240 1.0
C      1  0.3610321653773  0.1752128960612  0.3549089005450 1.0
C      1  0.3910043082388  0.3203709478175  0.1902643735879 1.0
C      1  0.3965527105453  0.4966560456100  0.1222365355795 1.0
C      1  0.3684942099364  0.6915253925008  0.1925851508240 1.0
C      1  0.3659168304928  0.8431368120847  0.3726168317633 1.0
C      1  0.3551662687666  0.8429921486074  0.5638365941554 1.0
C      1  0.3825595060428  0.7728203764575  0.7500146684897 1.0
C      1  0.3930374311372  0.6251295045597  0.9071175480925 1.0
C      1  0.3597829161168  0.4036419078284  0.8488733403842 1.0
C      1  0.3729177053878  0.2174283983965  0.7348667479983 1.0
C      1  0.4090274132155  0.0824348157645  0.5932039712929 1.0
C      1  0.3591804045892  0.1321779575727  0.2798842256503 1.0
C      1  0.3331118134025  0.2877638946634  0.1339464926802 1.0
C      1  0.3746695931327  0.5424740100372  0.0544490991899 1.0
C      1  0.3796780553164  0.7740829772097  0.1677726781502 1.0
C      1  0.3235506012006  0.9183068701861  0.3799358625327 1.0
C      1  0.3543552104341  0.9223833185971  0.5837753760808 1.0
C      1  0.4011927533515  0.8114092392197  0.8250638167607 1.0
C      1  0.3733956263588  0.5850210249493  0.9795405173271 1.0
C      1  0.3716651987914  0.3382419975598  0.9044231009488 1.0
C      1  0.3125426137628  0.1733187436280  0.7798791944740 1.0
C      1  0.3717443441199  0.0097260729713  0.5936742489525 1.0
C      1  0.6355944830544  0.7617176339651  0.5111517756564 1.0
C      1  0.6745409458544  0.7134934394033  0.6504830198096 1.0
C      1  0.6674876150212  0.5979491483925  0.7528806542709 1.0
C      1  0.6646125729960  0.4469351876452  0.7498698358571 1.0
C      1  0.6134241427997  0.3312381082581  0.6593936554435 1.0
C      1  0.6628885050187  0.2320068351750  0.5477871101106 1.0
C      1  0.6760649956903  0.2360422171783  0.3931202879611 1.0
C      1  0.6218087376285  0.3312203728078  0.2729348720706 1.0
C      1  0.6395717665836  0.5048522019100  0.1400326918924 1.0
C      1  0.6772846599828  0.6322828682289  0.2481240498142 1.0
C      1  0.6453684334197  0.7413233343518  0.3585399251413 1.0
C      1  0.2758632480000  0.5497871280737  0.5604640515982 1.0
C      1  0.5961444575792  0.4732130403598  0.4512703999643 1.0
C      1  0.6908138174484  0.4910196136884  0.4572266353492 1.0
END
