TITL C-28837-525-12 -12.118 3375.00 -1478.10562747 0 0 180 (Th) n - 1
REM
REM Run started: at 2020.12.30 08:05:23 in /rds/project/t2_vol4/rds-t2-cs072/BORA/CARBON/AIRSS/Generating-Clusters/Str-Search/Higher-Symm/Only-C180/Try1-3A
REM VASP from code version vasp.5.4.4.18Apr17-6-g9f103f2a35 (build Oct 11 2019 16:45:47) gamma-only
REM
REM
REM
REM
REM ./C.cell (dfbf6805b19190ca01ef1908a0670cb0)
REM AIRSS Version 0.9.1 bugfix July 2018 build 013d7b7c2542+ Fri, 06 Jul 2018 19:26:36 +0100
REM compiler GCC version 4.8.5 20150623 (Red Hat 4.8.5-39)
REM options -cpp -mtune=generic -march=x86-64 -g -O0
REM seed -225152850 -143433856 1383859055 516868688 -1958779107 -908529493 1441047782 1505679684 526700133 -1636927155 1807171863 -1628033030
REM
REM C.POTCAR (d86ddea03c3ceb6dc662c8ad6801f873)
REM 
CELL 1.54180   15.00000   15.00000   15.00000   90.00000   90.00000   90.00000
LATT -1
SFAC C  
C      1  0.4228491468385  0.5926482368985  0.6939290113879 1.0
C      1  0.5926536870043  0.6939292057759  0.4228448524364 1.0
C      1  0.6939229430182  0.4228431227432  0.5926393790569 1.0
C      1  0.5771548741685  0.5926611525948  0.3060736830717 1.0
C      1  0.5771539817875  0.4073518041845  0.6939182154517 1.0
C      1  0.4228479406371  0.4073604812407  0.3060769292581 1.0
C      1  0.4073623269590  0.6939179479162  0.5771591405645 1.0
C      1  0.4073533790522  0.3060855135861  0.4228486953144 1.0
C      1  0.5926604497761  0.3060755955752  0.5771454695706 1.0
C      1  0.3060807574598  0.4228554115465  0.4073462018820 1.0
C      1  0.3060809794079  0.5771445649706  0.5926600534586 1.0
C      1  0.6939238803080  0.5771616560084  0.4073523081328 1.0
C      1  0.4228454102667  0.4073380286191  0.6939261873277 1.0
C      1  0.5926363939107  0.3060823699326  0.4228398261366 1.0
C      1  0.6939193953343  0.5771443059397  0.5926527686091 1.0
C      1  0.5771500341612  0.4073509262159  0.3060702039175 1.0
C      1  0.5771518625689  0.5926396691730  0.6939217191399 1.0
C      1  0.4228460525609  0.5926489928456  0.3060816142783 1.0
C      1  0.4073467386225  0.3060698894554  0.5771554807663 1.0
C      1  0.4073393889366  0.6939254105678  0.4228536881297 1.0
C      1  0.5926465752105  0.6939145700994  0.5771504227558 1.0
C      1  0.3060773924111  0.5771563993693  0.4073617286853 1.0
C      1  0.3060757538188  0.4228377540194  0.5926484325917 1.0
C      1  0.6939179355576  0.4228554392187  0.4073391010948 1.0
C      1  0.6214043663978  0.3670453138887  0.8684063106028 1.0
C      1  0.3670521793766  0.8684046481369  0.6214079803618 1.0
C      1  0.8684046124961  0.6214109827896  0.3670461082298 1.0
C      1  0.3785864547737  0.3670496354233  0.1316029173940 1.0
C      1  0.3785824798046  0.6329554144735  0.8683913933360 1.0
C      1  0.6214110076754  0.6329632011309  0.1316012339276 1.0
C      1  0.6329596800471  0.8683952386154  0.3785899223507 1.0
C      1  0.6329612951055  0.1316105114803  0.6214115202004 1.0
C      1  0.3670487989280  0.1315974027603  0.3785885815466 1.0
C      1  0.1316043250690  0.6214073533226  0.6329587676747 1.0
C      1  0.1316114672362  0.3785892613741  0.3670429156106 1.0
C      1  0.8683970486569  0.3785854164096  0.6329549062881 1.0
C      1  0.6214131518218  0.6329507445065  0.8683970632790 1.0
C      1  0.3670403883940  0.1316032170041  0.6214141232182 1.0
C      1  0.8683952568437  0.3785920240985  0.3670418722391 1.0
C      1  0.3785920753018  0.6329551642981  0.1315929471392 1.0
C      1  0.3785894249380  0.3670379563906  0.8683991497847 1.0
C      1  0.6214181979540  0.3670451958113  0.1316087279931 1.0
C      1  0.6329476644667  0.1315951240723  0.3785915239723 1.0
C      1  0.6329522604620  0.8684020364805  0.6214111340846 1.0
C      1  0.3670379393930  0.8683889688375  0.3785879241947 1.0
C      1  0.1315963186292  0.3785880788329  0.6329548916091 1.0
C      1  0.1316014106235  0.6214114686505  0.3670474472777 1.0
C      1  0.8683894047306  0.6214098245672  0.6329574687144 1.0
C      1  0.9432411380692  0.5525157755398  0.6177992967819 1.0
C      1  0.5525188551453  0.6178011979338  0.9432421851236 1.0
C      1  0.6178051490166  0.9432441540815  0.5525160180860 1.0
C      1  0.0567578000489  0.5525179590958  0.3822044274585 1.0
C      1  0.0567586565263  0.4474822673593  0.6178007501492 1.0
C      1  0.9432418989055  0.4474872111651  0.3821956742406 1.0
C      1  0.4474855151454  0.6178069257001  0.0567566625262 1.0
C      1  0.4474866816085  0.3821965490868  0.9432428603502 1.0
C      1  0.5525192337364  0.3822044025335  0.0567594775847 1.0
C      1  0.3821972752537  0.9432406389605  0.4474864989225 1.0
C      1  0.3822011947107  0.0567584349255  0.5525163172056 1.0
C      1  0.6178018776979  0.0567587526489  0.4474812970577 1.0
C      1  0.9432415200120  0.4474809272385  0.6177966635524 1.0
C      1  0.5525142470957  0.3821940182351  0.9432443835460 1.0
C      1  0.6178022552437  0.0567596913924  0.5525134974293 1.0
C      1  0.0567585948888  0.4474824484763  0.3822021299966 1.0
C      1  0.0567583674719  0.5525119842130  0.6178059305249 1.0
C      1  0.9432412919228  0.5525170459729  0.3822001325372 1.0
C      1  0.4474809115942  0.3821994283854  0.0567582789596 1.0
C      1  0.4474810645794  0.6177963221695  0.9432407185103 1.0
C      1  0.5525126942472  0.6178041567973  0.0567580978070 1.0
C      1  0.3821973659780  0.0567568509166  0.4474812413364 1.0
C      1  0.3821983568383  0.9432413017154  0.5525179362673 1.0
C      1  0.6177986128699  0.9432414832276  0.4474836388379 1.0
C      1  0.2721252758053  0.6325678821268  0.2608983530129 1.0
C      1  0.6325076311529  0.2608874052827  0.2721118678336 1.0
C      1  0.2608813853543  0.2721078417329  0.6325288782660 1.0
C      1  0.7278851068937  0.6325136595230  0.7391030081937 1.0
C      1  0.7278971083634  0.3674589896341  0.2608997734596 1.0
C      1  0.2721153275794  0.3674071081382  0.7391029669852 1.0
C      1  0.3674523502937  0.2608884446737  0.7279012007048 1.0
C      1  0.3674013819415  0.7390897248322  0.2721177701062 1.0
C      1  0.6325596524653  0.7390935242917  0.7278698899418 1.0
C      1  0.7390856767818  0.2721292303646  0.3673916846533 1.0
C      1  0.7390852699060  0.7278787356399  0.6325838533617 1.0
C      1  0.2608840626116  0.7278905139781  0.3674976412638 1.0
C      1  0.2721123201574  0.3674889135043  0.2608960733209 1.0
C      1  0.6325506163911  0.7391105667095  0.2721005972116 1.0
C      1  0.2609140489887  0.7278720773740  0.6326069770242 1.0
C      1  0.7278735455978  0.3674341760816  0.7391037018167 1.0
C      1  0.7278841981163  0.6325922934027  0.2608972289550 1.0
C      1  0.2721037346251  0.6325419765795  0.7391005097658 1.0
C      1  0.3674916906880  0.7391132533853  0.7278876133450 1.0
C      1  0.3674428363444  0.2609066162809  0.2721284197602 1.0
C      1  0.6326013974442  0.2609116176883  0.7278811495010 1.0
C      1  0.7391188993727  0.7278912435662  0.3674736955496 1.0
C      1  0.7391152858126  0.2721080764346  0.6325002196624 1.0
C      1  0.2609149315947  0.2721214228637  0.3674136602912 1.0
C      1  0.6071874953599  0.5461497344507  0.9016039951264 1.0
C      1  0.5461505791046  0.9016068843335  0.6071834912685 1.0
C      1  0.9016061301060  0.6071828185526  0.5461524460128 1.0
C      1  0.3928172747875  0.5461506939210  0.0983940496554 1.0
C      1  0.3928162143865  0.4538459190547  0.9016032919707 1.0
C      1  0.6071893687613  0.4538477984036  0.0983974810241 1.0
C      1  0.4538464634912  0.9016021982025  0.3928139022643 1.0
C      1  0.4538461178617  0.0983985600208  0.6071877458619 1.0
C      1  0.5461484814078  0.0983964923835  0.3928140628883 1.0
C      1  0.0983970275330  0.6071876702133  0.4538495029402 1.0
C      1  0.0983996110060  0.3928122205237  0.5461521016455 1.0
C      1  0.9016037892063  0.3928178081081  0.4538481852768 1.0
C      1  0.6071824230485  0.4538495572009  0.9016056195205 1.0
C      1  0.5461530512771  0.0983972516267  0.6071858161422 1.0
C      1  0.9016031255118  0.3928117872862  0.5461513184722 1.0
C      1  0.3928117296106  0.4538505261474  0.0983963484005 1.0
C      1  0.3928113676193  0.5461528752249  0.9016028264798 1.0
C      1  0.6071835109612  0.5461549568741  0.0983966592352 1.0
C      1  0.4538500220884  0.0983937951065  0.3928158191408 1.0
C      1  0.4538514760529  0.9016037633657  0.6071853315200 1.0
C      1  0.5461536549849  0.9016012571586  0.3928123861431 1.0
C      1  0.0983936868098  0.3928165508778  0.4538481154765 1.0
C      1  0.0983959996479  0.6071814360069  0.5461532954339 1.0
C      1  0.9016007727213  0.6071870837808  0.4538490025002 1.0
C      1  0.1969572183110  0.3305718939061  0.3178304846310 1.0
C      1  0.3305515791002  0.3178660799738  0.1969582175894 1.0
C      1  0.3178441541031  0.1969301441832  0.3305408226082 1.0
C      1  0.8030327956796  0.3305488616094  0.6821324999647 1.0
C      1  0.8030572422766  0.6694642913933  0.3178534078442 1.0
C      1  0.1969363512303  0.6694419838648  0.6821801819532 1.0
C      1  0.6694644923544  0.3178411667002  0.8030738046427 1.0
C      1  0.6694476997661  0.6821761483507  0.1969424052418 1.0
C      1  0.3305697882831  0.6821500614899  0.8030279192533 1.0
C      1  0.6821773138904  0.1969611786236  0.6694281014348 1.0
C      1  0.6821547393705  0.8030375397501  0.3305616956296 1.0
C      1  0.3178638677779  0.8030611193171  0.6694662122428 1.0
C      1  0.1969636792783  0.6694511046391  0.3178675954192 1.0
C      1  0.3305357858087  0.6821602123412  0.1969283033131 1.0
C      1  0.3178240027903  0.8030366827117  0.3305710770157 1.0
C      1  0.8030427734667  0.6694293626140  0.6821678140988 1.0
C      1  0.8030637897178  0.3305587138076  0.3178197117267 1.0
C      1  0.1969425459185  0.3305350335962  0.6821483721854 1.0
C      1  0.6694491173899  0.6821356877960  0.8030427096861 1.0
C      1  0.6694308818224  0.3178511818268  0.1969723442287 1.0
C      1  0.3305538995723  0.3178237615219  0.8030581226360 1.0
C      1  0.6821567114651  0.8030679812516  0.6694573515378 1.0
C      1  0.6821361798318  0.1969387243989  0.3305322860926 1.0
C      1  0.3178462096695  0.1969623444343  0.6694402216041 1.0
C      1  0.3290441885687  0.4414414284796  0.6880825050276 1.0
C      1  0.4414460464700  0.6880840125265  0.3290477887610 1.0
C      1  0.6880720270239  0.3290563082055  0.4414306803112 1.0
C      1  0.6709603254521  0.4414795619259  0.3119051391467 1.0
C      1  0.6709519574330  0.5585098987228  0.6880854920970 1.0
C      1  0.3290522945596  0.5585488665586  0.3119250312651 1.0
C      1  0.5585405982175  0.6880722409148  0.6709497063083 1.0
C      1  0.5585134550478  0.3119166272223  0.3290412322859 1.0
C      1  0.4414697075877  0.3119047795978  0.6709635740331 1.0
C      1  0.3119109582759  0.3290348388957  0.5585283622631 1.0
C      1  0.3119050869608  0.6709601938553  0.4414962400339 1.0
C      1  0.6880793092636  0.6709502647168  0.5585441845997 1.0
C      1  0.3290394864417  0.5585214925745  0.6880945495427 1.0
C      1  0.4414592283258  0.3119275681983  0.3290492630234 1.0
C      1  0.6880887331633  0.6709636382333  0.4414727993229 1.0
C      1  0.6709557038579  0.5585580552785  0.3119183451897 1.0
C      1  0.6709477668959  0.4414521176627  0.6880750245254 1.0
C      1  0.3290472801907  0.4414915827632  0.3119136601245 1.0
C      1  0.5585553435609  0.3119160867167  0.6709519428615 1.0
C      1  0.5585317532241  0.6880942858420  0.3290369632136 1.0
C      1  0.4414860423669  0.6880839225036  0.6709577207446 1.0
C      1  0.3119282809139  0.6709432923302  0.5585685203651 1.0
C      1  0.3119198083833  0.3290486649853  0.4414541447678 1.0
C      1  0.6880950668094  0.3290391062784  0.5585022764304 1.0
C      1  0.5463200902231  0.2953965097361  0.4999990367287 1.0
C      1  0.4536791818609  0.7046042078576  0.5000005381535 1.0
C      1  0.4999963899121  0.4536725713534  0.7046068802849 1.0
C      1  0.5000034361583  0.5463282805292  0.2953929709934 1.0
C      1  0.4536782661344  0.2953946009076  0.5000032504251 1.0
C      1  0.2953963027492  0.5000026378135  0.4536856319303 1.0
C      1  0.5000022952709  0.4536873233538  0.2953886849577 1.0
C      1  0.5463211965928  0.7046054209025  0.4999967056844 1.0
C      1  0.7046039914265  0.4999975029262  0.5463143414024 1.0
C      1  0.7046032715253  0.5000056271498  0.4536728902390 1.0
C      1  0.2953964018418  0.4999945738307  0.5463270471787 1.0
C      1  0.4999977532998  0.5463131560147  0.7046096259730 1.0
END
