TITL C-28165-8331-18 -1.184 3375.00 -195.99637037 0 0 24 (Oh) n - 1
REM
REM Run started: at 2020.12.04 06:26:19 in /rds/project/t2_vol4/rds-t2-cs072/BORA/CARBON/AIRSS/Generating-Clusters/Str-Search/Higher-Symm/C10-100
REM VASP from code version vasp.5.4.4.18Apr17-6-g9f103f2a35 (build Oct 11 2019 16:45:47) gamma-only
REM
REM
REM
REM
REM ./C.cell (f39ce9773e2efe3fa5bbdf770a4156b8)
REM AIRSS Version 0.9.1 bugfix July 2018 build 013d7b7c2542+ Fri, 06 Jul 2018 19:26:36 +0100
REM compiler GCC version 4.8.5 20150623 (Red Hat 4.8.5-39)
REM options -cpp -mtune=generic -march=x86-64 -g -O0
REM seed -1869052620 1179306250 -992309225 1920781659 1916661659 -813597856 -459226975 -1595647317 -679462142 -1484343041 -513498441 -402993058
REM
REM C.POTCAR (d86ddea03c3ceb6dc662c8ad6801f873)
REM 
CELL 1.54180   15.00000   15.00000   15.00000   90.00000   90.00000   90.00000
LATT -1
SFAC C  
C      1  0.5000044155855  0.5704345591497  0.3641795913985 1.0
C      1  0.5704345590213  0.3641796011770  0.5000044127154 1.0
C      1  0.3641796066181  0.5000044177676  0.5704345621530 1.0
C      1  0.4999955825612  0.4295654405252  0.3641796115747 1.0
C      1  0.5000044176024  0.4295654404145  0.6358204090491 1.0
C      1  0.4999955845173  0.5704345594866  0.6358203891342 1.0
C      1  0.4295654409943  0.6358203982132  0.5000044202583 1.0
C      1  0.5704345592435  0.6358203987568  0.4999955716291 1.0
C      1  0.4295654402834  0.3641796001157  0.4999955950320 1.0
C      1  0.6358203930591  0.4999955853095  0.5704345558067 1.0
C      1  0.3641796072413  0.4999955825950  0.4295654441556 1.0
C      1  0.6358203931517  0.5000044163672  0.4295654379450 1.0
C      1  0.5704345589077  0.5000044166747  0.3641795917472 1.0
C      1  0.3641796005569  0.5704345594300  0.5000044125902 1.0
C      1  0.5000044176435  0.3641796061015  0.5704345623910 1.0
C      1  0.4295654404779  0.4999955826458  0.3641796113287 1.0
C      1  0.4295654412297  0.5000044169339  0.6358204080385 1.0
C      1  0.5704345596560  0.4999955847904  0.6358203886560 1.0
C      1  0.6358203990937  0.4295654408376  0.5000044203253 1.0
C      1  0.6358203993018  0.5704345597706  0.4999955720027 1.0
C      1  0.3641796009397  0.4295654404335  0.4999955946227 1.0
C      1  0.4999955847395  0.6358203913953  0.5704345550599 1.0
C      1  0.4999955821723  0.3641796074741  0.4295654447282 1.0
C      1  0.5000044154022  0.6358203936347  0.4295654376576 1.0
END
