TITL C-2874-4087-7 -7.068 3375.00 -1416.69744804 0 0 170 (Cs) n - 1
REM
REM Run started: at 2020.12.29 21:30:30 in /gpfs/home/chem/mssmkc/CARBON/AIRSS/Generating-Clusters/Str-Search/Higher-Symm/C100-200
REM VASP from code version vasp.5.4.4.18Apr17-6-g9f103f2a35 (build Oct 11 2019 16:45:47) gamma-only
REM
REM
REM
REM
REM ./C.cell (533062f00bc710175b3da973d35f2034)
REM AIRSS Version 0.9.1 bugfix July 2018 build 013d7b7c2542+ Fri, 06 Jul 2018 19:26:36 +0100
REM compiler GCC version 6.3.0
REM options -cpp -iprefix /gpfs/warwick/csc/orac/software/Core/GCCcore/6.3.0/bin/../lib/gcc/x86_64-pc-linux-gnu/6.3.0/ -mtune=generic -march=x86-64 -g -O0
REM seed -1144250916 -845601415 1329077730 -234577989 1708160482 1716603401 1194136113 1127790070 -553641439 -569773714 1488366319 -61183167
REM
REM C.POTCAR (d86ddea03c3ceb6dc662c8ad6801f873)
REM 
CELL 1.54180   15.00000   15.00000   15.00000   90.00000   90.00000   90.00000
LATT -1
SFAC C  
C      1  0.2114738283199  0.4210853071541  0.2893664250168 1.0
C      1  0.2179168083458  0.7432715621442  0.5491052378778 1.0
C      1  0.2273553728781  0.3584338762530  0.6805147249487 1.0
C      1  0.7900311617418  0.4208195085683  0.2899321088796 1.0
C      1  0.7830237410701  0.7428929838940  0.5494432449527 1.0
C      1  0.7739663449097  0.3582314767010  0.6813993238379 1.0
C      1  0.8359387021396  0.3282643211246  0.5384709684484 1.0
C      1  0.8208713072355  0.5722622143517  0.3307369394290 1.0
C      1  0.8212292608135  0.6258249992214  0.6436310302347 1.0
C      1  0.1654418352061  0.3285565259112  0.5374732649111 1.0
C      1  0.1806496525080  0.5724423233396  0.3303564415171 1.0
C      1  0.1798275140149  0.6261676336109  0.6433326952219 1.0
C      1  0.6688390724321  0.8110074800351  0.6170987969373 1.0
C      1  0.6744018199678  0.2393628670630  0.7031907703068 1.0
C      1  0.6735237705125  0.4409353405755  0.1798213393016 1.0
C      1  0.3321688003796  0.8111856881636  0.6167746618023 1.0
C      1  0.3264937069468  0.2393759752928  0.7027284470417 1.0
C      1  0.3281757694277  0.4412731916937  0.1793804684402 1.0
C      1  0.2639914941311  0.2758993186710  0.6454632577984 1.0
C      1  0.2655752815148  0.4797638082802  0.2346479791860 1.0
C      1  0.2667667662804  0.7503911854319  0.6304860466874 1.0
C      1  0.7371090157208  0.2758520039438  0.6461835733715 1.0
C      1  0.7360695577409  0.4795204082149  0.2350591173139 1.0
C      1  0.7341029522934  0.7500092187105  0.6307709750126 1.0
C      1  0.1619191084462  0.2975208098738  0.3830189882990 1.0
C      1  0.2214598132334  0.7222000852802  0.3879163610540 1.0
C      1  0.1552778965722  0.5450296481010  0.7875794202273 1.0
C      1  0.8393141301324  0.2973555721023  0.3839175528917 1.0
C      1  0.7800322792608  0.7221329405730  0.3881925883701 1.0
C      1  0.8454753624296  0.5453818196396  0.7880760120218 1.0
C      1  0.0532358101284  0.5011048800097  0.5685093046283 1.0
C      1  0.0512599766460  0.4831663133484  0.4703119194879 1.0
C      1  0.0522588792103  0.5755349702598  0.4994373398732 1.0
C      1  0.9483575200958  0.5009739453622  0.5690456147632 1.0
C      1  0.9498754793191  0.4829885956216  0.4708610701148 1.0
C      1  0.9487773413993  0.5753814367674  0.4998928741871 1.0
C      1  0.4506333249122  0.4387379734810  0.6995835491960 1.0
C      1  0.4549334436182  0.3661237309477  0.3601083092874 1.0
C      1  0.4542952995957  0.6753614405484  0.4555549564535 1.0
C      1  0.5502258446717  0.4387399785588  0.6996607360679 1.0
C      1  0.5462098750722  0.3660886728151  0.3601754359898 1.0
C      1  0.5469344384756  0.6751858614713  0.4556961962880 1.0
C      1  0.5937131670609  0.4434014167815  0.3325083202173 1.0
C      1  0.5919944766750  0.6670371127300  0.5393150043033 1.0
C      1  0.5893853885277  0.3732415978819  0.6345896420779 1.0
C      1  0.4075963928413  0.4434645208181  0.3322844884717 1.0
C      1  0.4091167964253  0.6670676329410  0.5391175094269 1.0
C      1  0.4115927926027  0.3733260270700  0.6344391322832 1.0
C      1  0.6688177088851  0.8180626336611  0.4473937740366 1.0
C      1  0.6556981723613  0.3804168152967  0.7957897770966 1.0
C      1  0.6224675205963  0.2699618075589  0.2207985585835 1.0
C      1  0.3324974428702  0.8182383162503  0.4470819946050 1.0
C      1  0.3450825581851  0.3804323594273  0.7954466777975 1.0
C      1  0.3789949546258  0.2701717089167  0.2205299293747 1.0
C      1  0.7128071390973  0.2323691966976  0.4614266573647 1.0
C      1  0.6924536190615  0.6621201399235  0.2636914790404 1.0
C      1  0.7018046838491  0.5999509362003  0.7485463389464 1.0
C      1  0.2882807345261  0.2324217681071  0.4607148385354 1.0
C      1  0.3091800331809  0.6621531004343  0.2634829643537 1.0
C      1  0.2990798718244  0.6002694255910  0.7483954045435 1.0
C      1  0.5451074276913  0.8514415818905  0.5716262433938 1.0
C      1  0.5455829377381  0.2474762913147  0.7644333379885 1.0
C      1  0.5463645924108  0.3937249997929  0.1453789395081 1.0
C      1  0.4560365983562  0.8513937070547  0.5714910510841 1.0
C      1  0.4551693770997  0.2474697777523  0.7642860524129 1.0
C      1  0.4552562953409  0.3938090280901  0.1452027408904 1.0
C      1  0.6369242202218  0.4215175419218  0.5726604045849 1.0
C      1  0.6480964874708  0.4715439403085  0.4032098866965 1.0
C      1  0.6444104560337  0.5901110430198  0.5255296654806 1.0
C      1  0.3641747274977  0.4215994248161  0.5724100362047 1.0
C      1  0.3532484100497  0.4716723694277  0.4029487631943 1.0
C      1  0.3566872518275  0.5901841264744  0.5252498623977 1.0
C      1  0.4484687214305  0.6249155491367  0.7007448925264 1.0
C      1  0.4512081292859  0.2644696821420  0.5090536023254 1.0
C      1  0.4509747597675  0.5993999873117  0.2995398057899 1.0
C      1  0.5524498737043  0.6248672247240  0.7008037817151 1.0
C      1  0.5496956613154  0.2644227687540  0.5091311216042 1.0
C      1  0.5505372146518  0.5993244478469  0.2996166520082 1.0
C      1  0.6259529258167  0.4078614433323  0.4763605040828 1.0
C      1  0.6503095078216  0.5639087138505  0.4310721835217 1.0
C      1  0.6072299805306  0.5168033809984  0.5756214003913 1.0
C      1  0.3751136924964  0.4079702509887  0.4761297232732 1.0
C      1  0.3510130830354  0.5639910595888  0.4307685395216 1.0
C      1  0.3938075620277  0.5168879597130  0.5754184048399 1.0
C      1  0.5860881205433  0.4866464539686  0.1648958174684 1.0
C      1  0.5814579731454  0.7985292155537  0.6548938493041 1.0
C      1  0.5856610376363  0.2057887771115  0.6756199717266 1.0
C      1  0.4157423756862  0.4868396602316  0.1646568843825 1.0
C      1  0.4194661797845  0.7985421406392  0.6545973355279 1.0
C      1  0.4152868141867  0.2058308727647  0.6753972557636 1.0
C      1  0.4064126802893  0.6760194839949  0.2578059363454 1.0
C      1  0.3913149202844  0.6007717818957  0.7782416360571 1.0
C      1  0.3896425030148  0.2266828147562  0.4424394947631 1.0
C      1  0.5952999958270  0.6758594452820  0.2579909204533 1.0
C      1  0.6095047854598  0.6006223709915  0.7783359214443 1.0
C      1  0.6114166035560  0.2266126621761  0.4427429212000 1.0
C      1  0.5526064192226  0.6975425255821  0.6264677567379 1.0
C      1  0.5522579122786  0.2831530861704  0.6099155772909 1.0
C      1  0.5528567583681  0.5029872934559  0.2649472787223 1.0
C      1  0.4483676013395  0.6975935009073  0.6263607256190 1.0
C      1  0.4486983588282  0.2832001465718  0.6098317380650 1.0
C      1  0.4486510730298  0.5030681138967  0.2648234831468 1.0
C      1  0.2399972123678  0.2652418692826  0.5458049477750 1.0
C      1  0.2534246329965  0.5770547967945  0.2663628745976 1.0
C      1  0.2538106341903  0.6672372282962  0.6860204385041 1.0
C      1  0.7611689613335  0.2651512683649  0.5465879360609 1.0
C      1  0.7482009981303  0.5769595599752  0.2666553386197 1.0
C      1  0.7470625957448  0.6668318458239  0.6862294183477 1.0
C      1  0.2882477333504  0.7335998350733  0.3224570671919 1.0
C      1  0.2409182988830  0.5135897333807  0.7471414520285 1.0
C      1  0.2407549633875  0.2524624520700  0.3810815787992 1.0
C      1  0.7134254890032  0.7336376643521  0.3225922504424 1.0
C      1  0.7601324301027  0.5133824514762  0.7475084828565 1.0
C      1  0.7604154776834  0.2524050643279  0.3818998540270 1.0
C      1  0.1125938902603  0.4378514221832  0.4180824702003 1.0
C      1  0.1234980485249  0.6340026261405  0.4801959181803 1.0
C      1  0.1229648504028  0.4701644181074  0.6263373874838 1.0
C      1  0.8884957394179  0.4375967998270  0.4188585030621 1.0
C      1  0.8775531979004  0.6337724613924  0.4806048724113 1.0
C      1  0.8787615843860  0.4698945993467  0.6272085626367 1.0
C      1  0.8397822879641  0.3869799053282  0.6177553364449 1.0
C      1  0.8462481471747  0.4760460312159  0.3445806540504 1.0
C      1  0.8398806218577  0.6687246899186  0.5581875035034 1.0
C      1  0.1618494111390  0.3872997667537  0.6167122975833 1.0
C      1  0.1550931442544  0.4763488133666  0.3439614100539 1.0
C      1  0.1611364903277  0.6690388653970  0.5578318769007 1.0
C      1  0.1629627729318  0.5384517118105  0.6839339945797 1.0
C      1  0.1304776279509  0.3498068031747  0.4514637829310 1.0
C      1  0.1657411482259  0.6451787689397  0.3940079575846 1.0
C      1  0.8383272638678  0.5382899496711  0.6844350122912 1.0
C      1  0.8708298045890  0.3495574612851  0.4523711930908 1.0
C      1  0.8356593863987  0.6450577784550  0.3943213410857 1.0
C      1  0.4107364733036  0.2179564420498  0.2772014240755 1.0
C      1  0.3650289232744  0.7886985622487  0.3557402770015 1.0
C      1  0.4291823508838  0.4376889856657  0.8011711658465 1.0
C      1  0.5906060115173  0.2177276879819  0.2774442868188 1.0
C      1  0.6365696960476  0.7887215439840  0.3558885206640 1.0
C      1  0.5715231599408  0.4376316563820  0.8012384897211 1.0
C      1  0.2134866518524  0.3282416440229  0.3124795382239 1.0
C      1  0.2464852058472  0.7737165235794  0.4645918737508 1.0
C      1  0.2681128325121  0.4147207716555  0.7480089755628 1.0
C      1  0.7878556473568  0.3280155696176  0.3132372116722 1.0
C      1  0.7547660151145  0.7734499902937  0.4649294550646 1.0
C      1  0.7328980300508  0.4146015520906  0.7485804623803 1.0
C      1  0.5418125707104  0.8205307363604  0.7408468792482 1.0
C      1  0.5420654021749  0.1225264642413  0.6496947582767 1.0
C      1  0.5429718252827  0.5572583430635  0.1115532726357 1.0
C      1  0.4588344185271  0.8204739327986  0.7406759214031 1.0
C      1  0.4589354545445  0.1225665017402  0.6495750640176 1.0
C      1  0.4592205249227  0.5573647412877  0.1114817663693 1.0
C      1  0.3684206003473  0.8451930822225  0.5312740888301 1.0
C      1  0.3659545584413  0.2890186134132  0.7767867515541 1.0
C      1  0.3745421099172  0.3517762771673  0.1734587076793 1.0
C      1  0.6328034484804  0.8450867396234  0.5315446581510 1.0
C      1  0.6348059245858  0.2890069809775  0.7771744151315 1.0
C      1  0.6269653485710  0.3515317631079  0.1737897658400 1.0
C      1  0.5501980664862  0.1943827517720  0.3597956944739 1.0
C      1  0.5539031696472  0.7585570917637  0.3039187706854 1.0
C      1  0.5493221575324  0.5333909923376  0.8232904154395 1.0
C      1  0.4509641037033  0.1945046959207  0.3596720901738 1.0
C      1  0.4478845696913  0.7586785006759  0.3038132022452 1.0
C      1  0.4513629174645  0.5334396898426  0.8232478901759 1.0
C      1  0.4152975460554  0.6150654606331  0.3904404791532 1.0
C      1  0.4483129086361  0.5322893756015  0.6537547124715 1.0
C      1  0.4125106725975  0.3264189061551  0.4393135328604 1.0
C      1  0.5861458464790  0.6150266489497  0.3905736200446 1.0
C      1  0.5526195626174  0.5322541427214  0.6538598998426 1.0
C      1  0.5885540799032  0.3263366077343  0.4394107262609 1.0
C      1  0.5450583744474  0.4648772104813  0.5107197740304 1.0
C      1  0.4560444767362  0.4649389227068  0.5105916907101 1.0
END
