TITL C-28165-8331-33 -3.065 3375.00 -510.67161417 0 0 65 (C1) n - 1
REM
REM Run started: at 2020.12.04 11:08:22 in /rds/project/t2_vol4/rds-t2-cs072/BORA/CARBON/AIRSS/Generating-Clusters/Str-Search/Higher-Symm/C10-100
REM VASP from code version vasp.5.4.4.18Apr17-6-g9f103f2a35 (build Oct 11 2019 16:45:47) gamma-only
REM
REM
REM
REM
REM ./C.cell (f39ce9773e2efe3fa5bbdf770a4156b8)
REM AIRSS Version 0.9.1 bugfix July 2018 build 013d7b7c2542+ Fri, 06 Jul 2018 19:26:36 +0100
REM compiler GCC version 4.8.5 20150623 (Red Hat 4.8.5-39)
REM options -cpp -mtune=generic -march=x86-64 -g -O0
REM seed -1475868847 -187590338 2035222792 -2022735837 -1323557143 -47542200 -390528696 -437831116 1147513838 2046403170 602838815 81166042
REM
REM C.POTCAR (d86ddea03c3ceb6dc662c8ad6801f873)
REM 
CELL 1.54180   15.00000   15.00000   15.00000   90.00000   90.00000   90.00000
LATT -1
SFAC C  
C      1  0.5271473168822  0.5975518766435  0.3621410104927 1.0
C      1  0.3507782739415  0.5371684544275  0.5810445189443 1.0
C      1  0.5959503121306  0.3498279326275  0.5303493744221 1.0
C      1  0.5376115279149  0.4148018736005  0.6609309909046 1.0
C      1  0.4506399411306  0.3688538652067  0.3089716682814 1.0
C      1  0.4865949555403  0.6144027618637  0.6285554974020 1.0
C      1  0.3116730593346  0.4410541039785  0.3725111795179 1.0
C      1  0.7045486480952  0.4237722373696  0.6363637064994 1.0
C      1  0.6523445324042  0.5262727335591  0.3988609246609 1.0
C      1  0.6161293764722  0.6971186344020  0.4491465533584 1.0
C      1  0.3837707725623  0.7076459601637  0.5493093070823 1.0
C      1  0.4072637834062  0.3356955809422  0.4827708653733 1.0
C      1  0.5188132539639  0.3367486086705  0.5982535337282 1.0
C      1  0.3716771852483  0.6128240662119  0.5138710137063 1.0
C      1  0.5998443260096  0.5419882662213  0.3131506151259 1.0
C      1  0.5484236658204  0.6950008189613  0.3819264243632 1.0
C      1  0.4766993641552  0.3505401414646  0.4060299428673 1.0
C      1  0.4503881365202  0.7085908612324  0.6148008908679 1.0
C      1  0.3441399974330  0.4125423463446  0.4636729307709 1.0
C      1  0.6339177231285  0.6026236237858  0.4728751348750 1.0
C      1  0.6922683079491  0.3708456115919  0.5583434959354 1.0
C      1  0.6282539806249  0.4451105529493  0.6935546984105 1.0
C      1  0.4198109536038  0.5384725069612  0.6510436487247 1.0
C      1  0.3718590968845  0.4229589493506  0.2980947616699 1.0
C      1  0.3982179086273  0.5834218599067  0.2568071700222 1.0
C      1  0.1510692570646  0.4060589304142  0.6185170982393 1.0
C      1  0.6626901571135  0.2099397905996  0.3380712176511 1.0
C      1  0.4130409345938  0.4310927919472  0.7749521541809 1.0
C      1  0.5238842691897  0.3934243405241  0.2542010090600 1.0
C      1  0.6100804962112  0.6173035670392  0.7480363783689 1.0
C      1  0.2795935948944  0.5291532607512  0.3795695123249 1.0
C      1  0.7525804907535  0.5053298816763  0.6224964485880 1.0
C      1  0.8001934205901  0.4120326764002  0.4078247966103 1.0
C      1  0.5891058106278  0.7829860691705  0.5886623810352 1.0
C      1  0.3742285638892  0.7724387806154  0.4837326682045 1.0
C      1  0.3875251455904  0.2316173268125  0.6127162657155 1.0
C      1  0.3532674064738  0.1578009326580  0.6411274839076 1.0
C      1  0.2521060769093  0.6117928968638  0.3898257033172 1.0
C      1  0.5881445653096  0.4053042347923  0.1884640184490 1.0
C      1  0.4078282680482  0.7824423239194  0.4080951752281 1.0
C      1  0.6203505081473  0.2685654448471  0.3847417245523 1.0
C      1  0.5146122210550  0.7748216829227  0.6252441903088 1.0
C      1  0.2279988850908  0.4281614057797  0.5858273478813 1.0
C      1  0.7430774200642  0.5844838070290  0.6009109153672 1.0
C      1  0.7411176057982  0.3979288531323  0.4811954586968 1.0
C      1  0.6210867098166  0.5338275765693  0.7225920236288 1.0
C      1  0.3765140810946  0.4076538212443  0.8497597413294 1.0
C      1  0.3804181441162  0.5031442794360  0.2479868357439 1.0
C      1  0.4535591369954  0.4577054529602  0.6993300583688 1.0
C      1  0.6595911018908  0.6280752380911  0.5725208908365 1.0
C      1  0.6397670351235  0.7260042484659  0.5359388002920 1.0
C      1  0.5837171205696  0.4704910861608  0.2566490252009 1.0
C      1  0.7192790428263  0.4602759200326  0.4169798858965 1.0
C      1  0.3043517211403  0.4551377509371  0.5471668511388 1.0
C      1  0.3483971070628  0.6040826288052  0.4139202729515 1.0
C      1  0.5685255269520  0.3213769695534  0.4366389463766 1.0
C      1  0.4330888992504  0.2961590093347  0.5696859422407 1.0
C      1  0.4615067313724  0.7229432202118  0.3608023717922 1.0
C      1  0.4266408067626  0.6256235244657  0.3416756094368 1.0
C      1  0.5866118621409  0.6072174849929  0.6521441957186 1.0
C      1  0.5440711344838  0.4270997336793  0.5628879303423 1.0
C      1  0.5606360981101  0.5442286727891  0.4443576664129 1.0
C      1  0.4522999901984  0.5611721922136  0.5488924829210 1.0
C      1  0.4420217951324  0.4264904942401  0.4579241559012 1.0
C      1  0.5007010577628  0.4897800694855  0.5026189077770 1.0
END
