TITL C-28945-2386-162 -3.257 3375.00 -555.40906435 0 0 69 (C2) n - 1
REM
REM Run started: at 2020.12.30 13:41:35 in /gpfs/home/chem/mssmkc/CARBON/AIRSS/Generating-Clusters/Str-Search/Higher-Symm/C4-100
REM VASP from code version vasp.5.4.4.18Apr17-6-g9f103f2a35 (build Oct 11 2019 16:45:47) gamma-only
REM
REM
REM
REM
REM ./C.cell (6bd13a13d554368a30d355f37ece5b26)
REM AIRSS Version 0.9.1 bugfix July 2018 build 013d7b7c2542+ Fri, 06 Jul 2018 19:26:36 +0100
REM compiler GCC version 6.3.0
REM options -cpp -iprefix /gpfs/warwick/csc/orac/software/Core/GCCcore/6.3.0/bin/../lib/gcc/x86_64-pc-linux-gnu/6.3.0/ -mtune=generic -march=x86-64 -g -O0
REM seed 236769498 2045398407 -1622730168 -1105484287 1961226790 1063812378 -1325537449 -1027062055 1185739933 -1403389855 269348714 2030333639
REM
REM C.POTCAR (d86ddea03c3ceb6dc662c8ad6801f873)
REM 
CELL 1.54180   15.00000   15.00000   15.00000   90.00000   90.00000   90.00000
LATT -1
SFAC C  
C      1  0.7630811433549  0.5359510976255  0.4069874705428 1.0
C      1  0.7631743877691  0.4654914977912  0.5880952775787 1.0
C      1  0.5954470016094  0.5159368183464  0.2611961339544 1.0
C      1  0.5958080592848  0.4857071466186  0.7341880708037 1.0
C      1  0.6479542198510  0.6718429637593  0.5628394182822 1.0
C      1  0.6475398926604  0.3297852357679  0.4323011900219 1.0
C      1  0.3377984330670  0.3876297491073  0.3081157637972 1.0
C      1  0.3381799892076  0.6142996893786  0.6873849690385 1.0
C      1  0.7607123032577  0.5942970581305  0.4657306151345 1.0
C      1  0.7605494991956  0.4070846362975  0.5294238163990 1.0
C      1  0.5237508403374  0.4179456856106  0.4691325429633 1.0
C      1  0.5239034654484  0.5839285873422  0.5262989677790 1.0
C      1  0.4910892570905  0.6156115319222  0.7552665293326 1.0
C      1  0.4906019758111  0.3861832639365  0.2399390043245 1.0
C      1  0.6117394328328  0.3508131922805  0.3428201250598 1.0
C      1  0.6122202422394  0.6509839976226  0.6524681236468 1.0
C      1  0.5287304991895  0.3260921485987  0.3054690073446 1.0
C      1  0.5291694293411  0.6756874194434  0.6897522332497 1.0
C      1  0.4400665819218  0.5144103864918  0.2159506864724 1.0
C      1  0.4404040659372  0.4874238179094  0.7796262575103 1.0
C      1  0.4586622961826  0.7231894509067  0.6425251855542 1.0
C      1  0.4582638801864  0.2785695024121  0.3528510723166 1.0
C      1  0.4021421762770  0.5801161730514  0.7538605801792 1.0
C      1  0.4016504705088  0.4217656145397  0.2414521262364 1.0
C      1  0.5087054948366  0.4676898819520  0.6262753270501 1.0
C      1  0.5085208599982  0.5340394877517  0.3690338695159 1.0
C      1  0.3078427980118  0.3901617962191  0.5500045506801 1.0
C      1  0.3079246800643  0.6117533647664  0.4455935907345 1.0
C      1  0.6421096957574  0.4498509721784  0.3291145569726 1.0
C      1  0.6424378820230  0.5517912888677  0.6661647074122 1.0
C      1  0.5396977628094  0.4006692013128  0.6891128241905 1.0
C      1  0.5394435102081  0.6011970227791  0.3062754501827 1.0
C      1  0.5632431233563  0.3298823421298  0.6136398971131 1.0
C      1  0.5631493680335  0.6719843973546  0.3816889296087 1.0
C      1  0.2980944385189  0.5543362428103  0.6247993775156 1.0
C      1  0.2978409849119  0.4475942391879  0.3708081075038 1.0
C      1  0.5110995822872  0.2803934909554  0.5579521950386 1.0
C      1  0.5111963739524  0.7214641803785  0.4375793992564 1.0
C      1  0.3706774979185  0.6265143600311  0.3179263268881 1.0
C      1  0.3708013008278  0.3754379399772  0.6775423180811 1.0
C      1  0.7249781013565  0.3843939861813  0.4451310925445 1.0
C      1  0.7252584133888  0.6171433599168  0.5499583031878 1.0
C      1  0.4076878200340  0.2724715546183  0.4355080026165 1.0
C      1  0.4078979994551  0.7295785931127  0.5600758029619 1.0
C      1  0.5292062165183  0.5283538001482  0.7822582537673 1.0
C      1  0.5288188295598  0.4734263271289  0.2130423012256 1.0
C      1  0.3611333952999  0.6771331025118  0.4036240810093 1.0
C      1  0.3610551842357  0.3247798887772  0.5920069628569 1.0
C      1  0.4283331069782  0.5653051235712  0.5437971322895 1.0
C      1  0.4281637951811  0.4365795821874  0.4517265870710 1.0
C      1  0.3322636737892  0.5436262357895  0.3705027248343 1.0
C      1  0.3324380506510  0.4582840038169  0.6250159146856 1.0
C      1  0.5757554443797  0.4766187732945  0.4056160958602 1.0
C      1  0.5759193013323  0.5252011119097  0.5897374784032 1.0
C      1  0.7306025887772  0.4546479274985  0.3763099959077 1.0
C      1  0.7308570393876  0.5468888515090  0.6187851078287 1.0
C      1  0.4259029305743  0.4923065310614  0.6013886749805 1.0
C      1  0.4257368550010  0.5094808921781  0.3939434547550 1.0
C      1  0.3700523814860  0.3042185807750  0.3494314325131 1.0
C      1  0.3704048513962  0.6976798704043  0.6459843654853 1.0
C      1  0.4190684098680  0.7298832667732  0.4644439665847 1.0
C      1  0.4189373319979  0.2721068024095  0.5312006861120 1.0
C      1  0.3345262546980  0.5860245881367  0.5334331364892 1.0
C      1  0.3343698812136  0.4159177472265  0.4621278046492 1.0
C      1  0.5745636399655  0.6646170755029  0.4883835709683 1.0
C      1  0.5743367636917  0.3371606569280  0.5068704003234 1.0
C      1  0.4427684680517  0.4017775141100  0.7348281434345 1.0
C      1  0.4425739112197  0.6001616891885  0.2606080126025 1.0
C      1  0.5764122644352  0.5008662897911  0.4976814187860 1.0
END
